REMARK  3 active torsions:
REMARK  status: ('A' for Active; 'I' for Inactive)
REMARK    1  A    between atoms: C_3  and  C_12 
REMARK    2  A    between atoms: C_5  and  C_9 
REMARK    3  A    between atoms: C_12  and  O_13 
ROOT
HETATM    1  N   LIG     1       1.979   0.584   0.090  1.00  0.00    -0.340 N 
ATOM      2  HN  LIG     1       2.569   1.416   0.099  1.00  0.00     0.167 HD
HETATM    3  C   LIG     1       1.308  -1.595   0.085  1.00  0.00     0.069 A 
HETATM    4  N   LIG     1       0.200  -0.765   0.005  1.00  0.00    -0.308 N 
HETATM    5  C   LIG     1       2.394  -0.730   0.141  1.00  0.00     0.069 A 
HETATM    6  C   LIG     1       0.668   0.544   0.027  1.00  0.00     0.112 A 
HETATM    7  C   LIG     1      -1.162  -1.076  -0.077  1.00  0.00     0.099 A 
HETATM    8  C   LIG     1      -0.294   1.591  -0.020  1.00  0.00     0.049 A 
HETATM    9  C   LIG     1      -2.067  -0.086  -0.125  1.00  0.00     0.018 A 
HETATM   10  C   LIG     1      -1.607   1.293  -0.090  1.00  0.00     0.005 A 
ENDROOT
BRANCH   5  11
HETATM   11  C   LIG     1       3.814  -1.057   0.202  1.00  0.00    -0.007 A 
HETATM   12  C   LIG     1       4.310  -2.156   0.913  1.00  0.00     0.014 A 
HETATM   13  C   LIG     1       5.685  -2.418   0.954  1.00  0.00     0.001 A 
HETATM   14  C   LIG     1       6.581  -1.568   0.309  1.00  0.00     0.000 A 
HETATM   15  C   LIG     1       6.105  -0.456  -0.379  1.00  0.00     0.001 A 
HETATM   16  C   LIG     1       4.731  -0.204  -0.432  1.00  0.00     0.014 A 
ENDBRANCH   5  11
BRANCH   3  17
HETATM   17  C   LIG     1       1.187  -3.068   0.050  1.00  0.00     0.224 C 
BRANCH  17  18
HETATM   18  O   LIG     1       0.463  -3.465   1.207  1.00  0.00    -0.395 OA
ATOM     19  HO  LIG     1       0.385  -4.412   1.185  1.00  0.00     0.209 HD
ENDBRANCH  17  18
ENDBRANCH   3  17
TORSDOF 3
