REMARK  1 active torsions:
REMARK  status: ('A' for Active; 'I' for Inactive)
REMARK       I    between atoms: N_1  and  C_5 
REMARK    1  A    between atoms: C_2  and  C_5 
ROOT
HETATM    1  N   LIG     1      -0.880   0.067  -0.804  1.00  0.00    -0.312 N 
HETATM    2  C   LIG     1      -0.934   1.038  -1.794  1.00  0.00     0.276 C 
HETATM    3  C   LIG     1       0.121  -0.917  -0.680  1.00  0.00     0.043 A 
HETATM    4  C   LIG     1      -1.887  -0.167   0.248  1.00  0.00     0.137 A 
HETATM    5  O   LIG     1      -0.100   1.216  -2.680  1.00  0.00    -0.265 OA
HETATM    6  C   LIG     1      -0.170  -1.770   0.386  1.00  0.00    -0.030 A 
HETATM    7  C   LIG     1      -1.421  -1.360   1.091  1.00  0.00     0.061 A 
HETATM    8  C   LIG     1       1.255  -1.117  -1.449  1.00  0.00     0.030 A 
HETATM    9  C   LIG     1       0.645  -2.848   0.696  1.00  0.00     0.009 A 
HETATM   10  C   LIG     1       2.090  -2.199  -1.142  1.00  0.00     0.002 A 
HETATM   11  C   LIG     1       1.783  -3.062  -0.081  1.00  0.00     0.001 A 
ENDROOT
BRANCH   2  12
HETATM   12  C   LIG     1      -2.122   2.002  -1.788  1.00  0.00     0.116 A 
HETATM   13  N   LIG     1      -3.310   1.565  -1.498  1.00  0.00    -0.291 N 
HETATM   14  N   LIG     1      -4.352   2.464  -1.538  1.00  0.00    -0.262 N 
ATOM     15  HN  LIG     1      -3.466   0.588  -1.249  1.00  0.00     0.187 HD
HETATM   16  C   LIG     1      -4.219   3.804  -1.880  1.00  0.00     0.261 A 
HETATM   17  C   LIG     1      -5.652   1.957  -1.141  1.00  0.00     0.181 C 
HETATM   18  C   LIG     1      -2.849   4.247  -2.219  1.00  0.00     0.078 A 
HETATM   19  O   LIG     1      -5.135   4.618  -1.908  1.00  0.00    -0.267 OA
HETATM   20  C   LIG     1      -1.821   3.400  -2.167  1.00  0.00     0.042 A 
ENDBRANCH   2  12
TORSDOF 1
