REMARK  3 active torsions:
REMARK  status: ('A' for Active; 'I' for Inactive)
REMARK       I    between atoms: N_1  and  C_2 
REMARK    1  A    between atoms: C_2  and  C_3 
REMARK    2  A    between atoms: C_4  and  C_11 
REMARK    3  A    between atoms: C_17  and  O_21 
ROOT
HETATM    1  N   LIG     1       0.401   1.091  -0.561  1.00  0.00    -0.339 N 
HETATM    2  C   LIG     1      -0.562   0.318  -1.186  1.00  0.00     0.255 C 
HETATM    3  C   LIG     1       1.051   0.606   0.663  1.00  0.00     0.120 C 
HETATM    4  O   LIG     1      -0.870  -0.789  -0.733  1.00  0.00    -0.267 OA
HETATM    5  C   LIG     1       1.055   2.304  -1.034  1.00  0.00     0.127 C 
HETATM    6  C   LIG     1       2.444   1.249   0.600  1.00  0.00     0.032 C 
HETATM    7  C   LIG     1       2.185   2.595  -0.056  1.00  0.00     0.022 C 
ENDROOT
BRANCH   2   8
HETATM    8  C   LIG     1      -1.225   0.785  -2.465  1.00  0.00     0.047 A 
HETATM    9  C   LIG     1      -1.810  -0.167  -3.224  1.00  0.00     0.108 A 
HETATM   10  N   LIG     1      -2.461   0.150  -4.397  1.00  0.00    -0.333 N 
HETATM   11  C   LIG     1      -2.573   1.424  -4.900  1.00  0.00     0.245 A 
ATOM     12  HN  LIG     1      -2.887  -0.611  -4.926  1.00  0.00     0.168 HD
HETATM   13  C   LIG     1      -1.965   2.484  -4.062  1.00  0.00     0.075 A 
HETATM   14  O   LIG     1      -3.144   1.691  -5.941  1.00  0.00    -0.268 OA
HETATM   15  C   LIG     1      -1.372   2.163  -2.904  1.00  0.00     0.024 A 
ENDBRANCH   2   8
BRANCH   3  16
HETATM   16  C   LIG     1       0.297   0.995   1.931  1.00  0.00    -0.035 A 
HETATM   17  C   LIG     1       0.389   0.183   3.071  1.00  0.00     0.012 A 
HETATM   18  C   LIG     1      -0.265   0.533   4.259  1.00  0.00     0.037 A 
HETATM   19  C   LIG     1      -1.007   1.711   4.334  1.00  0.00     0.068 A 
HETATM   20  C   LIG     1      -1.124   2.515   3.205  1.00  0.00     0.037 A 
HETATM   21  C   LIG     1      -0.475   2.164   2.020  1.00  0.00     0.012 A 
BRANCH  19  22
HETATM   22  O   LIG     1      -1.683   2.148   5.440  1.00  0.00    -0.356 OA
HETATM   23  C   LIG     1      -1.137   1.730   6.686  1.00  0.00     0.210 C 
ENDBRANCH  19  22
ENDBRANCH   3  16
TORSDOF 3
