REMARK  3 active torsions:
REMARK  status: ('A' for Active; 'I' for Inactive)
REMARK    1  A    between atoms: C_1  and  C_7 
REMARK    2  A    between atoms: C_2  and  C_8 
REMARK    3  A    between atoms: C_8  and  O_11 
ROOT
HETATM    1  C   LIG     1      -2.476  -0.290   0.035  1.00  0.00     0.052 A 
HETATM    2  C   LIG     1      -1.564  -1.346   0.024  1.00  0.00     0.005 A 
HETATM    3  N   LIG     1      -1.726   0.870   0.061  1.00  0.00    -0.354 N 
ATOM      4  HN  LIG     1      -2.123   1.809   0.066  1.00  0.00     0.166 HD
HETATM    5  C   LIG     1      -0.243  -0.780   0.045  1.00  0.00     0.001 A 
HETATM    6  C   LIG     1      -0.380   0.602   0.079  1.00  0.00     0.043 A 
HETATM    7  C   LIG     1       1.060  -1.323   0.038  1.00  0.00     0.014 A 
HETATM    8  C   LIG     1       0.712   1.477   0.119  1.00  0.00     0.030 A 
HETATM    9  C   LIG     1       2.166  -0.466   0.073  1.00  0.00     0.001 A 
HETATM   10  C   LIG     1       1.991   0.915   0.116  1.00  0.00     0.002 A 
ENDROOT
BRANCH   1  11
HETATM   11  C   LIG     1      -3.948  -0.243   0.007  1.00  0.00    -0.009 A 
HETATM   12  C   LIG     1      -4.647   0.792   0.652  1.00  0.00     0.014 A 
HETATM   13  C   LIG     1      -6.044   0.857   0.608  1.00  0.00     0.001 A 
HETATM   14  C   LIG     1      -6.767  -0.119  -0.070  1.00  0.00     0.000 A 
HETATM   15  C   LIG     1      -6.093  -1.155  -0.709  1.00  0.00     0.001 A 
HETATM   16  C   LIG     1      -4.696  -1.211  -0.676  1.00  0.00     0.014 A 
ENDBRANCH   1  11
BRANCH   2  17
HETATM   17  C   LIG     1      -1.851  -2.812   0.001  1.00  0.00     0.206 C 
BRANCH  17  18
HETATM   18  O   LIG     1      -2.017  -3.292  -1.330  1.00  0.00    -0.396 OA
ATOM     19  HO  LIG     1      -2.199  -4.224  -1.345  1.00  0.00     0.209 HD
ENDBRANCH  17  18
ENDBRANCH   2  17
TORSDOF 3
