REMARK  3 active torsions:
REMARK  status: ('A' for Active; 'I' for Inactive)
REMARK       I    between atoms: C_1  and  N_2 
REMARK    1  A    between atoms: C_1  and  C_12 
REMARK    2  A    between atoms: N_2  and  C_4 
REMARK    3  A    between atoms: C_11  and  C_12 
ROOT
HETATM    1  C   LIG     1       1.029  -0.135  -0.102  1.00  0.00     0.226 C 
HETATM    2  N   LIG     1       0.408  -1.054  -0.918  1.00  0.00    -0.325 N 
ATOM      3  HN  LIG     1       0.938  -1.430  -1.704  1.00  0.00     0.169 HD
HETATM    4  O   LIG     1       0.510   0.356   0.911  1.00  0.00    -0.273 OA
ENDROOT
BRANCH   1   5
HETATM    5  C   LIG     1       2.452   0.245  -0.473  1.00  0.00     0.141 C 
BRANCH   5   6
HETATM    6  C   LIG     1       3.019  -0.374  -1.732  1.00  0.00    -0.049 A 
HETATM    7  C   LIG     1       2.771   0.220  -2.982  1.00  0.00     0.017 A 
HETATM    8  C   LIG     1       3.287  -0.383  -4.117  1.00  0.00    -0.022 A 
HETATM    9  C   LIG     1       4.032  -1.545  -4.029  1.00  0.00     0.075 A 
HETATM   10  C   LIG     1       3.116  -0.011  -5.537  1.00  0.00     0.068 C 
HETATM   11  C   LIG     1       4.282  -2.160  -2.821  1.00  0.00     0.038 A 
HETATM   12  O   LIG     1       4.453  -2.030  -5.237  1.00  0.00    -0.350 OA
HETATM   13  C   LIG     1       3.762  -1.574  -1.664  1.00  0.00     0.010 A 
HETATM   14  C   LIG     1       4.073  -1.011  -6.190  1.00  0.00     0.180 C 
ENDBRANCH   5   6
ENDBRANCH   1   5
BRANCH   2  15
HETATM   15  C   LIG     1      -0.915  -1.507  -0.734  1.00  0.00     0.056 A 
HETATM   16  C   LIG     1      -1.209  -2.862  -0.942  1.00  0.00     0.060 A 
HETATM   17 CL   LIG     1       0.037  -3.987  -1.363  1.00  0.00    -0.082 Cl
HETATM   18  C   LIG     1      -2.503  -3.343  -0.742  1.00  0.00     0.026 A 
HETATM   19  C   LIG     1      -3.521  -2.463  -0.372  1.00  0.00     0.002 A 
HETATM   20  C   LIG     1      -3.244  -1.107  -0.199  1.00  0.00     0.002 A 
HETATM   21  C   LIG     1      -1.943  -0.630  -0.371  1.00  0.00     0.031 A 
ENDBRANCH   2  15
TORSDOF 3
