REMARK  2 active torsions:
REMARK  status: ('A' for Active; 'I' for Inactive)
REMARK    1  A    between atoms: C_1  and  C_2 
REMARK       I    between atoms: C_2  and  N_6 
REMARK    2  A    between atoms: C_3  and  C_10 
ROOT
HETATM    1  C   LIG     1       1.081  -0.901   0.476  1.00  0.00     0.077 A 
HETATM    2  C   LIG     1       2.116  -1.892   0.663  1.00  0.00     0.075 A 
HETATM    3  N   LIG     1       1.575  -3.120   0.795  1.00  0.00    -0.299 N 
ATOM      4  HN  LIG     1       2.068  -4.009   0.881  1.00  0.00     0.187 HD
HETATM    5  N   LIG     1       0.259  -2.923   0.789  1.00  0.00    -0.310 N 
ATOM      6  HN  LIG     1      -0.420  -3.678   0.886  1.00  0.00     0.186 HD
HETATM    7  C   LIG     1      -0.091  -1.621   0.642  1.00  0.00     0.126 A 
ENDROOT
BRANCH   1   8
HETATM    8  C   LIG     1       1.185   0.539   0.231  1.00  0.00     0.257 C 
HETATM    9  N   LIG     1       0.202   1.159  -0.538  1.00  0.00    -0.348 N 
HETATM   10  C   LIG     1       0.281   2.591  -0.790  1.00  0.00     0.126 C 
HETATM   11  C   LIG     1      -0.848   0.552  -1.341  1.00  0.00     0.126 C 
HETATM   12  C   LIG     1      -0.941   2.909  -1.640  1.00  0.00     0.021 C 
HETATM   13  C   LIG     1      -1.184   1.605  -2.387  1.00  0.00     0.021 C 
HETATM   14  O   LIG     1       2.106   1.207   0.691  1.00  0.00    -0.267 OA
ENDBRANCH   1   8
BRANCH   2  15
HETATM   15  C   LIG     1       3.583  -1.779   0.695  1.00  0.00    -0.007 A 
HETATM   16  C   LIG     1       4.237  -0.730   1.355  1.00  0.00     0.017 A 
HETATM   17  C   LIG     1       5.635  -0.669   1.398  1.00  0.00     0.043 A 
HETATM   18  C   LIG     1       6.386  -1.678   0.812  1.00  0.00     0.116 A 
HETATM   19  C   LIG     1       5.767  -2.750   0.184  1.00  0.00     0.043 A 
HETATM   20  F   LIG     1       7.723  -1.626   0.867  1.00  0.00    -0.206 F 
HETATM   21  C   LIG     1       4.371  -2.798   0.125  1.00  0.00     0.017 A 
ENDBRANCH   2  15
TORSDOF 2
