REMARK  4 active torsions:
REMARK  status: ('A' for Active; 'I' for Inactive)
REMARK       I    between atoms: C_1  and  N_3 
REMARK    1  A    between atoms: C_1  and  C_6 
REMARK    2  A    between atoms: N_2  and  C_5 
REMARK    3  A    between atoms: N_3  and  C_13 
REMARK    4  A    between atoms: C_14  and  O_19 
ROOT
HETATM    1  C   LIG     1       1.358   0.170   0.449  1.00  0.00     0.252 C 
HETATM    2  N   LIG     1       0.175  -0.530   0.359  1.00  0.00    -0.352 N 
ATOM      3  HN  LIG     1      -0.690  -0.047   0.600  1.00  0.00     0.163 HD
HETATM    4  O   LIG     1       2.456  -0.292   0.153  1.00  0.00    -0.268 OA
ENDROOT
BRANCH   1   5
HETATM    5  C   LIG     1       1.233   1.553   0.999  1.00  0.00     0.034 A 
HETATM    6  C   LIG     1       2.313   2.108   1.700  1.00  0.00     0.047 A 
HETATM    7  C   LIG     1       2.186   3.368   2.300  1.00  0.00     0.039 A 
HETATM    8  C   LIG     1       0.983   4.080   2.174  1.00  0.00     0.030 A 
HETATM    9  C   LIG     1      -0.072   3.550   1.431  1.00  0.00     0.003 A 
HETATM   10  C   LIG     1       0.052   2.294   0.841  1.00  0.00     0.017 A 
BRANCH   7  11
HETATM   11  N   LIG     1       3.266   3.928   3.041  1.00  0.00    -0.333 N 
HETATM   12  C   LIG     1       3.170   4.895   4.025  1.00  0.00     0.096 A 
HETATM   13  C   LIG     1       4.428   5.169   4.515  1.00  0.00     0.019 A 
HETATM   14  C   LIG     1       5.338   4.368   3.796  1.00  0.00     0.019 A 
HETATM   15  C   LIG     1       4.603   3.607   2.912  1.00  0.00     0.096 A 
ENDBRANCH   7  11
ENDBRANCH   1   5
BRANCH   2  16
HETATM   16  C   LIG     1       0.092  -1.925  -0.062  1.00  0.00     0.084 C 
HETATM   17  C   LIG     1      -1.274  -2.189  -0.709  1.00  0.00     0.028 C 
HETATM   18  C   LIG     1      -2.420  -2.118   0.301  1.00  0.00     0.034 C 
HETATM   19  C   LIG     1      -2.183  -3.036   1.498  1.00  0.00     0.118 C 
HETATM   20  C   LIG     1      -0.812  -2.821   2.141  1.00  0.00     0.034 C 
HETATM   21  C   LIG     1       0.321  -2.881   1.117  1.00  0.00     0.028 C 
BRANCH  19  22
HETATM   22  O   LIG     1      -3.203  -2.816   2.467  1.00  0.00    -0.396 OA
ATOM     23  HO  LIG     1      -4.055  -2.950   2.068  1.00  0.00     0.210 HD
ENDBRANCH  19  22
ENDBRANCH   2  16
TORSDOF 4
