REMARK  1 active torsions:
REMARK  status: ('A' for Active; 'I' for Inactive)
REMARK    1  A    between atoms: N_1  and  C_7 
ROOT
HETATM    1  N   LIG     1       2.299  -0.845  -0.075  1.00  0.00    -0.220 N 
HETATM    2  C   LIG     1       1.079  -1.551  -0.054  1.00  0.00     0.278 A 
HETATM    3  N   LIG     1       2.358   0.541  -0.060  1.00  0.00    -0.301 N 
ATOM      4  HN  LIG     1       3.260   1.016  -0.072  1.00  0.00     0.186 HD
HETATM    5  C   LIG     1      -0.156  -0.739  -0.023  1.00  0.00     0.045 A 
HETATM    6  C   LIG     1       1.262   1.226  -0.031  1.00  0.00     0.120 A 
HETATM    7  O   LIG     1       0.927  -2.771  -0.058  1.00  0.00    -0.265 OA
HETATM    8  C   LIG     1      -0.065   0.641  -0.012  1.00  0.00    -0.004 A 
HETATM    9  C   LIG     1      -1.422  -1.339  -0.004  1.00  0.00     0.018 A 
HETATM   10  C   LIG     1      -1.205   1.448   0.017  1.00  0.00     0.014 A 
HETATM   11  C   LIG     1      -2.572  -0.546   0.025  1.00  0.00     0.001 A 
HETATM   12  C   LIG     1      -2.463   0.846   0.035  1.00  0.00     0.001 A 
ENDROOT
BRANCH   1  13
HETATM   13  C   LIG     1       3.601  -1.470  -0.112  1.00  0.00     0.060 A 
HETATM   14  C   LIG     1       3.785  -2.862  -0.154  1.00  0.00     0.034 A 
HETATM   15  C   LIG     1       5.066  -3.431  -0.191  1.00  0.00     0.044 A 
HETATM   16  C   LIG     1       6.185  -2.613  -0.186  1.00  0.00     0.116 A 
HETATM   17  C   LIG     1       6.047  -1.236  -0.146  1.00  0.00     0.044 A 
HETATM   18  F   LIG     1       7.407  -3.158  -0.221  1.00  0.00    -0.206 F 
HETATM   19  C   LIG     1       4.767  -0.672  -0.110  1.00  0.00     0.034 A 
ENDBRANCH   1  13
TORSDOF 1
