REMARK  3 active torsions:
REMARK  status: ('A' for Active; 'I' for Inactive)
REMARK       I    between atoms: C_1  and  N_2 
REMARK    1  A    between atoms: C_1  and  C_8 
REMARK    2  A    between atoms: C_3  and  C_6 
REMARK    3  A    between atoms: C_3  and  C_12 
ROOT
HETATM    1  C   LIG     1      -1.150  -1.633   1.766  1.00  0.00     0.253 C 
HETATM    2  N   LIG     1      -2.396  -2.097   1.308  1.00  0.00    -0.348 N 
HETATM    3  C   LIG     1      -2.604  -3.544   1.302  1.00  0.00     0.127 C 
HETATM    4  C   LIG     1      -3.201  -1.408   0.303  1.00  0.00     0.127 C 
HETATM    5  C   LIG     1      -2.899  -3.395  -1.228  1.00  0.00     0.064 C 
HETATM    6  O   LIG     1      -0.265  -2.392   2.151  1.00  0.00    -0.267 OA
HETATM    7  C   LIG     1      -2.223  -4.137  -0.055  1.00  0.00     0.032 C 
HETATM    8  C   LIG     1      -2.780  -1.869  -1.087  1.00  0.00     0.032 C 
ENDROOT
BRANCH   1   9
HETATM    9  C   LIG     1      -0.861  -0.173   1.834  1.00  0.00     0.034 A 
HETATM   10  C   LIG     1       0.452   0.260   1.631  1.00  0.00     0.034 A 
HETATM   11  C   LIG     1       0.724   1.611   1.762  1.00  0.00     0.088 A 
HETATM   12  N   LIG     1      -0.212   2.536   2.067  1.00  0.00    -0.375 N 
HETATM   13  C   LIG     1      -1.464   2.086   2.290  1.00  0.00     0.088 A 
ATOM     14  HN  LIG     1       0.017   3.528   2.126  1.00  0.00     0.164 HD
HETATM   15  C   LIG     1      -1.830   0.754   2.211  1.00  0.00     0.034 A 
ENDBRANCH   1   9
BRANCH   5  16
HETATM   16  C   LIG     1      -2.257  -3.799  -2.553  1.00  0.00     0.163 C 
HETATM   17  O   LIG     1      -1.050  -4.023  -2.644  1.00  0.00    -0.292 OA
BRANCH  16  18
HETATM   18  C   LIG     1      -3.072  -3.821  -3.803  1.00  0.00     0.010 A 
HETATM   19  C   LIG     1      -2.411  -3.579  -5.017  1.00  0.00     0.015 A 
HETATM   20  C   LIG     1      -3.110  -3.615  -6.224  1.00  0.00     0.001 A 
HETATM   21  C   LIG     1      -4.473  -3.898  -6.227  1.00  0.00     0.000 A 
HETATM   22  C   LIG     1      -5.138  -4.142  -5.025  1.00  0.00     0.001 A 
HETATM   23  C   LIG     1      -4.441  -4.104  -3.813  1.00  0.00     0.015 A 
ENDBRANCH  16  18
ENDBRANCH   5  16
TORSDOF 3
