REMARK  3 active torsions:
REMARK  status: ('A' for Active; 'I' for Inactive)
REMARK    1  A    between atoms: C_1  and  C_3 
REMARK    2  A    between atoms: C_2  and  C_11 
REMARK       I    between atoms: C_3  and  N_7 
REMARK    3  A    between atoms: C_9  and  C_16 
ROOT
HETATM    1  C   LIG     1       0.049   3.613  -0.406  1.00  0.00     0.270 C 
HETATM    2  N   LIG     1       1.109   4.509  -0.572  1.00  0.00    -0.343 N 
HETATM    3  C   LIG     1       3.024   6.573  -0.062  1.00  0.00    -0.049 C 
HETATM    4  C   LIG     1       3.404   5.286  -0.128  1.00  0.00     0.001 C 
HETATM    5  C   LIG     1       2.505   4.135  -0.423  1.00  0.00     0.154 C 
HETATM    6  C   LIG     1       0.862   5.839  -1.128  1.00  0.00     0.131 C 
HETATM    7  O   LIG     1      -1.118   3.985  -0.498  1.00  0.00    -0.266 OA
HETATM    8  C   LIG     1       1.577   6.929  -0.316  1.00  0.00     0.059 C 
ENDROOT
BRANCH   1   9
HETATM    9  C   LIG     1       0.336   2.217  -0.082  1.00  0.00     0.101 A 
HETATM   10  C   LIG     1       1.399   1.377  -0.377  1.00  0.00     0.051 A 
HETATM   11  C   LIG     1       1.183   0.106   0.219  1.00  0.00     0.027 A 
HETATM   12  C   LIG     1      -0.058   0.179   0.818  1.00  0.00     0.103 A 
HETATM   13  N   LIG     1      -0.571   1.434   0.604  1.00  0.00    -0.361 N 
ATOM     14  HN  LIG     1      -1.493   1.745   0.909  1.00  0.00     0.165 HD
BRANCH  11  15
HETATM   15  C   LIG     1       2.100  -1.030   0.178  1.00  0.00     0.157 C 
HETATM   16  O   LIG     1       3.178  -0.960  -0.404  1.00  0.00    -0.293 OA
HETATM   17  C   LIG     1       1.698  -2.289   0.906  1.00  0.00     0.097 C 
ENDBRANCH  11  15
ENDBRANCH   1   9
BRANCH   3  18
HETATM   18  C   LIG     1       4.005   7.631   0.276  1.00  0.00    -0.030 A 
HETATM   19  C   LIG     1       3.618   8.781   0.976  1.00  0.00     0.012 A 
HETATM   20  C   LIG     1       4.549   9.776   1.293  1.00  0.00     0.001 A 
HETATM   21  C   LIG     1       5.883   9.638   0.914  1.00  0.00     0.000 A 
HETATM   22  C   LIG     1       6.287   8.507   0.216  1.00  0.00     0.001 A 
HETATM   23  C   LIG     1       5.355   7.517  -0.104  1.00  0.00     0.012 A 
ENDBRANCH   3  18
TORSDOF 3
