REMARK  3 active torsions:
REMARK  status: ('A' for Active; 'I' for Inactive)
REMARK    1  A    between atoms: C_1  and  C_2 
REMARK       I    between atoms: C_2  and  N_5 
REMARK    2  A    between atoms: N_9  and  C_13 
REMARK    3  A    between atoms: C_13  and  C_16 
ROOT
HETATM    1  C   LIG     1      -1.177  -5.714  -3.555  1.00  0.00     0.256 C 
HETATM    2  N   LIG     1       0.122  -5.882  -3.039  1.00  0.00    -0.345 N 
HETATM    3  N   LIG     1       2.581  -5.506  -1.426  1.00  0.00     0.095 N 
HETATM    4  O   LIG     1      -1.492  -4.682  -4.159  1.00  0.00    -0.267 OA
HETATM    5  C   LIG     1       1.013  -4.732  -3.251  1.00  0.00     0.156 C 
HETATM    6  C   LIG     1       0.375  -6.707  -1.847  1.00  0.00     0.156 C 
HETATM    7  C   LIG     1       1.850  -6.784  -1.398  1.00  0.00     0.292 C 
HETATM    8  C   LIG     1       2.460  -4.966  -2.796  1.00  0.00     0.292 C 
ENDROOT
BRANCH   1   9
HETATM    9  C   LIG     1      -2.174  -6.759  -3.376  1.00  0.00     0.066 A 
HETATM   10  C   LIG     1      -2.033  -8.134  -3.337  1.00  0.00     0.128 A 
HETATM   11  N   LIG     1      -3.290  -8.656  -3.244  1.00  0.00    -0.307 N 
HETATM   12  N   LIG     1      -4.254  -7.722  -3.207  1.00  0.00    -0.309 N 
HETATM   13  C   LIG     1      -3.641 -10.055  -3.207  1.00  0.00     0.177 C 
HETATM   14  C   LIG     1      -3.578  -6.575  -3.321  1.00  0.00     0.125 A 
ATOM     15  HN  LIG     1      -5.261  -7.856  -3.114  1.00  0.00     0.186 HD
ENDBRANCH   1   9
BRANCH   3  16
HETATM   16  C   LIG     1       2.067  -4.590  -0.389  1.00  0.00     0.311 C 
BRANCH  16  17
HETATM   17  C   LIG     1       2.773  -3.253  -0.353  1.00  0.00    -0.030 A 
HETATM   18  C   LIG     1       4.148  -3.182  -0.087  1.00  0.00     0.009 A 
HETATM   19  C   LIG     1       4.800  -1.949  -0.067  1.00  0.00     0.001 A 
HETATM   20  C   LIG     1       4.085  -0.777  -0.307  1.00  0.00     0.000 A 
HETATM   21  C   LIG     1       2.718  -0.835  -0.570  1.00  0.00     0.001 A 
HETATM   22  C   LIG     1       2.064  -2.066  -0.592  1.00  0.00     0.009 A 
ENDBRANCH  16  17
ENDBRANCH   3  16
TORSDOF 3
