REMARK  3 active torsions:
REMARK  status: ('A' for Active; 'I' for Inactive)
REMARK    1  A    between atoms: C_4  and  C_8 
REMARK    2  A    between atoms: N_7  and  C_8 
REMARK    3  A    between atoms: C_9  and  C_12 
ROOT
HETATM    1  N   LIG     1       3.528   1.007  -1.288  1.00  0.00     0.103 N 
HETATM    2  C   LIG     1       4.916   0.490  -1.350  1.00  0.00     0.256 C 
HETATM    3  C   LIG     1       3.629   2.453  -1.473  1.00  0.00     0.273 C 
HETATM    4  C   LIG     1       5.547   1.356  -2.457  1.00  0.00     0.042 C 
HETATM    5  C   LIG     1       4.637   2.573  -2.601  1.00  0.00     0.033 C 
ENDROOT
BRANCH   1   6
HETATM    6  C   LIG     1       2.757   0.605  -0.112  1.00  0.00     0.330 C 
BRANCH   6   7
HETATM    7  C   LIG     1       1.263   0.914  -0.196  1.00  0.00     0.049 C 
HETATM    8  N   LIG     1       0.365   0.011  -0.764  1.00  0.00    -0.306 N 
HETATM    9  C   LIG     1      -1.024   0.176  -0.676  1.00  0.00     0.331 C 
HETATM   10  C   LIG     1       0.840  -1.209  -1.408  1.00  0.00     0.161 C 
HETATM   11  N   LIG     1      -1.464   1.338  -0.052  1.00  0.00    -0.271 N 
HETATM   12  O   LIG     1      -1.816  -0.660  -1.118  1.00  0.00    -0.246 OA
HETATM   13  C   LIG     1      -0.629   2.353   0.360  1.00  0.00     0.253 C 
HETATM   14  C   LIG     1      -2.892   1.560   0.056  1.00  0.00     0.164 C 
HETATM   15  C   LIG     1       0.805   2.043   0.356  1.00  0.00     0.101 C 
HETATM   16  O   LIG     1      -0.994   3.459   0.741  1.00  0.00    -0.268 OA
ENDBRANCH   6   7
ENDBRANCH   1   6
BRANCH   2  17
HETATM   17  C   LIG     1       5.697   0.485  -0.036  1.00  0.00    -0.025 A 
HETATM   18  C   LIG     1       5.685  -0.680   0.755  1.00  0.00     0.009 A 
HETATM   19  C   LIG     1       6.364  -0.736   1.974  1.00  0.00     0.001 A 
HETATM   20  C   LIG     1       7.082   0.369   2.421  1.00  0.00     0.000 A 
HETATM   21  C   LIG     1       7.115   1.529   1.652  1.00  0.00     0.001 A 
HETATM   22  C   LIG     1       6.422   1.590   0.439  1.00  0.00     0.009 A 
ENDBRANCH   2  17
TORSDOF 3
