REMARK  3 active torsions:
REMARK  status: ('A' for Active; 'I' for Inactive)
REMARK    1  A    between atoms: N_2  and  C_9 
REMARK    2  A    between atoms: C_9  and  C_11 
REMARK    3  A    between atoms: C_11  and  C_12 
ROOT
HETATM    1  C   LIG     1      -2.101  -0.036   0.564  1.00  0.00     0.277 C 
ENDROOT
BRANCH   1   2
HETATM    2  N   LIG     1      -0.659  -0.354   0.475  1.00  0.00     0.099 N 
HETATM    3  C   LIG     1      -0.317  -1.579   1.245  1.00  0.00     0.374 C 
HETATM    4  C   LIG     1       1.115  -2.086   1.014  1.00  0.00     0.246 C 
HETATM    5  N   LIG     1       1.692  -1.846  -0.207  1.00  0.00    -0.358 N 
HETATM    6  O   LIG     1       1.704  -2.785   1.836  1.00  0.00    -0.272 OA
HETATM    7  C   LIG     1       1.231  -0.772  -1.055  1.00  0.00     0.152 C 
ATOM      8  HN  LIG     1       2.461  -2.437  -0.522  1.00  0.00     0.162 HD
HETATM    9  C   LIG     1      -0.279  -0.543  -0.940  1.00  0.00     0.292 C 
ENDBRANCH   1   2
BRANCH   1  10
HETATM   10  C   LIG     1      -2.614   0.230   1.993  1.00  0.00     0.069 C 
BRANCH  10  11
HETATM   11  C   LIG     1      -4.088   0.563   2.017  1.00  0.00    -0.054 A 
HETATM   12  C   LIG     1      -5.047  -0.444   2.164  1.00  0.00     0.024 A 
HETATM   13  C   LIG     1      -6.389  -0.092   2.178  1.00  0.00     0.088 A 
HETATM   14  N   LIG     1      -6.833   1.176   2.049  1.00  0.00    -0.375 N 
HETATM   15  C   LIG     1      -5.893   2.133   1.903  1.00  0.00     0.088 A 
ATOM     16  HN  LIG     1      -7.828   1.399   2.061  1.00  0.00     0.164 HD
HETATM   17  C   LIG     1      -4.529   1.881   1.879  1.00  0.00     0.024 A 
ENDBRANCH  10  11
ENDBRANCH   1  10
TORSDOF 3
