REMARK  3 active torsions:
REMARK  status: ('A' for Active; 'I' for Inactive)
REMARK    1  A    between atoms: N_1  and  C_2 
REMARK       I    between atoms: C_3  and  N_7 
REMARK    2  A    between atoms: C_3  and  C_5 
REMARK    3  A    between atoms: N_7  and  C_12 
ROOT
HETATM    1  C   LIG     1      -2.299  -0.929  -2.160  1.00  0.00     0.043 A 
HETATM    2  C   LIG     1      -3.116  -1.961  -2.658  1.00  0.00    -0.033 A 
HETATM    3  C   LIG     1      -1.366  -1.231  -1.159  1.00  0.00     0.032 A 
HETATM    4  C   LIG     1      -1.988  -3.566  -1.172  1.00  0.00     0.035 A 
HETATM    5  C   LIG     1      -2.943  -3.274  -2.157  1.00  0.00     0.038 A 
HETATM    6  C   LIG     1      -1.204  -2.530  -0.682  1.00  0.00     0.032 A 
HETATM    7  C   LIG     1      -4.197  -1.720  -3.679  1.00  0.00     0.050 C 
ENDROOT
BRANCH   4   8
HETATM    8  N   LIG     1      -1.869  -4.898  -0.720  1.00  0.00    -0.327 N 
HETATM    9  C   LIG     1      -1.003  -5.363   0.255  1.00  0.00     0.226 C 
HETATM   10  O   LIG     1      -0.180  -4.717   0.884  1.00  0.00    -0.273 OA
ATOM     11  HN  LIG     1      -2.482  -5.587  -1.155  1.00  0.00     0.169 HD
BRANCH   9  12
HETATM   12  C   LIG     1      -1.132  -6.830   0.515  1.00  0.00     0.078 A 
HETATM   13  C   LIG     1      -0.470  -7.437   1.734  1.00  0.00     0.015 A 
HETATM   14  C   LIG     1       0.072  -7.733   0.367  1.00  0.00     0.015 A 
ENDBRANCH   9  12
ENDBRANCH   4   8
BRANCH   1  15
HETATM   15  N   LIG     1      -2.397   0.413  -2.599  1.00  0.00    -0.318 N 
HETATM   16  C   LIG     1      -2.234   0.805  -3.936  1.00  0.00     0.224 C 
HETATM   17  O   LIG     1      -2.159   0.111  -4.938  1.00  0.00    -0.273 OA
HETATM   18  C   LIG     1      -2.013   2.302  -3.942  1.00  0.00     0.105 C 
HETATM   19  C   LIG     1      -2.475   2.732  -2.560  1.00  0.00     0.029 C 
HETATM   20  C   LIG     1      -2.153   1.524  -1.711  1.00  0.00     0.133 C 
ENDBRANCH   1  15
TORSDOF 3
