REMARK  1 active torsions:
REMARK  status: ('A' for Active; 'I' for Inactive)
REMARK    1  A    between atoms: N_1  and  C_8 
ROOT
HETATM    1  N   LIG     1       2.331  -0.652  -0.128  1.00  0.00    -0.237 N 
HETATM    2  N   LIG     1       2.284   0.689  -0.376  1.00  0.00    -0.237 N 
ATOM      3  HN  LIG     1       3.154   1.194  -0.542  1.00  0.00     0.208 HD
HETATM    4  C   LIG     1       1.210  -1.448   0.038  1.00  0.00     0.276 A 
HETATM    5  N   LIG     1       1.202   1.315  -0.405  1.00  0.00    -0.285 N 
ATOM      6  HN  LIG     1       1.197   2.320  -0.578  1.00  0.00     0.188 HD
HETATM    7  C   LIG     1      -0.064  -0.734   0.019  1.00  0.00     0.062 A 
HETATM    8  C   LIG     1      -0.002   0.633  -0.200  1.00  0.00     0.065 A 
HETATM    9  O   LIG     1       1.223  -2.666   0.195  1.00  0.00    -0.266 OA
HETATM   10  C   LIG     1      -1.284  -1.393   0.212  1.00  0.00     0.019 A 
HETATM   11  C   LIG     1      -1.200   1.356  -0.222  1.00  0.00     0.032 A 
HETATM   12  C   LIG     1      -2.470  -0.662   0.187  1.00  0.00     0.001 A 
HETATM   13  C   LIG     1      -2.428   0.715  -0.029  1.00  0.00     0.002 A 
ENDROOT
BRANCH   1  14
HETATM   14  C   LIG     1       3.647  -1.233  -0.162  1.00  0.00     0.113 A 
HETATM   15  C   LIG     1       4.267  -1.837   1.074  1.00  0.00     0.029 A 
HETATM   16  C   LIG     1       4.837  -0.578   0.496  1.00  0.00     0.029 A 
ENDBRANCH   1  14
TORSDOF 1
