REMARK  3 active torsions:
REMARK  status: ('A' for Active; 'I' for Inactive)
REMARK       I    between atoms: C_1  and  N_2 
REMARK    1  A    between atoms: C_1  and  C_8 
REMARK    2  A    between atoms: N_2  and  C_5 
REMARK    3  A    between atoms: N_4  and  C_6 
ROOT
HETATM    1  C   LIG     1      -1.552   0.718  -1.058  1.00  0.00     0.056 A 
HETATM    2  C   LIG     1      -2.835   0.674  -1.651  1.00  0.00     0.037 A 
HETATM    3  C   LIG     1      -1.126  -0.291  -0.183  1.00  0.00     0.031 A 
HETATM    4  C   LIG     1      -3.678  -0.390  -1.282  1.00  0.00     0.026 A 
HETATM    5  C   LIG     1      -1.972  -1.351   0.134  1.00  0.00     0.002 A 
HETATM    6  C   LIG     1      -3.251  -1.393  -0.406  1.00  0.00     0.002 A 
ENDROOT
BRANCH   1   7
HETATM    7  N   LIG     1      -0.685   1.782  -1.391  1.00  0.00    -0.325 N 
HETATM    8  C   LIG     1       0.034   2.470  -0.425  1.00  0.00     0.226 C 
HETATM    9  O   LIG     1      -0.044   2.272   0.781  1.00  0.00    -0.273 OA
ATOM     10  HN  LIG     1      -0.585   2.052  -2.369  1.00  0.00     0.169 HD
BRANCH   8  11
HETATM   11  C   LIG     1       0.996   3.494  -1.009  1.00  0.00     0.078 C 
HETATM   12  C   LIG     1       2.376   2.858  -1.212  1.00  0.00     0.014 C 
HETATM   13  C   LIG     1       3.405   3.942  -0.886  1.00  0.00     0.001 C 
HETATM   14  C   LIG     1       2.611   5.191  -0.532  1.00  0.00     0.001 C 
HETATM   15  C   LIG     1       1.266   4.663  -0.064  1.00  0.00     0.014 C 
ENDBRANCH   8  11
ENDBRANCH   1   7
BRANCH   2  16
HETATM   16  N   LIG     1      -3.267   1.749  -2.492  1.00  0.00    -0.278 NA
HETATM   17  C   LIG     1      -4.226   1.340  -3.552  1.00  0.00     0.122 C 
HETATM   18  C   LIG     1      -4.694   2.559  -4.357  1.00  0.00     0.182 C 
HETATM   19  O   LIG     1      -5.311   3.530  -3.498  1.00  0.00    -0.389 OA
HETATM   20  C   LIG     1      -4.366   3.988  -2.519  1.00  0.00     0.182 C 
HETATM   21  C   LIG     1      -3.836   2.837  -1.644  1.00  0.00     0.122 C 
ENDBRANCH   2  16
TORSDOF 3
