REMARK  1 active torsions:
REMARK  status: ('A' for Active; 'I' for Inactive)
REMARK    1  A    between atoms: N_1  and  C_10 
ROOT
HETATM    1  N   LIG     1       2.232  -0.703  -0.174  1.00  0.00    -0.237 N 
HETATM    2  N   LIG     1       2.223   0.663  -0.116  1.00  0.00    -0.237 N 
ATOM      3  HN  LIG     1       3.112   1.164  -0.104  1.00  0.00     0.208 HD
HETATM    4  C   LIG     1       1.085  -1.476  -0.090  1.00  0.00     0.276 A 
HETATM    5  N   LIG     1       1.159   1.316  -0.077  1.00  0.00    -0.285 N 
ATOM      6  HN  LIG     1       1.186   2.335  -0.058  1.00  0.00     0.188 HD
HETATM    7  C   LIG     1      -0.171  -0.733  -0.056  1.00  0.00     0.062 A 
HETATM    8  C   LIG     1      -0.069   0.648  -0.059  1.00  0.00     0.065 A 
HETATM    9  O   LIG     1       1.068  -2.703  -0.049  1.00  0.00    -0.266 OA
HETATM   10  C   LIG     1      -1.413  -1.379  -0.025  1.00  0.00     0.019 A 
HETATM   11  C   LIG     1      -1.249   1.401  -0.031  1.00  0.00     0.032 A 
HETATM   12  C   LIG     1      -2.581  -0.618   0.002  1.00  0.00     0.001 A 
HETATM   13  C   LIG     1      -2.499   0.774  -0.002  1.00  0.00     0.002 A 
ENDROOT
BRANCH   1  14
HETATM   14  C   LIG     1       3.532  -1.360  -0.146  1.00  0.00     0.113 C 
HETATM   15  C   LIG     1       4.023  -1.642   1.278  1.00  0.00     0.027 C 
HETATM   16  C   LIG     1       5.550  -1.693   1.187  1.00  0.00     0.002 C 
HETATM   17  C   LIG     1       5.907  -1.331  -0.252  1.00  0.00     0.002 C 
HETATM   18  C   LIG     1       4.691  -0.581  -0.771  1.00  0.00     0.027 C 
ENDBRANCH   1  14
TORSDOF 1
