REMARK  3 active torsions:
REMARK  status: ('A' for Active; 'I' for Inactive)
REMARK    1  A    between atoms: C_1  and  C_3 
REMARK    2  A    between atoms: C_3  and  C_9 
REMARK    3  A    between atoms: N_7  and  C_9 
ROOT
HETATM    1  C   LIG     1      -1.152  -1.705  -2.331  1.00  0.00     0.039 A 
HETATM    2  C   LIG     1      -0.748  -2.743  -3.147  1.00  0.00     0.104 A 
HETATM    3  N   LIG     1       0.176  -2.268  -4.039  1.00  0.00    -0.364 N 
ATOM      4  HN  LIG     1       0.665  -2.837  -4.730  1.00  0.00     0.165 HD
HETATM    5  C   LIG     1      -0.473  -0.527  -2.812  1.00  0.00     0.006 A 
HETATM    6  C   LIG     1       0.350  -0.916  -3.870  1.00  0.00     0.043 A 
HETATM    7  C   LIG     1      -0.483   0.838  -2.449  1.00  0.00     0.014 A 
HETATM    8  C   LIG     1       1.164  -0.019  -4.574  1.00  0.00     0.030 A 
HETATM    9  C   LIG     1       0.310   1.753  -3.154  1.00  0.00     0.001 A 
HETATM   10  C   LIG     1       1.123   1.327  -4.200  1.00  0.00     0.002 A 
ENDROOT
BRANCH   1  11
HETATM   11  C   LIG     1      -2.114  -1.775  -1.215  1.00  0.00     0.190 C 
HETATM   12  O   LIG     1      -2.378  -0.783  -0.535  1.00  0.00    -0.290 OA
BRANCH  11  13
HETATM   13  C   LIG     1      -2.779  -3.115  -0.854  1.00  0.00     0.356 C 
BRANCH  13  14
HETATM   14  N   LIG     1      -3.603  -3.659  -1.956  1.00  0.00     0.099 N 
HETATM   15  C   LIG     1      -4.732  -2.773  -2.320  1.00  0.00     0.299 C 
HETATM   16  C   LIG     1      -5.907  -2.801  -1.329  1.00  0.00     0.198 C 
HETATM   17  O   LIG     1      -6.390  -4.136  -1.141  1.00  0.00    -0.388 OA
HETATM   18  C   LIG     1      -5.344  -4.990  -0.665  1.00  0.00     0.198 C 
HETATM   19  C   LIG     1      -4.143  -4.997  -1.628  1.00  0.00     0.299 C 
ENDBRANCH  13  14
ENDBRANCH  11  13
ENDBRANCH   1  11
TORSDOF 3
