REMARK  1 active torsions:
REMARK  status: ('A' for Active; 'I' for Inactive)
REMARK    1  A    between atoms: C_2  and  C_6 
REMARK       I    between atoms: C_6  and  N_11 
ROOT
HETATM    1  C   LIG     1      -0.263  -0.202   0.046  1.00  0.00     0.027 A 
HETATM    2  C   LIG     1      -2.640  -0.860  -0.030  1.00  0.00     0.074 A 
HETATM    3  S   LIG     1      -1.115  -1.660  -0.076  1.00  0.00    -0.083 SA
HETATM    4  C   LIG     1      -1.095   0.888   0.131  1.00  0.00    -0.015 A 
HETATM    5  C   LIG     1      -2.470   0.513   0.051  1.00  0.00     0.035 A 
HETATM    6  C   LIG     1       1.185  -0.045   0.032  1.00  0.00     0.015 A 
HETATM    7  O   LIG     1       0.872   2.392  -0.107  1.00  0.00    -0.346 OA
HETATM    8  C   LIG     1      -0.513   2.253   0.285  1.00  0.00     0.215 C 
HETATM    9  C   LIG     1       1.673   1.275  -0.038  1.00  0.00     0.080 A 
HETATM   10  C   LIG     1       2.094  -1.109   0.055  1.00  0.00     0.015 A 
HETATM   11  C   LIG     1       3.047   1.514  -0.102  1.00  0.00     0.037 A 
HETATM   12  C   LIG     1       3.469  -0.862   0.001  1.00  0.00     0.001 A 
HETATM   13  C   LIG     1       3.944   0.447  -0.079  1.00  0.00     0.003 A 
ENDROOT
BRANCH   2  14
HETATM   14  C   LIG     1      -3.851  -1.672  -0.143  1.00  0.00     0.260 C 
HETATM   15  N   LIG     1      -5.016  -1.249   0.515  1.00  0.00    -0.356 N 
HETATM   16  C   LIG     1      -6.252  -1.970   0.261  1.00  0.00     0.152 C 
HETATM   17  C   LIG     1      -5.061  -0.268   1.587  1.00  0.00     0.152 C 
HETATM   18  O   LIG     1      -3.871  -2.707  -0.815  1.00  0.00    -0.267 OA
ENDBRANCH   2  14
TORSDOF 1
