REMARK  1 active torsions:
REMARK  status: ('A' for Active; 'I' for Inactive)
REMARK    1  A    between atoms: C_5  and  C_9 
ROOT
HETATM    1  N   LIG     1      -1.315  -0.428   0.021  1.00  0.00    -0.301 N 
ATOM      2  HN  LIG     1      -2.286  -0.713  -0.110  1.00  0.00     0.186 HD
HETATM    3  N   LIG     1      -0.977   0.888   0.107  1.00  0.00    -0.270 N 
ATOM      4  HN  LIG     1      -1.734   1.550   0.281  1.00  0.00     0.190 HD
HETATM    5  C   LIG     1      -0.365  -1.312   0.110  1.00  0.00     0.036 C 
HETATM    6  C   LIG     1       0.287   1.407  -0.019  1.00  0.00     0.236 C 
HETATM    7  O   LIG     1       0.504   2.615   0.033  1.00  0.00    -0.272 OA
HETATM    8  C   LIG     1       1.073  -0.911   0.364  1.00  0.00     0.069 C 
HETATM    9  C   LIG     1       1.364   0.405  -0.321  1.00  0.00     0.110 C 
ENDROOT
BRANCH   5  10
HETATM   10  C   LIG     1      -0.704  -2.763   0.014  1.00  0.00    -0.012 A 
HETATM   11  C   LIG     1       0.107  -3.747   0.592  1.00  0.00     0.013 A 
HETATM   12  C   LIG     1      -0.242  -5.096   0.482  1.00  0.00     0.001 A 
HETATM   13  C   LIG     1      -1.401  -5.467  -0.198  1.00  0.00     0.000 A 
HETATM   14  C   LIG     1      -2.219  -4.491  -0.765  1.00  0.00     0.001 A 
HETATM   15  C   LIG     1      -1.874  -3.143  -0.657  1.00  0.00     0.013 A 
ENDBRANCH   5  10
TORSDOF 1
