REMARK  2 active torsions:
REMARK  status: ('A' for Active; 'I' for Inactive)
REMARK    1  A    between atoms: N_1  and  C_6 
REMARK    2  A    between atoms: C_6  and  C_7 
ROOT
HETATM    1  C   LIG     1       2.168  -2.339   1.477  1.00  0.00    -0.001 A 
HETATM    2  N   LIG     1       2.358  -3.244   6.805  1.00  0.00    -0.191 NA
HETATM    3  C   LIG     1       1.493  -3.419   2.050  1.00  0.00     0.125 A 
HETATM    4  C   LIG     1       2.318  -3.047   5.661  1.00  0.00     0.099 C 
HETATM    5  C   LIG     1       1.535  -3.660   3.421  1.00  0.00     0.065 A 
HETATM    6  C   LIG     1       2.911  -1.495   2.318  1.00  0.00     0.013 A 
HETATM    7  C   LIG     1       2.268  -2.809   4.250  1.00  0.00     0.047 A 
HETATM    8  F   LIG     1       0.780  -4.249   1.276  1.00  0.00    -0.205 F 
HETATM    9  C   LIG     1       2.956  -1.724   3.696  1.00  0.00     0.023 A 
ENDROOT
BRANCH   1  10
HETATM   10  C   LIG     1       2.098  -2.099  -0.013  1.00  0.00     0.175 C 
BRANCH  10  11
HETATM   11  N   LIG     1       1.564  -0.800  -0.335  1.00  0.00    -0.293 N 
HETATM   12  C   LIG     1       2.347   0.358  -0.527  1.00  0.00     0.329 A 
HETATM   13  N   LIG     1       1.443   1.436  -0.621  1.00  0.00    -0.302 N 
HETATM   14  O   LIG     1       3.566   0.419  -0.555  1.00  0.00    -0.246 OA
HETATM   15  C   LIG     1       0.141   0.955  -0.434  1.00  0.00     0.065 A 
HETATM   16  C   LIG     1       1.813   2.818  -0.693  1.00  0.00     0.161 C 
HETATM   17  C   LIG     1       0.213  -0.430  -0.266  1.00  0.00     0.066 A 
HETATM   18  C   LIG     1      -1.056   1.636  -0.372  1.00  0.00     0.032 A 
HETATM   19  C   LIG     1      -0.915  -1.192  -0.043  1.00  0.00     0.032 A 
HETATM   20  C   LIG     1      -2.141  -0.520   0.015  1.00  0.00     0.002 A 
HETATM   21  C   LIG     1      -2.210   0.879  -0.144  1.00  0.00     0.002 A 
ENDBRANCH  10  11
ENDBRANCH   1  10
TORSDOF 2
