REMARK  3 active torsions:
REMARK  status: ('A' for Active; 'I' for Inactive)
REMARK    1  A    between atoms: C_1  and  N_7 
REMARK       I    between atoms: N_7  and  C_9 
REMARK    2  A    between atoms: C_9  and  C_11 
REMARK    3  A    between atoms: N_10  and  C_11 
ROOT
HETATM    1  N   LIG     1      -2.537  -2.514   1.078  1.00  0.00    -0.322 N 
ATOM      2  HN  LIG     1      -2.455  -3.348   1.660  1.00  0.00     0.169 HD
HETATM    3  C   LIG     1      -2.685  -2.744  -0.264  1.00  0.00     0.255 C 
HETATM    4  O   LIG     1      -2.624  -1.889  -1.155  1.00  0.00    -0.271 OA
ENDROOT
BRANCH   1   5
HETATM    5  C   LIG     1      -2.483  -1.305   1.755  1.00  0.00     0.082 A 
HETATM    6  C   LIG     1      -2.644  -0.008   1.295  1.00  0.00     0.053 A 
HETATM    7  N   LIG     1      -2.544   0.788   2.410  1.00  0.00    -0.299 N 
HETATM    8  C   LIG     1      -2.896   0.567  -0.054  1.00  0.00     0.072 C 
HETATM    9  N   LIG     1      -2.281   0.115   3.540  1.00  0.00    -0.301 N 
HETATM   10  C   LIG     1      -2.725   2.220   2.480  1.00  0.00     0.177 C 
HETATM   11  C   LIG     1      -2.241  -1.163   3.153  1.00  0.00     0.051 A 
ATOM     12  HN  LIG     1      -2.143   0.492   4.478  1.00  0.00     0.187 HD
HETATM   13  C   LIG     1      -1.916  -2.203   4.163  1.00  0.00     0.072 C 
ENDBRANCH   1   5
BRANCH   3  14
HETATM   14  C   LIG     1      -2.847  -4.235  -0.629  1.00  0.00     0.310 C 
HETATM   15  C   LIG     1      -3.278  -4.368  -2.096  1.00  0.00     0.053 C 
BRANCH  14  16
HETATM   16  N   LIG     1      -3.591  -4.998   0.413  1.00  0.00     0.101 N 
HETATM   17  C   LIG     1      -3.733  -6.435   0.118  1.00  0.00     0.273 C 
HETATM   18  C   LIG     1      -4.958  -6.816  -0.728  1.00  0.00     0.030 C 
HETATM   19  C   LIG     1      -6.246  -6.168  -0.234  1.00  0.00     0.003 C 
HETATM   20  C   LIG     1      -6.062  -4.682   0.016  1.00  0.00     0.030 C 
HETATM   21  C   LIG     1      -4.855  -4.440   0.905  1.00  0.00     0.273 C 
ENDBRANCH  14  16
ENDBRANCH   3  14
TORSDOF 3
