REMARK  3 active torsions:
REMARK  status: ('A' for Active; 'I' for Inactive)
REMARK    1  A    between atoms: N_1  and  C_5 
REMARK    2  A    between atoms: C_5  and  C_7 
REMARK       I    between atoms: C_7  and  N_9 
REMARK    3  A    between atoms: N_9  and  C_11 
ROOT
HETATM    1  C   LIG     1       2.907   0.254  -0.679  1.00  0.00     0.242 C 
HETATM    2  N   LIG     1       3.149  -0.901   0.056  1.00  0.00    -0.324 N 
ATOM      3  HN  LIG     1       2.566  -1.723  -0.102  1.00  0.00     0.169 HD
HETATM    4  O   LIG     1       3.495   1.309  -0.512  1.00  0.00    -0.271 OA
ENDROOT
BRANCH   2   5
HETATM    5  C   LIG     1       4.187  -0.964   1.021  1.00  0.00     0.062 A 
HETATM    6  C   LIG     1       5.140  -2.003   0.962  1.00  0.00     0.069 A 
HETATM    7  N   LIG     1       5.217  -2.855  -0.093  1.00  0.00    -0.363 N 
HETATM    8  C   LIG     1       6.054  -2.102   2.038  1.00  0.00    -0.007 A 
HETATM    9  C   LIG     1       6.187  -3.803  -0.089  1.00  0.00     0.088 A 
ATOM     10  HN  LIG     1       4.560  -2.784  -0.870  1.00  0.00     0.165 HD
HETATM   11  C   LIG     1       7.071  -4.002   0.953  1.00  0.00     0.018 A 
HETATM   12  C   LIG     1       6.997  -3.137   2.033  1.00  0.00     0.015 A 
HETATM   13  C   LIG     1       6.026  -1.179   3.095  1.00  0.00     0.014 A 
HETATM   14  C   LIG     1       5.114  -0.131   3.096  1.00  0.00     0.003 A 
HETATM   15  C   LIG     1       4.196  -0.023   2.059  1.00  0.00     0.032 A 
ENDBRANCH   2   5
BRANCH   1  16
HETATM   16  C   LIG     1       1.932   0.111  -1.833  1.00  0.00     0.252 C 
BRANCH  16  17
HETATM   17  N   LIG     1       0.876  -0.861  -1.618  1.00  0.00    -0.288 N 
HETATM   18  N   LIG     1       1.135  -2.157  -1.899  1.00  0.00    -0.303 N 
HETATM   19  C   LIG     1      -0.030  -2.781  -1.695  1.00  0.00     0.024 A 
ATOM     20  HN  LIG     1       2.020  -2.567  -2.199  1.00  0.00     0.186 HD
HETATM   21  C   LIG     1      -1.022  -1.887  -1.247  1.00  0.00     0.052 A 
HETATM   22  C   LIG     1      -0.177  -4.233  -1.947  1.00  0.00     0.070 C 
HETATM   23  C   LIG     1      -0.418  -0.649  -1.209  1.00  0.00     0.027 A 
HETATM   24  C   LIG     1      -0.988   0.666  -0.831  1.00  0.00     0.070 C 
ENDBRANCH  16  17
ENDBRANCH   1  16
TORSDOF 3
