REMARK  3 active torsions:
REMARK  status: ('A' for Active; 'I' for Inactive)
REMARK    1  A    between atoms: C_5  and  C_7 
REMARK    2  A    between atoms: C_13  and  O_16 
REMARK    3  A    between atoms: O_16  and  C_17 
ROOT
HETATM    1  N   LIG     1      -0.699   0.459   0.681  1.00  0.00    -0.301 N 
ATOM      2  HN  LIG     1      -1.688   0.302   0.876  1.00  0.00     0.186 HD
HETATM    3  N   LIG     1      -0.125   1.682   0.880  1.00  0.00    -0.270 N 
ATOM      4  HN  LIG     1      -0.640   2.347   1.457  1.00  0.00     0.190 HD
HETATM    5  C   LIG     1       0.058  -0.499   0.234  1.00  0.00     0.036 C 
HETATM    6  C   LIG     1       1.081   2.098   0.374  1.00  0.00     0.236 C 
HETATM    7  O   LIG     1       1.517   3.230   0.571  1.00  0.00    -0.272 OA
HETATM    8  C   LIG     1       1.537  -0.299  -0.012  1.00  0.00     0.069 C 
HETATM    9  C   LIG     1       1.780   1.107  -0.511  1.00  0.00     0.110 C 
ENDROOT
BRANCH   5  10
HETATM   10  C   LIG     1      -0.522  -1.853   0.004  1.00  0.00    -0.012 A 
HETATM   11  C   LIG     1       0.262  -3.003   0.133  1.00  0.00     0.016 A 
HETATM   12  C   LIG     1      -0.301  -4.261  -0.100  1.00  0.00     0.037 A 
HETATM   13  C   LIG     1      -1.646  -4.388  -0.457  1.00  0.00     0.068 A 
HETATM   14  C   LIG     1      -2.433  -3.240  -0.567  1.00  0.00     0.037 A 
HETATM   15  C   LIG     1      -1.873  -1.977  -0.336  1.00  0.00     0.016 A 
BRANCH  13  16
HETATM   16  O   LIG     1      -2.060  -5.674  -0.667  1.00  0.00    -0.352 OA
BRANCH  16  17
HETATM   17  C   LIG     1      -3.422  -5.862  -1.050  1.00  0.00     0.171 C 
HETATM   18  C   LIG     1      -3.654  -7.348  -1.261  1.00  0.00     0.034 C 
ENDBRANCH  16  17
ENDBRANCH  13  16
ENDBRANCH   5  10
TORSDOF 3
