REMARK  3 active torsions:
REMARK  status: ('A' for Active; 'I' for Inactive)
REMARK    1  A    between atoms: C_5  and  C_9 
REMARK       I    between atoms: C_7  and  N_8 
REMARK    2  A    between atoms: N_8  and  C_12 
REMARK    3  A    between atoms: C_12  and  C_18 
ROOT
HETATM    1  C   LIG     1      -3.596  -0.040   0.219  1.00  0.00    -0.008 A 
HETATM    2  C   LIG     1      -4.286  -1.252   0.084  1.00  0.00     0.014 A 
HETATM    3  C   LIG     1      -4.325   1.152   0.131  1.00  0.00     0.014 A 
HETATM    4  C   LIG     1      -6.393  -0.072  -0.234  1.00  0.00    -0.040 A 
HETATM    5  C   LIG     1      -5.669  -1.269  -0.142  1.00  0.00     0.010 A 
HETATM    6  C   LIG     1      -5.703   1.137  -0.097  1.00  0.00     0.010 A 
ENDROOT
BRANCH   1   7
HETATM    7  C   LIG     1      -2.156  -0.036   0.438  1.00  0.00     0.060 A 
HETATM    8  N   LIG     1      -1.385  -1.179   0.513  1.00  0.00    -0.340 N 
HETATM    9  C   LIG     1      -0.150  -0.760   0.702  1.00  0.00     0.111 A 
ATOM     10  HN  LIG     1      -1.704  -2.145   0.438  1.00  0.00     0.167 HD
HETATM   11  N   LIG     1      -0.091   0.627   0.758  1.00  0.00    -0.317 N 
HETATM   12  C   LIG     1       1.081  -1.462   0.852  1.00  0.00     0.049 A 
HETATM   13  C   LIG     1      -1.369   1.087   0.592  1.00  0.00     0.128 A 
HETATM   14  C   LIG     1       1.084   1.347   0.949  1.00  0.00     0.098 A 
HETATM   15  C   LIG     1       2.242   0.681   1.092  1.00  0.00     0.018 A 
HETATM   16  C   LIG     1       2.226  -0.774   1.040  1.00  0.00     0.005 A 
ENDBRANCH   1   7
BRANCH   4  17
HETATM   17  C   LIG     1      -7.883  -0.075  -0.496  1.00  0.00     0.163 C 
BRANCH  17  18
HETATM   18  N   LIG     1      -8.667   0.485   0.608  1.00  0.00    -0.353 N 
HETATM   19  C   LIG     1      -9.037   1.823   0.552  1.00  0.00     0.215 C 
HETATM   20  O   LIG     1      -8.709   2.569  -0.366  1.00  0.00    -0.274 OA
HETATM   21  C   LIG     1      -9.908   2.353   1.666  1.00  0.00     0.117 C 
HETATM   22  C   LIG     1      -8.866  -0.376   1.765  1.00  0.00     0.152 C 
ENDBRANCH  17  18
ENDBRANCH   4  17
TORSDOF 3
