REMARK  2 active torsions:
REMARK  status: ('A' for Active; 'I' for Inactive)
REMARK       I    between atoms: C_1  and  N_3 
REMARK    1  A    between atoms: C_1  and  C_4 
REMARK    2  A    between atoms: N_2  and  C_5 
ROOT
HETATM    1  C   LIG     1      -0.388  -1.551  -1.113  1.00  0.00     0.032 A 
HETATM    2  C   LIG     1      -1.077  -3.946  -2.424  1.00  0.00     0.038 A 
HETATM    3  C   LIG     1      -1.554  -3.676  -1.133  1.00  0.00     0.031 A 
HETATM    4  C   LIG     1      -0.282  -2.986  -3.068  1.00  0.00     0.031 A 
HETATM    5  C   LIG     1      -1.240  -2.471  -0.498  1.00  0.00     0.019 A 
HETATM    6  C   LIG     1       0.061  -1.798  -2.414  1.00  0.00     0.019 A 
ENDROOT
BRANCH   1   7
HETATM    7  C   LIG     1       0.006  -0.276  -0.460  1.00  0.00     0.253 C 
HETATM    8  N   LIG     1       0.264  -0.240   0.910  1.00  0.00    -0.344 N 
HETATM    9  C   LIG     1       0.625   1.047   1.511  1.00  0.00     0.152 C 
HETATM   10  C   LIG     1       0.645  -1.384   1.751  1.00  0.00     0.152 C 
HETATM   11  C   LIG     1       2.113   1.057   1.876  1.00  0.00     0.187 C 
HETATM   12  O   LIG     1       2.422  -0.031   2.766  1.00  0.00    -0.388 OA
HETATM   13  C   LIG     1       2.123  -1.292   2.150  1.00  0.00     0.187 C 
HETATM   14  O   LIG     1       0.093   0.718  -1.175  1.00  0.00    -0.267 OA
ENDBRANCH   1   7
BRANCH   2  15
HETATM   15  N   LIG     1      -1.403  -5.176  -3.073  1.00  0.00    -0.333 N 
HETATM   16  C   LIG     1      -1.051  -5.551  -4.357  1.00  0.00     0.096 A 
HETATM   17  C   LIG     1      -1.540  -6.813  -4.616  1.00  0.00     0.019 A 
HETATM   18  C   LIG     1      -2.218  -7.241  -3.461  1.00  0.00     0.019 A 
HETATM   19  C   LIG     1      -2.126  -6.226  -2.535  1.00  0.00     0.096 A 
ENDBRANCH   2  15
TORSDOF 2
