REMARK  3 active torsions:
REMARK  status: ('A' for Active; 'I' for Inactive)
REMARK    1  A    between atoms: N_1  and  C_11 
REMARK    2  A    between atoms: C_4  and  C_12 
REMARK       I    between atoms: C_4  and  N_9 
REMARK    3  A    between atoms: N_9  and  C_18 
ROOT
HETATM    1  C   LIG     1      -0.160   1.821  -1.173  1.00  0.00     0.057 A 
HETATM    2  C   LIG     1      -1.226   4.416  -0.995  1.00  0.00     0.032 A 
HETATM    3  C   LIG     1      -0.566   2.332   0.068  1.00  0.00     0.032 A 
HETATM    4  C   LIG     1      -0.276   2.621  -2.321  1.00  0.00     0.032 A 
HETATM    5  C   LIG     1      -1.092   3.626   0.152  1.00  0.00     0.019 A 
HETATM    6  C   LIG     1      -0.802   3.914  -2.232  1.00  0.00     0.019 A 
ENDROOT
BRANCH   2   7
HETATM    7  C   LIG     1      -1.800   5.785  -0.858  1.00  0.00     0.252 C 
HETATM    8  N   LIG     1      -2.523   6.244  -1.937  1.00  0.00    -0.352 N 
ATOM      9  HN  LIG     1      -2.641   5.634  -2.746  1.00  0.00     0.163 HD
HETATM   10  O   LIG     1      -1.648   6.413   0.185  1.00  0.00    -0.268 OA
BRANCH   8  11
HETATM   11  C   LIG     1      -3.124   7.569  -1.962  1.00  0.00     0.084 C 
HETATM   12  C   LIG     1      -4.337   7.598  -2.897  1.00  0.00     0.025 C 
HETATM   13  C   LIG     1      -3.800   8.161  -4.204  1.00  0.00     0.002 C 
HETATM   14  C   LIG     1      -2.838   9.237  -3.733  1.00  0.00     0.002 C 
HETATM   15  C   LIG     1      -2.145   8.616  -2.522  1.00  0.00     0.025 C 
ENDBRANCH   8  11
ENDBRANCH   2   7
BRANCH   1  16
HETATM   16  N   LIG     1       0.370   0.509  -1.287  1.00  0.00    -0.251 N 
HETATM   17  N   LIG     1       0.765  -0.007  -2.479  1.00  0.00    -0.288 N 
HETATM   18  C   LIG     1       1.169  -1.230  -2.137  1.00  0.00     0.199 A 
ATOM     19  HN  LIG     1       0.755   0.430  -3.401  1.00  0.00     0.188 HD
HETATM   20  N   LIG     1       1.064  -1.536  -0.815  1.00  0.00    -0.346 N 
HETATM   21  C   LIG     1       0.565  -0.433  -0.306  1.00  0.00     0.208 A 
ATOM     22  HN  LIG     1       1.311  -2.404  -0.339  1.00  0.00     0.167 HD
ENDBRANCH   1  16
TORSDOF 3
