REMARK  2 active torsions:
REMARK  status: ('A' for Active; 'I' for Inactive)
REMARK       I    between atoms: C_1  and  N_3 
REMARK       I    between atoms: C_1  and  N_6 
REMARK       I    between atoms: C_2  and  N_4 
REMARK    1  A    between atoms: C_2  and  C_5 
REMARK    2  A    between atoms: N_6  and  C_16 
ROOT
HETATM    1  C   LIG     1       0.512   0.555  -0.255  1.00  0.00     0.323 C 
HETATM    2  C   LIG     1      -0.766   3.965  -4.037  1.00  0.00     0.224 C 
HETATM    3  N   LIG     1      -0.557   1.296  -0.761  1.00  0.00    -0.331 N 
HETATM    4  N   LIG     1      -0.603   3.027  -3.019  1.00  0.00    -0.349 N 
HETATM    5  N   LIG     1       1.006   1.053   0.932  1.00  0.00    -0.309 N 
ATOM      6  HN  LIG     1       0.552   1.890   1.298  1.00  0.00     0.170 HD
HETATM    7  O   LIG     1       0.911  -0.457  -0.823  1.00  0.00    -0.247 OA
HETATM    8  C   LIG     1      -1.173   0.838  -2.011  1.00  0.00     0.147 C 
HETATM    9  C   LIG     1      -0.694   2.742  -0.555  1.00  0.00     0.147 C 
HETATM   10  C   LIG     1      -0.084   3.510  -1.734  1.00  0.00     0.145 C 
HETATM   11  C   LIG     1      -0.553   1.569  -3.212  1.00  0.00     0.145 C 
HETATM   12  O   LIG     1      -0.491   5.146  -3.903  1.00  0.00    -0.273 OA
ENDROOT
BRANCH   5  13
HETATM   13  C   LIG     1       2.067   0.533   1.692  1.00  0.00     0.036 A 
HETATM   14  C   LIG     1       3.019  -0.338   1.171  1.00  0.00     0.030 A 
HETATM   15  C   LIG     1       3.997  -0.883   2.002  1.00  0.00     0.009 A 
HETATM   16  C   LIG     1       4.052  -0.544   3.357  1.00  0.00    -0.062 A 
HETATM   17  C   LIG     1       3.120   0.362   3.872  1.00  0.00     0.009 A 
HETATM   18  C   LIG     1       5.048  -1.217   4.251  1.00  0.00     0.048 C 
HETATM   19  C   LIG     1       2.141   0.908   3.040  1.00  0.00     0.030 A 
ENDBRANCH   5  13
BRANCH   2  20
HETATM   20  C   LIG     1      -1.333   3.477  -5.327  1.00  0.00     0.078 A 
HETATM   21  C   LIG     1      -0.521   3.572  -6.595  1.00  0.00     0.015 A 
HETATM   22  C   LIG     1      -1.714   4.463  -6.407  1.00  0.00     0.015 A 
ENDBRANCH   2  20
TORSDOF 2
