REMARK  2 active torsions:
REMARK  status: ('A' for Active; 'I' for Inactive)
REMARK    1  A    between atoms: C_1  and  C_2 
REMARK    2  A    between atoms: N_4  and  C_14 
ROOT
HETATM    1  C   LIG     1      -0.543  -2.847  -0.151  1.00  0.00     0.120 A 
HETATM    2  N   LIG     1      -1.754  -3.222  -0.676  1.00  0.00    -0.308 N 
ATOM      3  HN  LIG     1      -2.386  -2.492  -1.005  1.00  0.00     0.170 HD
HETATM    4  N   LIG     1       0.325  -3.690   0.304  1.00  0.00    -0.341 N 
ATOM      5  HN  LIG     1       1.215  -3.373   0.688  1.00  0.00     0.167 HD
HETATM    6  C   LIG     1      -2.156  -4.526  -0.780  1.00  0.00     0.259 A 
HETATM    7  C   LIG     1      -1.206  -5.527  -0.271  1.00  0.00     0.059 A 
HETATM    8  C   LIG     1       0.002  -5.058   0.252  1.00  0.00     0.049 A 
HETATM    9  O   LIG     1      -3.235  -4.838  -1.271  1.00  0.00    -0.267 OA
HETATM   10  C   LIG     1      -1.503  -6.893  -0.316  1.00  0.00     0.019 A 
HETATM   11  C   LIG     1       0.922  -5.990   0.738  1.00  0.00     0.030 A 
HETATM   12  C   LIG     1      -0.574  -7.810   0.170  1.00  0.00     0.001 A 
HETATM   13  C   LIG     1       0.638  -7.359   0.697  1.00  0.00     0.002 A 
ENDROOT
BRANCH   1  14
HETATM   14  C   LIG     1      -0.278  -1.413  -0.115  1.00  0.00     0.032 A 
HETATM   15  C   LIG     1       0.962  -0.777  -0.151  1.00  0.00     0.022 A 
HETATM   16  N   LIG     1       0.750   0.592  -0.042  1.00  0.00    -0.349 N 
HETATM   17  C   LIG     1       2.322  -1.381  -0.300  1.00  0.00     0.069 C 
HETATM   18  C   LIG     1      -0.607   0.849  -0.017  1.00  0.00     0.009 A 
HETATM   19  C   LIG     1      -1.247  -0.375  -0.045  1.00  0.00     0.042 A 
HETATM   20  C   LIG     1      -1.274   2.175   0.063  1.00  0.00     0.068 C 
BRANCH  16  21
HETATM   21  C   LIG     1       1.859   1.545   0.034  1.00  0.00     0.090 A 
HETATM   22  C   LIG     1       1.814   2.869   0.772  1.00  0.00     0.028 A 
HETATM   23  C   LIG     1       1.877   2.864  -0.717  1.00  0.00     0.028 A 
ENDBRANCH  16  21
ENDBRANCH   1  14
TORSDOF 2
