REMARK  1 active torsions:
REMARK  status: ('A' for Active; 'I' for Inactive)
REMARK    1  A    between atoms: C_1  and  C_6 
REMARK       I    between atoms: C_6  and  N_8 
ROOT
HETATM    1  C   LIG     1      -1.024   1.092   0.457  1.00  0.00     0.118 A 
HETATM    2  N   LIG     1      -0.130   1.053   1.518  1.00  0.00    -0.337 N 
ATOM      3  HN  LIG     1      -0.145   1.636   2.355  1.00  0.00     0.168 HD
HETATM    4  C   LIG     1       0.739   0.112   1.225  1.00  0.00     0.112 A 
HETATM    5  N   LIG     1       0.472  -0.458  -0.011  1.00  0.00    -0.317 N 
HETATM    6  C   LIG     1      -0.641   0.170  -0.504  1.00  0.00     0.133 A 
HETATM    7  C   LIG     1       1.859  -0.384   1.948  1.00  0.00     0.056 A 
HETATM    8  C   LIG     1       1.244  -1.472  -0.569  1.00  0.00     0.098 A 
HETATM    9  C   LIG     1       2.620  -1.371   1.426  1.00  0.00    -0.057 A 
HETATM   10  C   LIG     1       2.306  -1.938   0.112  1.00  0.00     0.024 A 
HETATM   11  C   LIG     1       3.806  -1.935   2.149  1.00  0.00     0.048 C 
ENDROOT
BRANCH   1  12
HETATM   12  C   LIG     1      -2.158   2.026   0.337  1.00  0.00     0.271 C 
HETATM   13  N   LIG     1      -2.726   2.568   1.507  1.00  0.00    -0.347 N 
HETATM   14  C   LIG     1      -2.261   2.224   2.851  1.00  0.00     0.126 C 
HETATM   15  C   LIG     1      -3.435   3.836   1.359  1.00  0.00     0.126 C 
HETATM   16  C   LIG     1      -3.313   2.464   3.931  1.00  0.00     0.024 C 
HETATM   17  C   LIG     1      -3.903   3.870   3.838  1.00  0.00    -0.015 C 
HETATM   18  C   LIG     1      -4.490   4.068   2.437  1.00  0.00     0.024 C 
HETATM   19  C   LIG     1      -4.961   4.084   4.916  1.00  0.00     0.010 C 
HETATM   20  O   LIG     1      -2.586   2.323  -0.781  1.00  0.00    -0.266 OA
ENDBRANCH   1  12
TORSDOF 1
