REMARK  1 active torsions:
REMARK  status: ('A' for Active; 'I' for Inactive)
REMARK    1  A    between atoms: C_1  and  N_2 
ROOT
HETATM    1  C   LIG     1      -1.451  -0.056  -0.153  1.00  0.00     0.104 A 
HETATM    2  N   LIG     1       1.861   3.431   0.329  1.00  0.00    -0.191 NA
HETATM    3  N   LIG     1      -0.774  -1.216   0.004  1.00  0.00    -0.352 N 
ATOM      4  HN  LIG     1      -1.265  -2.108  -0.052  1.00  0.00     0.166 HD
HETATM    5  C   LIG     1       1.296   2.420   0.259  1.00  0.00     0.099 C 
HETATM    6  C   LIG     1      -0.777   1.157  -0.068  1.00  0.00     0.071 A 
HETATM    7  C   LIG     1       0.600   1.173   0.173  1.00  0.00     0.049 A 
HETATM    8  C   LIG     1       0.556  -1.185   0.235  1.00  0.00     0.091 A 
HETATM    9  C   LIG     1       1.288  -0.022   0.327  1.00  0.00     0.040 A 
ENDROOT
BRANCH   1  10
HETATM   10  N   LIG     1      -2.796  -0.125  -0.387  1.00  0.00    -0.367 N 
HETATM   11  C   LIG     1      -3.680   0.992  -0.674  1.00  0.00     0.124 C 
HETATM   12  C   LIG     1      -5.065   0.350  -0.713  1.00  0.00     0.021 C 
HETATM   13  C   LIG     1      -4.781  -1.048  -1.237  1.00  0.00     0.021 C 
HETATM   14  C   LIG     1      -3.457  -1.412  -0.567  1.00  0.00     0.124 C 
ENDBRANCH   1  10
TORSDOF 1
