REMARK  0 active torsions:
REMARK  status: ('A' for Active; 'I' for Inactive)
ROOT
HETATM    1  C   LIG     1      -0.156  -0.737   0.064  1.00  0.00     0.043 A 
HETATM    2  C   LIG     1      -0.324   0.639   0.239  1.00  0.00     0.084 A 
HETATM    3  C   LIG     1       1.164  -1.398   0.138  1.00  0.00     0.162 C 
HETATM    4  C   LIG     1      -1.604   1.197   0.187  1.00  0.00     0.056 A 
HETATM    5  C   LIG     1      -1.274  -1.552  -0.170  1.00  0.00     0.019 A 
HETATM    6  O   LIG     1       0.684   1.490   0.595  1.00  0.00    -0.350 OA
HETATM    7  O   LIG     1       1.272  -2.465   0.737  1.00  0.00    -0.292 OA
HETATM    8  C   LIG     1      -2.707   0.385  -0.074  1.00  0.00     0.013 A 
HETATM    9  C   LIG     1      -2.549  -0.989  -0.250  1.00  0.00     0.020 A 
HETATM   10 BR   LIG     1      -4.432   1.150  -0.174  1.00  0.00    -0.051 Br
HETATM   11  C   LIG     1       2.297  -0.821  -0.679  1.00  0.00     0.086 C 
HETATM   12  C   LIG     1       1.698   1.606  -0.403  1.00  0.00     0.176 C 
HETATM   13  C   LIG     1       2.767   0.543  -0.208  1.00  0.00     0.034 C 
ENDROOT
TORSDOF 0
