REMARK  0 active torsions:
REMARK  status: ('A' for Active; 'I' for Inactive)
ROOT
HETATM    1  C   LIG     1       0.190   0.639   0.010  1.00  0.00     0.134 A 
HETATM    2  C   LIG     1       0.235  -0.747  -0.000  1.00  0.00     0.035 A 
HETATM    3  N   LIG     1       2.388   0.034   0.030  1.00  0.00    -0.301 N 
ATOM      4  HN  LIG     1       3.406   0.090   0.048  1.00  0.00     0.187 HD
HETATM    5  N   LIG     1       1.495   1.050   0.024  1.00  0.00    -0.280 N 
HETATM    6  C   LIG     1       1.619  -1.065   0.007  1.00  0.00     0.036 A 
HETATM    7  N   LIG     1      -0.912   1.416  -0.011  1.00  0.00    -0.349 N 
ATOM      8  HN  LIG     1      -0.888   2.436  -0.005  1.00  0.00     0.167 HD
HETATM    9  C   LIG     1      -0.984  -1.445  -0.030  1.00  0.00     0.045 A 
HETATM   10  C   LIG     1      -2.058   0.688  -0.041  1.00  0.00     0.116 A 
HETATM   11  C   LIG     1      -2.170  -0.706   0.001  1.00  0.00     0.062 A 
HETATM   12  C   LIG     1       1.971   2.410   0.013  1.00  0.00     0.179 C 
HETATM   13  N   LIG     1      -3.403  -1.352  -0.165  1.00  0.00    -0.101 NA
HETATM   14  C   LIG     1       2.235  -2.413  -0.005  1.00  0.00     0.070 C 
ENDROOT
TORSDOF 0
