REMARK  1 active torsions:
REMARK  status: ('A' for Active; 'I' for Inactive)
REMARK       I    between atoms: C_1  and  N_2 
REMARK    1  A    between atoms: N_2  and  C_7 
ROOT
HETATM    1  C   LIG     1      -4.012  -0.329  -2.861  1.00  0.00     0.127 C 
HETATM    2  O   LIG     1      -5.234  -0.201  -2.938  1.00  0.00    -0.298 OA
HETATM    3  C   LIG     1      -1.153  -0.471  -2.238  1.00  0.00     0.085 C 
HETATM    4  C   LIG     1      -3.086   0.771  -3.330  1.00  0.00     0.080 C 
HETATM    5  C   LIG     1      -3.388  -1.657  -2.494  1.00  0.00     0.080 C 
HETATM    6  C   LIG     1      -1.845   0.878  -2.453  1.00  0.00     0.032 C 
HETATM    7  C   LIG     1      -2.142  -1.479  -1.638  1.00  0.00     0.032 C 
ENDROOT
BRANCH   3   8
HETATM    8  N   LIG     1      -0.565  -0.958  -3.480  1.00  0.00    -0.357 N 
HETATM    9  C   LIG     1       0.541  -1.777  -3.493  1.00  0.00     0.213 C 
HETATM   10  O   LIG     1       1.126  -2.145  -2.485  1.00  0.00    -0.274 OA
HETATM   11  C   LIG     1       0.996  -2.171  -4.875  1.00  0.00     0.117 C 
ATOM     12  HN  LIG     1      -0.987  -0.683  -4.367  1.00  0.00     0.162 HD
ENDBRANCH   3   8
TORSDOF 1
