REMARK  2 active torsions:
REMARK  status: ('A' for Active; 'I' for Inactive)
REMARK       I    between atoms: C_1  and  N_2 
REMARK    1  A    between atoms: C_1  and  C_4 
REMARK    2  A    between atoms: N_2  and  C_5 
ROOT
HETATM    1  C   LIG     1       0.561  -0.791  -1.599  1.00  0.00     0.032 A 
HETATM    2  C   LIG     1       0.422  -2.157  -1.318  1.00  0.00     0.029 A 
HETATM    3  C   LIG     1      -0.072  -3.046  -2.288  1.00  0.00    -0.025 A 
HETATM    4  C   LIG     1       0.222  -0.309  -2.867  1.00  0.00     0.018 A 
HETATM    5  C   LIG     1      -0.426  -2.551  -3.564  1.00  0.00    -0.026 A 
HETATM    6  C   LIG     1      -0.273  -1.183  -3.839  1.00  0.00     0.013 A 
HETATM    7  C   LIG     1      -0.218  -4.416  -2.019  1.00  0.00     0.012 A 
HETATM    8  C   LIG     1      -0.915  -3.441  -4.535  1.00  0.00     0.012 A 
HETATM    9  C   LIG     1      -0.705  -5.288  -2.995  1.00  0.00     0.001 A 
HETATM   10  C   LIG     1      -1.053  -4.801  -4.251  1.00  0.00     0.001 A 
ENDROOT
BRANCH   1  11
HETATM   11  C   LIG     1       1.104   0.099  -0.532  1.00  0.00     0.252 C 
HETATM   12  N   LIG     1       0.695   1.420  -0.577  1.00  0.00    -0.352 N 
ATOM     13  HN  LIG     1       0.081   1.719  -1.335  1.00  0.00     0.163 HD
HETATM   14  O   LIG     1       1.840  -0.361   0.334  1.00  0.00    -0.268 OA
BRANCH  12  15
HETATM   15  C   LIG     1       1.102   2.381   0.400  1.00  0.00     0.084 A 
HETATM   16  C   LIG     1       0.634   3.808   0.291  1.00  0.00     0.027 A 
HETATM   17  C   LIG     1       2.075   3.472   0.047  1.00  0.00     0.027 A 
ENDBRANCH  12  15
ENDBRANCH   1  11
TORSDOF 2
