REMARK  2 active torsions:
REMARK  status: ('A' for Active; 'I' for Inactive)
REMARK    1  A    between atoms: C_2  and  C_11 
REMARK    2  A    between atoms: N_8  and  C_11 
ROOT
HETATM    1  C   LIG     1      -0.394  -1.368   0.139  1.00  0.00     0.096 A 
HETATM    2  C   LIG     1       0.765   0.832   0.073  1.00  0.00    -0.021 A 
HETATM    3  C   LIG     1      -0.479   0.032   0.170  1.00  0.00     0.007 A 
HETATM    4  O   LIG     1       0.858  -2.010   0.036  1.00  0.00    -0.274 OA
HETATM    5  C   LIG     1       2.037  -1.302  -0.034  1.00  0.00     0.288 A 
HETATM    6  C   LIG     1       1.927   0.159  -0.013  1.00  0.00     0.092 A 
HETATM    7  C   LIG     1      -1.516  -2.222   0.203  1.00  0.00    -0.021 A 
HETATM    8  C   LIG     1      -1.761   0.581   0.280  1.00  0.00     0.015 A 
HETATM    9  C   LIG     1      -2.793  -1.643   0.278  1.00  0.00    -0.053 A 
HETATM   10  O   LIG     1       3.127  -1.855  -0.111  1.00  0.00    -0.260 OA
HETATM   11  C   LIG     1      -2.897  -0.244   0.333  1.00  0.00     0.008 A 
HETATM   12  C   LIG     1      -1.303  -3.712   0.133  1.00  0.00     0.052 C 
HETATM   13  C   LIG     1      -4.042  -2.482   0.309  1.00  0.00     0.049 C 
ENDROOT
BRANCH   2  14
HETATM   14  C   LIG     1       0.679   2.347   0.064  1.00  0.00     0.168 C 
BRANCH  14  15
HETATM   15  N   LIG     1       1.957   3.049  -0.049  1.00  0.00    -0.347 N 
HETATM   16  C   LIG     1       2.567   3.418  -1.215  1.00  0.00     0.182 A 
HETATM   17  N   LIG     1       3.677   4.083  -0.984  1.00  0.00    -0.361 N 
HETATM   18  C   LIG     1       3.790   4.142   0.380  1.00  0.00     0.106 A 
ATOM     19  HN  LIG     1       4.319   4.473  -1.674  1.00  0.00     0.166 HD
HETATM   20  C   LIG     1       2.738   3.492   0.984  1.00  0.00     0.109 A 
ENDBRANCH  14  15
ENDBRANCH   2  14
TORSDOF 2
