REMARK  3 active torsions:
REMARK  status: ('A' for Active; 'I' for Inactive)
REMARK       I    between atoms: N_1  and  C_4 
REMARK    1  A    between atoms: C_4  and  C_10 
REMARK    2  A    between atoms: C_5  and  C_11 
REMARK    3  A    between atoms: C_10  and  C_11 
ROOT
HETATM    1  C   LIG     1       1.923   4.448   0.627  1.00  0.00     0.050 C 
ENDROOT
BRANCH   1   2
HETATM    2  C   LIG     1       1.728   5.911   0.880  1.00  0.00    -0.030 A 
HETATM    3  C   LIG     1       2.122   6.939   0.045  1.00  0.00     0.096 A 
HETATM    4  N   LIG     1       1.795   8.127   0.638  1.00  0.00    -0.365 N 
HETATM    5  C   LIG     1       1.184   7.902   1.849  1.00  0.00     0.042 A 
ATOM      6  HN  LIG     1       1.978   9.048   0.239  1.00  0.00     0.165 HD
HETATM    7  C   LIG     1       1.124   6.519   2.028  1.00  0.00    -0.002 A 
HETATM    8  C   LIG     1       0.692   8.812   2.792  1.00  0.00     0.030 A 
HETATM    9  C   LIG     1       0.539   6.022   3.212  1.00  0.00     0.014 A 
HETATM   10  C   LIG     1       0.042   6.918   4.165  1.00  0.00     0.001 A 
HETATM   11  C   LIG     1       0.119   8.293   3.957  1.00  0.00     0.002 A 
ENDBRANCH   1   2
BRANCH   1  12
HETATM   12  C   LIG     1       0.696   3.795  -0.008  1.00  0.00     0.107 C 
BRANCH  12  13
HETATM   13  C   LIG     1       0.972   2.348  -0.381  1.00  0.00     0.220 C 
HETATM   14  N   LIG     1      -0.078   1.635  -0.956  1.00  0.00    -0.348 N 
HETATM   15  C   LIG     1       0.149   0.212  -1.223  1.00  0.00     0.157 C 
HETATM   16  C   LIG     1      -1.486   2.002  -0.783  1.00  0.00     0.152 C 
HETATM   17  C   LIG     1      -0.801  -0.352  -2.292  1.00  0.00     0.135 C 
HETATM   18  O   LIG     1      -2.170  -0.028  -1.994  1.00  0.00    -0.383 OA
HETATM   19  C   LIG     1      -0.417   0.079  -3.707  1.00  0.00     0.041 C 
HETATM   20  C   LIG     1      -2.388   1.379  -1.852  1.00  0.00     0.188 C 
HETATM   21  O   LIG     1       2.084   1.845  -0.217  1.00  0.00    -0.273 OA
ENDBRANCH  12  13
ENDBRANCH   1  12
TORSDOF 3
