REMARK  2 active torsions:
REMARK  status: ('A' for Active; 'I' for Inactive)
REMARK    1  A    between atoms: N_5  and  C_8 
REMARK    2  A    between atoms: C_8  and  C_14 
ROOT
HETATM    1  C   LIG     1       0.936  -0.736  -0.468  1.00  0.00     0.202 A 
HETATM    2  O   LIG     1      -0.213  -1.327  -0.048  1.00  0.00    -0.238 OA
HETATM    3  N   LIG     1       0.929   0.558  -0.542  1.00  0.00    -0.270 N 
ATOM      4  HN  LIG     1       1.676   1.189  -0.832  1.00  0.00     0.189 HD
HETATM    5  N   LIG     1      -0.345   0.857  -0.129  1.00  0.00    -0.230 N 
HETATM    6  C   LIG     1      -1.052  -0.281   0.169  1.00  0.00     0.388 A 
HETATM    7  C   LIG     1       2.009  -1.628  -0.769  1.00  0.00     0.127 A 
HETATM    8  O   LIG     1       1.807  -2.976  -0.629  1.00  0.00    -0.318 OA
HETATM    9  O   LIG     1      -2.203  -0.380   0.563  1.00  0.00    -0.236 OA
HETATM   10  C   LIG     1       3.303  -1.406  -1.203  1.00  0.00     0.043 A 
HETATM   11  C   LIG     1       2.959  -3.599  -0.979  1.00  0.00     0.142 A 
HETATM   12  C   LIG     1       3.913  -2.679  -1.337  1.00  0.00     0.027 A 
ENDROOT
BRANCH   5  13
HETATM   13  C   LIG     1      -0.876   2.200  -0.104  1.00  0.00     0.193 C 
BRANCH  13  14
HETATM   14  C   LIG     1      -1.526   2.578  -1.413  1.00  0.00    -0.038 A 
HETATM   15  C   LIG     1      -2.889   2.334  -1.629  1.00  0.00     0.009 A 
HETATM   16  C   LIG     1      -3.483   2.660  -2.851  1.00  0.00     0.007 A 
HETATM   17  C   LIG     1      -2.727   3.233  -3.879  1.00  0.00    -0.062 A 
HETATM   18  C   LIG     1      -1.363   3.466  -3.670  1.00  0.00     0.007 A 
HETATM   19  C   LIG     1      -3.366   3.538  -5.201  1.00  0.00     0.048 C 
HETATM   20  C   LIG     1      -0.768   3.140  -2.448  1.00  0.00     0.009 A 
ENDBRANCH  13  14
ENDBRANCH   5  13
TORSDOF 2
