REMARK  3 active torsions:
REMARK  status: ('A' for Active; 'I' for Inactive)
REMARK    1  A    between atoms: C_1  and  C_2 
REMARK       I    between atoms: C_2  and  N_3 
REMARK    2  A    between atoms: N_4  and  C_12 
REMARK    3  A    between atoms: C_12  and  C_16 
ROOT
HETATM    1  C   LIG     1       0.179   0.240   0.753  1.00  0.00     0.066 A 
HETATM    2  N   LIG     1       0.132  -1.958   0.547  1.00  0.00    -0.298 N 
HETATM    3  N   LIG     1       1.448  -1.673   0.633  1.00  0.00    -0.309 N 
ATOM      4  HN  LIG     1       2.237  -2.320   0.627  1.00  0.00     0.186 HD
HETATM    5  C   LIG     1      -0.663  -0.850   0.633  1.00  0.00     0.129 A 
HETATM    6  C   LIG     1       1.470  -0.342   0.728  1.00  0.00     0.125 A 
ENDROOT
BRANCH   1   7
HETATM    7  C   LIG     1      -0.228   1.637   0.793  1.00  0.00     0.256 C 
HETATM    8  N   LIG     1       0.571   2.539   1.489  1.00  0.00    -0.344 N 
HETATM    9  C   LIG     1       0.208   3.958   1.480  1.00  0.00     0.157 C 
HETATM   10  C   LIG     1       1.429   2.187   2.627  1.00  0.00     0.152 C 
HETATM   11  C   LIG     1       1.429   4.887   1.680  1.00  0.00     0.135 C 
HETATM   12  O   LIG     1       2.322   4.437   2.717  1.00  0.00    -0.383 OA
HETATM   13  C   LIG     1       2.196   5.136   0.384  1.00  0.00     0.041 C 
HETATM   14  C   LIG     1       2.681   3.055   2.593  1.00  0.00     0.188 C 
HETATM   15  O   LIG     1      -1.239   2.005   0.183  1.00  0.00    -0.267 OA
ENDBRANCH   1   7
BRANCH   2  16
HETATM   16  C   LIG     1      -0.294  -3.321   0.266  1.00  0.00     0.186 C 
BRANCH  16  17
HETATM   17  C   LIG     1      -0.559  -4.087   1.535  1.00  0.00    -0.038 A 
HETATM   18  C   LIG     1      -1.833  -4.073   2.120  1.00  0.00     0.009 A 
HETATM   19  C   LIG     1      -2.073  -4.770   3.304  1.00  0.00     0.001 A 
HETATM   20  C   LIG     1      -1.043  -5.480   3.917  1.00  0.00     0.000 A 
HETATM   21  C   LIG     1       0.230  -5.491   3.351  1.00  0.00     0.001 A 
HETATM   22  C   LIG     1       0.473  -4.797   2.166  1.00  0.00     0.009 A 
ENDBRANCH  16  17
ENDBRANCH   2  16
TORSDOF 3
