REMARK  2 active torsions:
REMARK  status: ('A' for Active; 'I' for Inactive)
REMARK    1  A    between atoms: C_3  and  C_9 
REMARK    2  A    between atoms: N_8  and  C_9 
ROOT
HETATM    1  N   LIG     1      -1.024  -0.544   0.938  1.00  0.00    -0.343 N 
ATOM      2  HN  LIG     1      -1.094  -1.524   1.214  1.00  0.00     0.167 HD
HETATM    3  C   LIG     1      -2.013   0.267   0.613  1.00  0.00     0.111 A 
HETATM    4  N   LIG     1      -1.540   1.517   0.300  1.00  0.00    -0.343 N 
ATOM      5  HN  LIG     1      -2.108   2.317   0.020  1.00  0.00     0.167 HD
HETATM    6  C   LIG     1       0.120   0.209   0.827  1.00  0.00     0.060 A 
HETATM    7  C   LIG     1      -0.176   1.508   0.428  1.00  0.00     0.060 A 
HETATM    8  C   LIG     1       1.457  -0.149   1.057  1.00  0.00     0.032 A 
HETATM    9  C   LIG     1       0.796   2.492   0.240  1.00  0.00     0.032 A 
HETATM   10  C   LIG     1       2.125   2.117   0.475  1.00  0.00     0.002 A 
HETATM   11  C   LIG     1       2.453   0.820   0.877  1.00  0.00     0.002 A 
ENDROOT
BRANCH   3  12
HETATM   12  C   LIG     1      -3.472  -0.065   0.580  1.00  0.00     0.348 C 
BRANCH  12  13
HETATM   13  N   LIG     1      -4.290   0.808   1.448  1.00  0.00     0.099 N 
HETATM   14  C   LIG     1      -3.920   0.696   2.882  1.00  0.00     0.299 C 
HETATM   15  C   LIG     1      -4.314  -0.638   3.536  1.00  0.00     0.198 C 
HETATM   16  O   LIG     1      -5.720  -0.882   3.400  1.00  0.00    -0.388 OA
HETATM   17  C   LIG     1      -6.110  -0.874   2.023  1.00  0.00     0.198 C 
HETATM   18  C   LIG     1      -5.726   0.449   1.333  1.00  0.00     0.299 C 
ENDBRANCH  12  13
ENDBRANCH   3  12
TORSDOF 2
