REMARK  2 active torsions:
REMARK  status: ('A' for Active; 'I' for Inactive)
REMARK    1  A    between atoms: C_1  and  C_11 
REMARK       I    between atoms: C_2  and  N_5 
REMARK    2  A    between atoms: C_2  and  C_3 
ROOT
HETATM    1  C   LIG     1      -3.228  -6.354   1.345  1.00  0.00     0.255 C 
HETATM    2  N   LIG     1      -2.828  -5.070   0.923  1.00  0.00    -0.348 N 
HETATM    3  C   LIG     1      -1.774  -2.449   0.194  1.00  0.00     0.024 C 
HETATM    4  O   LIG     1      -3.161  -6.699   2.530  1.00  0.00    -0.267 OA
HETATM    5  C   LIG     1      -2.249  -4.842  -0.408  1.00  0.00     0.127 C 
HETATM    6  C   LIG     1      -2.332  -4.168   1.963  1.00  0.00     0.127 C 
HETATM    7  C   LIG     1      -2.381  -3.392  -0.850  1.00  0.00     0.029 C 
HETATM    8  C   LIG     1      -2.433  -2.699   1.558  1.00  0.00     0.029 C 
ENDROOT
BRANCH   3   9
HETATM    9  C   LIG     1      -1.879  -1.007  -0.227  1.00  0.00    -0.026 A 
HETATM   10  C   LIG     1      -3.043  -0.306  -0.484  1.00  0.00     0.096 A 
HETATM   11  N   LIG     1      -2.713   0.979  -0.816  1.00  0.00    -0.365 N 
HETATM   12  C   LIG     1      -1.349   1.140  -0.794  1.00  0.00     0.042 A 
ATOM     13  HN  LIG     1      -3.383   1.712  -1.047  1.00  0.00     0.165 HD
HETATM   14  C   LIG     1      -0.795  -0.090  -0.439  1.00  0.00    -0.001 A 
HETATM   15  C   LIG     1      -0.574   2.277  -1.057  1.00  0.00     0.030 A 
HETATM   16  C   LIG     1       0.611  -0.189  -0.356  1.00  0.00     0.014 A 
HETATM   17  C   LIG     1       1.401   0.936  -0.621  1.00  0.00     0.001 A 
HETATM   18  C   LIG     1       0.814   2.151  -0.964  1.00  0.00     0.002 A 
ENDBRANCH   3   9
BRANCH   1  19
HETATM   19  C   LIG     1      -3.732  -7.284   0.340  1.00  0.00     0.056 A 
HETATM   20  C   LIG     1      -3.590  -8.657   0.420  1.00  0.00     0.158 A 
HETATM   21  O   LIG     1      -4.122  -9.272  -0.666  1.00  0.00    -0.334 OA
HETATM   22  C   LIG     1      -4.661  -8.301  -1.443  1.00  0.00     0.142 A 
HETATM   23  C   LIG     1      -4.492  -7.070  -0.853  1.00  0.00     0.043 A 
ENDBRANCH   1  19
TORSDOF 2
