REMARK  1 active torsions:
REMARK  status: ('A' for Active; 'I' for Inactive)
REMARK    1  A    between atoms: C_1  and  C_4 
REMARK       I    between atoms: C_4  and  N_8 
ROOT
HETATM    1  C   LIG     1      -0.639  -0.845  -0.052  1.00  0.00     0.144 A 
HETATM    2  O   LIG     1      -1.635  -0.038   0.438  1.00  0.00    -0.298 OA
HETATM    3  C   LIG     1      -1.258   1.247   0.206  1.00  0.00     0.122 A 
HETATM    4  C   LIG     1       0.362  -0.062  -0.596  1.00  0.00     0.046 A 
HETATM    5  C   LIG     1      -0.037   1.287  -0.427  1.00  0.00     0.048 A 
HETATM    6 BR   LIG     1      -2.268   2.739   0.690  1.00  0.00    -0.023 Br
ENDROOT
BRANCH   1   7
HETATM    7  C   LIG     1      -0.766  -2.284   0.061  1.00  0.00     0.275 C 
HETATM    8  O   LIG     1       0.075  -3.072  -0.359  1.00  0.00    -0.265 OA
HETATM    9  N   LIG     1      -1.926  -2.696   0.683  1.00  0.00    -0.360 N 
HETATM   10  C   LIG     1      -2.261  -4.087   0.823  1.00  0.00     0.149 C 
ATOM     11  HN  LIG     1      -2.565  -1.993   1.055  1.00  0.00     0.162 HD
ENDBRANCH   1   7
TORSDOF 1
