REMARK  1 active torsions:
REMARK  status: ('A' for Active; 'I' for Inactive)
REMARK    1  A    between atoms: C_7  and  C_13 
ROOT
HETATM    1  N   LIG     1      -0.312  -0.581   0.104  1.00  0.00    -0.203 N 
HETATM    2  C   LIG     1      -0.249   0.787  -0.049  1.00  0.00     0.133 A 
HETATM    3  N   LIG     1      -1.590  -1.033   0.140  1.00  0.00    -0.289 N 
ATOM      4  HN  LIG     1      -1.905  -1.997   0.251  1.00  0.00     0.188 HD
HETATM    5  C   LIG     1      -1.540   1.235  -0.121  1.00  0.00     0.082 A 
HETATM    6  C   LIG     1       0.811  -1.418   0.216  1.00  0.00     0.270 A 
HETATM    7  C   LIG     1      -2.351   0.067  -0.002  1.00  0.00     0.062 A 
HETATM    8  C   LIG     1       2.112  -0.693   0.155  1.00  0.00     0.101 A 
HETATM    9  N   LIG     1       0.964   1.384  -0.095  1.00  0.00    -0.345 N 
ATOM     10  HN  LIG     1       1.019   2.396  -0.207  1.00  0.00     0.167 HD
HETATM   11  C   LIG     1       2.134   0.646   0.007  1.00  0.00     0.012 A 
HETATM   12  O   LIG     1       0.721  -2.631   0.352  1.00  0.00    -0.266 OA
HETATM   13  C   LIG     1       3.432   1.402  -0.054  1.00  0.00     0.068 C 
ENDROOT
BRANCH   7  14
HETATM   14  C   LIG     1      -3.818  -0.018  -0.015  1.00  0.00    -0.008 A 
HETATM   15  C   LIG     1      -4.608   1.068  -0.420  1.00  0.00     0.014 A 
HETATM   16  C   LIG     1      -6.004   0.975  -0.424  1.00  0.00     0.001 A 
HETATM   17  C   LIG     1      -6.628  -0.205  -0.022  1.00  0.00     0.000 A 
HETATM   18  C   LIG     1      -5.858  -1.293   0.380  1.00  0.00     0.001 A 
HETATM   19  C   LIG     1      -4.464  -1.200   0.382  1.00  0.00     0.014 A 
ENDBRANCH   7  14
TORSDOF 1
