REMARK  3 active torsions:
REMARK  status: ('A' for Active; 'I' for Inactive)
REMARK    1  A    between atoms: C_1  and  C_2 
REMARK       I    between atoms: C_2  and  N_10 
REMARK    2  A    between atoms: C_7  and  N_9 
REMARK    3  A    between atoms: N_10  and  C_14 
ROOT
HETATM    1  C   LIG     1      -1.381  -8.126   0.359  1.00  0.00     0.036 A 
HETATM    2  C   LIG     1      -0.258  -7.882   1.179  1.00  0.00    -0.033 A 
HETATM    3  C   LIG     1      -1.970  -7.008  -0.257  1.00  0.00     0.032 A 
HETATM    4  C   LIG     1      -0.355  -5.485   0.717  1.00  0.00     0.035 A 
HETATM    5  C   LIG     1       0.251  -6.577   1.321  1.00  0.00     0.038 A 
HETATM    6  C   LIG     1      -1.475  -5.708  -0.080  1.00  0.00     0.032 A 
HETATM    7  C   LIG     1       0.439  -8.956   1.972  1.00  0.00     0.050 C 
ENDROOT
BRANCH   4   8
HETATM    8  N   LIG     1       0.096  -4.162   0.882  1.00  0.00    -0.323 N 
HETATM    9  C   LIG     1       1.166  -3.736   1.655  1.00  0.00     0.259 C 
HETATM   10  O   LIG     1       1.905  -4.429   2.335  1.00  0.00    -0.267 OA
ATOM     11  HN  LIG     1      -0.419  -3.439   0.379  1.00  0.00     0.169 HD
BRANCH   9  12
HETATM   12  C   LIG     1       1.345  -2.300   1.627  1.00  0.00     0.066 A 
HETATM   13  C   LIG     1       1.038  -1.413   0.608  1.00  0.00     0.128 A 
HETATM   14  N   LIG     1       1.420  -0.182   1.049  1.00  0.00    -0.307 N 
HETATM   15  N   LIG     1       1.935  -0.189   2.290  1.00  0.00    -0.309 N 
HETATM   16  C   LIG     1       1.296   1.058   0.324  1.00  0.00     0.177 C 
HETATM   17  C   LIG     1       1.914  -1.482   2.629  1.00  0.00     0.125 A 
ATOM     18  HN  LIG     1       2.264   0.603   2.842  1.00  0.00     0.186 HD
ENDBRANCH   9  12
ENDBRANCH   4   8
BRANCH   1  19
HETATM   19  N   LIG     1      -1.877  -9.413   0.180  1.00  0.00    -0.380 N 
HETATM   20  C   LIG     1      -3.300  -9.662  -0.081  1.00  0.00     0.123 C 
HETATM   21  C   LIG     1      -3.323 -11.060  -0.692  1.00  0.00     0.021 C 
HETATM   22  C   LIG     1      -2.045 -11.071  -1.512  1.00  0.00     0.021 C 
HETATM   23  C   LIG     1      -1.049 -10.343  -0.607  1.00  0.00     0.123 C 
ENDBRANCH   1  19
TORSDOF 3
