REMARK  1 active torsions:
REMARK  status: ('A' for Active; 'I' for Inactive)
REMARK       I    between atoms: C_1  and  N_2 
REMARK    1  A    between atoms: C_1  and  C_3 
ROOT
HETATM    1  C   LIG     1       0.859   0.569   0.481  1.00  0.00     0.257 C 
HETATM    2  N   LIG     1       0.105   0.129   1.568  1.00  0.00    -0.343 N 
HETATM    3  C   LIG     1       0.465  -0.199   3.921  1.00  0.00    -0.027 A 
HETATM    4  C   LIG     1       0.459  -1.567   3.704  1.00  0.00    -0.008 A 
HETATM    5  C   LIG     1      -0.017   0.776   2.882  1.00  0.00     0.165 C 
HETATM    6  S   LIG     1       1.026  -2.456   5.035  1.00  0.00    -0.106 SA
HETATM    7  C   LIG     1       0.065  -2.217   2.411  1.00  0.00     0.066 C 
HETATM    8  C   LIG     1      -0.571  -1.176   1.473  1.00  0.00     0.131 C 
HETATM    9  C   LIG     1       1.337  -1.024   5.919  1.00  0.00     0.051 A 
HETATM   10  C   LIG     1       0.992   0.110   5.213  1.00  0.00     0.017 A 
HETATM   11  O   LIG     1       0.929  -0.064  -0.571  1.00  0.00    -0.267 OA
ENDROOT
BRANCH   1  12
HETATM   12  C   LIG     1       1.537   1.883   0.496  1.00  0.00     0.070 A 
HETATM   13  C   LIG     1       2.452   2.264   1.473  1.00  0.00     0.132 A 
HETATM   14  F   LIG     1       2.788   1.434   2.471  1.00  0.00    -0.205 F 
HETATM   15  C   LIG     1       3.041   3.528   1.443  1.00  0.00     0.043 A 
HETATM   16  C   LIG     1       2.760   4.403   0.393  1.00  0.00     0.003 A 
HETATM   17  C   LIG     1       1.901   4.005  -0.631  1.00  0.00     0.001 A 
HETATM   18  C   LIG     1       1.292   2.749  -0.582  1.00  0.00     0.020 A 
ENDBRANCH   1  12
TORSDOF 1
