REMARK  3 active torsions:
REMARK  status: ('A' for Active; 'I' for Inactive)
REMARK    1  A    between atoms: C_1  and  C_5 
REMARK       I    between atoms: C_5  and  N_9 
REMARK    2  A    between atoms: C_7  and  C_18 
REMARK    3  A    between atoms: N_9  and  C_18 
ROOT
HETATM    1  C   LIG     1       1.637  -3.020   0.177  1.00  0.00     0.254 C 
HETATM    2  N   LIG     1       0.470  -3.545  -0.336  1.00  0.00    -0.356 N 
ATOM      3  HN  LIG     1      -0.156  -2.926  -0.851  1.00  0.00     0.162 HD
HETATM    4  O   LIG     1       2.448  -3.680   0.821  1.00  0.00    -0.268 OA
ENDROOT
BRANCH   2   5
HETATM    5  C   LIG     1       0.090  -4.933  -0.179  1.00  0.00     0.132 C 
BRANCH   5   6
HETATM    6  C   LIG     1       0.548  -5.837  -1.343  1.00  0.00    -0.023 C 
HETATM    7  C   LIG     1       0.075  -7.289  -1.067  1.00  0.00     0.015 C 
HETATM    8  C   LIG     1       0.516  -8.232  -2.199  1.00  0.00    -0.013 C 
HETATM    9  C   LIG     1      -0.095  -7.751  -3.525  1.00  0.00     0.009 C 
HETATM   10  C   LIG     1       2.048  -8.210  -2.309  1.00  0.00     0.009 C 
HETATM   11  C   LIG     1       0.374  -6.319  -3.832  1.00  0.00    -0.013 C 
HETATM   12  C   LIG     1      -0.068  -5.383  -2.692  1.00  0.00     0.015 C 
HETATM   13  C   LIG     1       1.908  -6.301  -3.936  1.00  0.00     0.009 C 
HETATM   14  C   LIG     1       2.532  -6.786  -2.617  1.00  0.00    -0.013 C 
HETATM   15  C   LIG     1       2.091  -5.848  -1.484  1.00  0.00     0.015 C 
ENDBRANCH   5   6
ENDBRANCH   2   5
BRANCH   1  16
HETATM   16  C   LIG     1       1.845  -1.612  -0.105  1.00  0.00     0.065 A 
HETATM   17  C   LIG     1       1.030  -0.726  -0.787  1.00  0.00     0.128 A 
HETATM   18  N   LIG     1       1.655   0.486  -0.743  1.00  0.00    -0.307 N 
HETATM   19  N   LIG     1       2.839   0.455  -0.112  1.00  0.00    -0.309 N 
HETATM   20  C   LIG     1       1.158   1.726  -1.287  1.00  0.00     0.177 C 
HETATM   21  C   LIG     1       2.951  -0.818   0.280  1.00  0.00     0.125 A 
ATOM     22  HN  LIG     1       3.497   1.221   0.034  1.00  0.00     0.186 HD
ENDBRANCH   1  16
TORSDOF 3
