REMARK  3 active torsions:
REMARK  status: ('A' for Active; 'I' for Inactive)
REMARK    1  A    between atoms: N_1  and  C_3 
REMARK    2  A    between atoms: C_3  and  C_5 
REMARK    3  A    between atoms: C_3  and  C_9 
REMARK       I    between atoms: C_5  and  N_10 
ROOT
HETATM    1  C   LIG     1      -2.285   2.110  -0.304  1.00  0.00     0.210 C 
ENDROOT
BRANCH   1   2
HETATM    2  N   LIG     1      -1.530   0.832  -0.328  1.00  0.00    -0.363 N 
HETATM    3  C   LIG     1      -1.939  -0.279  -1.075  1.00  0.00     0.037 A 
HETATM    4  C   LIG     1      -0.884  -1.171  -1.307  1.00  0.00    -0.030 A 
HETATM    5  C   LIG     1      -3.205  -0.606  -1.529  1.00  0.00     0.030 A 
HETATM    6  C   LIG     1       0.367  -0.636  -0.694  1.00  0.00     0.060 C 
HETATM    7  C   LIG     1      -1.057  -2.376  -1.972  1.00  0.00     0.009 A 
HETATM    8  C   LIG     1      -0.059   0.814  -0.397  1.00  0.00     0.129 C 
HETATM    9  C   LIG     1      -2.331  -2.690  -2.438  1.00  0.00     0.001 A 
HETATM   10  C   LIG     1      -3.398  -1.809  -2.221  1.00  0.00     0.002 A 
ENDBRANCH   1   2
BRANCH   1  11
HETATM   11  C   LIG     1      -2.090   2.837   1.061  1.00  0.00     0.242 C 
HETATM   12  O   LIG     1      -2.190   4.047   1.254  1.00  0.00    -0.271 OA
HETATM   13  N   LIG     1      -1.874   2.010   2.136  1.00  0.00    -0.368 N 
ATOM     14  HN2 LIG     1      -1.791   1.006   1.976  1.00  0.00     0.159 HD
ATOM     15  HN1 LIG     1      -1.746   2.486   3.029  1.00  0.00     0.159 HD
ENDBRANCH   1  11
BRANCH   1  16
HETATM   16  C   LIG     1      -2.021   2.996  -1.518  1.00  0.00    -0.026 A 
HETATM   17  C   LIG     1      -0.977   3.938  -1.549  1.00  0.00     0.010 A 
HETATM   18  C   LIG     1      -0.798   4.775  -2.653  1.00  0.00     0.001 A 
HETATM   19  C   LIG     1      -1.650   4.679  -3.750  1.00  0.00     0.000 A 
HETATM   20  C   LIG     1      -2.676   3.739  -3.748  1.00  0.00     0.001 A 
HETATM   21  C   LIG     1      -2.857   2.902  -2.645  1.00  0.00     0.010 A 
ENDBRANCH   1  16
TORSDOF 3
