REMARK  2 active torsions:
REMARK  status: ('A' for Active; 'I' for Inactive)
REMARK    1  A    between atoms: C_1  and  C_6 
REMARK    2  A    between atoms: N_4  and  C_12 
REMARK       I    between atoms: N_5  and  C_9 
ROOT
HETATM    1  C   LIG     1       1.956  -3.213  -1.275  1.00  0.00    -0.097 C 
HETATM    2  C   LIG     1       2.038  -3.701  -2.368  1.00  0.00     0.014 C 
HETATM    3  C   LIG     1       1.837  -2.615   0.064  1.00  0.00     0.223 C 
ENDROOT
BRANCH   3   4
HETATM    4  N   LIG     1       1.576  -1.185   0.000  1.00  0.00    -0.322 N 
HETATM    5  C   LIG     1       2.515  -0.169  -0.032  1.00  0.00     0.108 A 
HETATM    6  N   LIG     1       1.912   1.010  -0.041  1.00  0.00    -0.342 N 
HETATM    7  C   LIG     1       0.565   0.752  -0.005  1.00  0.00     0.060 A 
ATOM      8  HN  LIG     1       2.359   1.926  -0.069  1.00  0.00     0.167 HD
HETATM    9  C   LIG     1       0.319  -0.615  -0.000  1.00  0.00     0.063 A 
HETATM   10  C   LIG     1      -0.517   1.647   0.028  1.00  0.00     0.032 A 
HETATM   11  C   LIG     1      -0.978  -1.149   0.013  1.00  0.00     0.032 A 
HETATM   12  C   LIG     1      -2.044  -0.242   0.042  1.00  0.00     0.002 A 
HETATM   13  C   LIG     1      -1.820   1.135   0.056  1.00  0.00     0.002 A 
BRANCH   5  14
HETATM   14  C   LIG     1       4.007  -0.399  -0.041  1.00  0.00     0.155 C 
HETATM   15  N   LIG     1       4.605   0.217   1.139  1.00  0.00    -0.341 N 
HETATM   16  C   LIG     1       4.539  -0.378   2.375  1.00  0.00     0.216 C 
HETATM   17  C   LIG     1       5.351   1.418   0.799  1.00  0.00     0.127 C 
HETATM   18  O   LIG     1       3.982  -1.461   2.558  1.00  0.00    -0.274 OA
HETATM   19  C   LIG     1       5.184   0.368   3.516  1.00  0.00     0.117 C 
HETATM   20  C   LIG     1       5.061   1.675  -0.672  1.00  0.00     0.022 C 
HETATM   21  C   LIG     1       4.706   0.294  -1.212  1.00  0.00     0.035 C 
ENDBRANCH   5  14
ENDBRANCH   3   4
TORSDOF 2
