REMARK  3 active torsions:
REMARK  status: ('A' for Active; 'I' for Inactive)
REMARK    1  A    between atoms: N_1  and  C_3 
REMARK    2  A    between atoms: C_2  and  C_3 
REMARK       I    between atoms: C_2  and  N_8 
REMARK    3  A    between atoms: C_3  and  C_4 
ROOT
HETATM    1  C   LIG     1      -1.996   0.678  -1.112  1.00  0.00     0.346 C 
ENDROOT
BRANCH   1   2
HETATM    2  N   LIG     1      -0.835   0.476  -0.156  1.00  0.00     0.106 N 
HETATM    3  C   LIG     1       0.420   1.059  -0.653  1.00  0.00     0.274 C 
HETATM    4  C   LIG     1       1.465   1.216   0.459  1.00  0.00     0.030 C 
HETATM    5  C   LIG     1       2.417   0.031   0.581  1.00  0.00     0.002 C 
HETATM    6  C   LIG     1       1.754  -1.336   0.495  1.00  0.00     0.002 C 
HETATM    7  C   LIG     1       0.393  -1.387   1.182  1.00  0.00     0.030 C 
HETATM    8  C   LIG     1      -0.747  -0.936   0.259  1.00  0.00     0.274 C 
ENDBRANCH   1   2
BRANCH   1   9
HETATM    9  C   LIG     1      -2.347   2.201  -1.274  1.00  0.00     0.253 C 
HETATM   10  O   LIG     1      -2.847   2.714  -2.263  1.00  0.00    -0.271 OA
HETATM   11  N   LIG     1      -2.127   2.977  -0.161  1.00  0.00    -0.368 N 
ATOM     12  HN2 LIG     1      -1.709   2.549   0.665  1.00  0.00     0.159 HD
ATOM     13  HN1 LIG     1      -2.355   3.966  -0.266  1.00  0.00     0.159 HD
ENDBRANCH   1   9
BRANCH   1  14
HETATM   14  C   LIG     1      -1.905  -0.084  -2.445  1.00  0.00    -0.016 A 
HETATM   15  C   LIG     1      -1.393   0.497  -3.618  1.00  0.00     0.013 A 
HETATM   16  C   LIG     1      -1.352  -0.222  -4.818  1.00  0.00     0.043 A 
HETATM   17  C   LIG     1      -1.778  -1.543  -4.846  1.00  0.00     0.116 A 
HETATM   18  C   LIG     1      -2.266  -2.155  -3.701  1.00  0.00     0.043 A 
HETATM   19  F   LIG     1      -1.723  -2.234  -5.992  1.00  0.00    -0.206 F 
HETATM   20  C   LIG     1      -2.351  -1.423  -2.515  1.00  0.00     0.013 A 
ENDBRANCH   1  14
TORSDOF 3
