REMARK  2 active torsions:
REMARK  status: ('A' for Active; 'I' for Inactive)
REMARK    1  A    between atoms: C_1  and  C_2 
REMARK       I    between atoms: C_2  and  N_3 
REMARK    2  A    between atoms: N_7  and  C_9 
ROOT
HETATM    1  C   LIG     1       0.159  -2.222  -0.359  1.00  0.00     0.256 C 
HETATM    2  N   LIG     1       0.510  -3.545  -0.708  1.00  0.00    -0.345 N 
HETATM    3  N   LIG     1       1.819  -6.163  -0.941  1.00  0.00    -0.377 N 
HETATM    4  O   LIG     1       0.893  -1.272  -0.595  1.00  0.00    -0.267 OA
HETATM    5  C   LIG     1       1.837  -3.693  -1.325  1.00  0.00     0.146 C 
HETATM    6  C   LIG     1       0.099  -4.672   0.143  1.00  0.00     0.146 C 
HETATM    7  C   LIG     1       2.086  -5.086  -1.922  1.00  0.00     0.143 C 
HETATM    8  C   LIG     1       0.458  -6.071  -0.388  1.00  0.00     0.143 C 
ENDROOT
BRANCH   1   9
HETATM    9  C   LIG     1      -1.122  -2.014   0.306  1.00  0.00     0.066 A 
HETATM   10  C   LIG     1      -2.302  -2.722   0.170  1.00  0.00     0.128 A 
HETATM   11  N   LIG     1      -3.197  -2.168   1.032  1.00  0.00    -0.307 N 
HETATM   12  N   LIG     1      -2.725  -1.082   1.662  1.00  0.00    -0.309 N 
HETATM   13  C   LIG     1      -4.525  -2.656   1.308  1.00  0.00     0.177 C 
HETATM   14  C   LIG     1      -1.469  -0.980   1.211  1.00  0.00     0.125 A 
ATOM     15  HN  LIG     1      -3.208  -0.478   2.327  1.00  0.00     0.186 HD
ENDBRANCH   1   9
BRANCH   3  16
HETATM   16  C   LIG     1       2.880  -6.501  -0.087  1.00  0.00     0.036 A 
HETATM   17  C   LIG     1       3.994  -7.247  -0.558  1.00  0.00    -0.029 A 
HETATM   18  C   LIG     1       5.024  -7.631   0.348  1.00  0.00    -0.054 A 
HETATM   19  C   LIG     1       4.035  -7.775  -1.976  1.00  0.00     0.051 C 
HETATM   20  C   LIG     1       4.971  -7.224   1.687  1.00  0.00     0.007 A 
HETATM   21  C   LIG     1       6.198  -8.471  -0.081  1.00  0.00     0.049 C 
HETATM   22  C   LIG     1       3.894  -6.492   2.151  1.00  0.00     0.003 A 
HETATM   23  C   LIG     1       2.864  -6.154   1.278  1.00  0.00     0.030 A 
ENDBRANCH   3  16
TORSDOF 2
