REMARK  2 active torsions:
REMARK  status: ('A' for Active; 'I' for Inactive)
REMARK       I    between atoms: N_1  and  C_2 
REMARK    1  A    between atoms: C_2  and  C_6 
REMARK    2  A    between atoms: N_3  and  C_6 
ROOT
HETATM    1  N   LIG     1      -1.225   0.808  -0.428  1.00  0.00    -0.316 N 
HETATM    2  C   LIG     1      -1.191   2.225  -0.456  1.00  0.00     0.242 C 
HETATM    3  C   LIG     1      -0.030  -0.012  -0.422  1.00  0.00     0.043 A 
HETATM    4  C   LIG     1      -0.100  -1.352   0.033  1.00  0.00    -0.031 A 
HETATM    5  C   LIG     1       1.212   0.453  -0.870  1.00  0.00     0.031 A 
HETATM    6  O   LIG     1      -0.157   2.897  -0.428  1.00  0.00    -0.271 OA
HETATM    7  C   LIG     1       1.048  -2.168   0.036  1.00  0.00     0.016 A 
HETATM    8  C   LIG     1      -2.482   0.041  -0.356  1.00  0.00     0.132 C 
HETATM    9  C   LIG     1       2.350  -0.369  -0.863  1.00  0.00     0.009 A 
HETATM   10  C   LIG     1       2.278  -1.687  -0.412  1.00  0.00    -0.061 A 
HETATM   11  C   LIG     1      -1.383  -1.976   0.522  1.00  0.00     0.042 C 
HETATM   12  C   LIG     1      -2.447  -0.934   0.805  1.00  0.00     0.025 C 
HETATM   13  C   LIG     1       3.504  -2.547  -0.346  1.00  0.00     0.048 C 
ENDROOT
BRANCH   2  14
HETATM   14  C   LIG     1      -2.566   2.933  -0.529  1.00  0.00     0.234 C 
BRANCH  14  15
HETATM   15  N   LIG     1      -2.590   4.402  -0.511  1.00  0.00    -0.316 N 
HETATM   16  C   LIG     1      -3.223   5.044   0.554  1.00  0.00     0.247 A 
HETATM   17  C   LIG     1      -3.307   6.528   0.476  1.00  0.00     0.074 A 
HETATM   18  O   LIG     1      -3.740   4.472   1.514  1.00  0.00    -0.268 OA
HETATM   19  C   LIG     1      -2.791   7.178  -0.575  1.00  0.00     0.007 A 
HETATM   20  C   LIG     1      -2.135   6.449  -1.630  1.00  0.00     0.017 A 
HETATM   21  C   LIG     1      -2.054   5.113  -1.574  1.00  0.00     0.095 A 
ENDBRANCH  14  15
ENDBRANCH   2  14
TORSDOF 2
