REMARK  1 active torsions:
REMARK  status: ('A' for Active; 'I' for Inactive)
REMARK       I    between atoms: N_3  and  C_4 
REMARK       I    between atoms: C_4  and  N_10 
REMARK    1  A    between atoms: N_10  and  C_15 
ROOT
HETATM    1  C   LIG     1      -0.574  -0.040   0.013  1.00  0.00    -0.005 A 
HETATM    2  C   LIG     1      -0.998   1.276   0.025  1.00  0.00     0.020 A 
HETATM    3  N   LIG     1      -2.882  -0.744   0.309  1.00  0.00    -0.329 N 
HETATM    4  C   LIG     1      -3.801  -1.723   0.690  1.00  0.00     0.323 C 
HETATM    5  N   LIG     1       0.092   2.093  -0.005  1.00  0.00    -0.358 N 
ATOM      6  HN  LIG     1       0.063   3.113   0.002  1.00  0.00     0.166 HD
HETATM    7  C   LIG     1      -1.511  -1.207   0.027  1.00  0.00     0.169 C 
HETATM    8  C   LIG     1       0.850  -0.014  -0.031  1.00  0.00     0.000 A 
HETATM    9  C   LIG     1       1.239   1.330  -0.046  1.00  0.00     0.043 A 
HETATM   10  N   LIG     1      -4.952  -1.183   1.225  1.00  0.00    -0.309 N 
ATOM     11  HN  LIG     1      -4.990  -0.168   1.314  1.00  0.00     0.170 HD
HETATM   12  C   LIG     1      -2.417   1.708   0.081  1.00  0.00     0.077 C 
HETATM   13  C   LIG     1      -3.302   0.518  -0.339  1.00  0.00     0.134 C 
HETATM   14  O   LIG     1      -3.550  -2.917   0.630  1.00  0.00    -0.247 OA
HETATM   15  C   LIG     1       1.853  -1.002  -0.062  1.00  0.00     0.014 A 
HETATM   16  C   LIG     1       2.581   1.729  -0.093  1.00  0.00     0.030 A 
HETATM   17  C   LIG     1       3.198  -0.620  -0.108  1.00  0.00     0.001 A 
HETATM   18  C   LIG     1       3.553   0.727  -0.125  1.00  0.00     0.002 A 
ENDROOT
BRANCH  10  19
HETATM   19  C   LIG     1      -6.078  -1.907   1.659  1.00  0.00     0.036 A 
HETATM   20  C   LIG     1      -6.834  -1.380   2.711  1.00  0.00     0.029 A 
HETATM   21  C   LIG     1      -7.949  -2.059   3.198  1.00  0.00     0.002 A 
HETATM   22  C   LIG     1      -8.338  -3.260   2.607  1.00  0.00     0.000 A 
HETATM   23  C   LIG     1      -7.610  -3.778   1.536  1.00  0.00     0.002 A 
HETATM   24  C   LIG     1      -6.473  -3.107   1.066  1.00  0.00     0.029 A 
ENDBRANCH  10  19
TORSDOF 1
