REMARK  3 active torsions:
REMARK  status: ('A' for Active; 'I' for Inactive)
REMARK    1  A    between atoms: C_1  and  C_5 
REMARK    2  A    between atoms: N_4  and  C_14 
REMARK    3  A    between atoms: N_6  and  C_12 
ROOT
HETATM    1  C   LIG     1       2.299   0.026   0.203  1.00  0.00     0.091 A 
HETATM    2  N   LIG     1       1.601  -0.299   1.272  1.00  0.00    -0.344 N 
ATOM      3  HN  LIG     1       1.969  -0.547   2.190  1.00  0.00     0.167 HD
HETATM    4  N   LIG     1       1.455   0.368  -0.848  1.00  0.00    -0.330 N 
HETATM    5  C   LIG     1       0.155   0.154  -0.421  1.00  0.00     0.063 A 
HETATM    6  C   LIG     1       0.290  -0.239   0.908  1.00  0.00     0.060 A 
HETATM    7  C   LIG     1      -1.110   0.251  -1.022  1.00  0.00     0.032 A 
HETATM    8  C   LIG     1      -0.843  -0.530   1.682  1.00  0.00     0.032 A 
HETATM    9  C   LIG     1      -2.234  -0.033  -0.233  1.00  0.00     0.002 A 
HETATM   10  C   LIG     1      -2.106  -0.416   1.100  1.00  0.00     0.002 A 
ENDROOT
BRANCH   1  11
HETATM   11  C   LIG     1       3.795  -0.016   0.165  1.00  0.00     0.080 C 
HETATM   12  C   LIG     1       4.351  -1.124   1.064  1.00  0.00     0.139 C 
HETATM   13  N   LIG     1       5.648  -0.644   1.494  1.00  0.00    -0.343 N 
HETATM   14  C   LIG     1       5.755   0.733   1.296  1.00  0.00     0.221 C 
HETATM   15  C   LIG     1       4.444   1.238   0.733  1.00  0.00     0.117 C 
HETATM   16  O   LIG     1       6.700   1.447   1.569  1.00  0.00    -0.273 OA
BRANCH  13  17
HETATM   17  C   LIG     1       6.620  -1.477   2.252  1.00  0.00     0.024 C 
HETATM   18  C   LIG     1       6.931  -0.844   3.625  1.00  0.00     0.037 C 
HETATM   19  C   LIG     1       6.078  -2.900   2.521  1.00  0.00     0.037 C 
HETATM   20  C   LIG     1       7.928  -1.615   1.455  1.00  0.00     0.037 C 
ENDBRANCH  13  17
ENDBRANCH   1  11
BRANCH   4  21
HETATM   21  C   LIG     1       1.892   0.813  -2.172  1.00  0.00     0.083 C 
HETATM   22  C   LIG     1       1.948  -0.357  -3.153  1.00  0.00     0.032 C 
HETATM   23  C   LIG     1       1.101   1.989  -2.755  1.00  0.00     0.032 C 
ENDBRANCH   4  21
TORSDOF 3
