REMARK  2 active torsions:
REMARK  status: ('A' for Active; 'I' for Inactive)
REMARK    1  A    between atoms: C_1  and  C_2 
REMARK       I    between atoms: C_2  and  N_3 
REMARK    2  A    between atoms: C_5  and  C_8 
ROOT
HETATM    1  C   LIG     1       0.215   0.224   0.138  1.00  0.00     0.143 A 
HETATM    2  O   LIG     1      -0.007   1.394  -0.537  1.00  0.00    -0.304 OA
HETATM    3  C   LIG     1      -1.231   1.871  -0.171  1.00  0.00     0.086 A 
HETATM    4  C   LIG     1      -0.845  -0.003   0.996  1.00  0.00     0.046 A 
HETATM    5  C   LIG     1      -1.785   1.035   0.776  1.00  0.00     0.041 A 
ENDROOT
BRANCH   1   6
HETATM    6  C   LIG     1       1.454  -0.514  -0.045  1.00  0.00     0.277 C 
HETATM    7  N   LIG     1       2.118  -0.454  -1.280  1.00  0.00    -0.342 N 
HETATM    8  C   LIG     1       1.648   0.295  -2.452  1.00  0.00     0.157 C 
HETATM    9  C   LIG     1       3.540  -0.795  -1.300  1.00  0.00     0.152 C 
HETATM   10  C   LIG     1       2.194  -0.258  -3.782  1.00  0.00     0.135 C 
HETATM   11  O   LIG     1       3.611  -0.482  -3.729  1.00  0.00    -0.383 OA
HETATM   12  C   LIG     1       1.447  -1.509  -4.244  1.00  0.00     0.041 C 
HETATM   13  C   LIG     1       3.992  -1.345  -2.651  1.00  0.00     0.188 C 
HETATM   14  O   LIG     1       1.913  -1.201   0.872  1.00  0.00    -0.265 OA
ENDBRANCH   1   6
BRANCH   3  15
HETATM   15  C   LIG     1      -1.664   3.084  -0.852  1.00  0.00    -0.002 A 
HETATM   16  C   LIG     1      -3.029   3.336  -1.063  1.00  0.00     0.017 A 
HETATM   17  C   LIG     1      -3.443   4.488  -1.738  1.00  0.00     0.043 A 
HETATM   18  C   LIG     1      -2.495   5.396  -2.193  1.00  0.00     0.116 A 
HETATM   19  C   LIG     1      -1.140   5.174  -1.987  1.00  0.00     0.043 A 
HETATM   20  F   LIG     1      -2.893   6.499  -2.838  1.00  0.00    -0.206 F 
HETATM   21  C   LIG     1      -0.725   4.019  -1.320  1.00  0.00     0.017 A 
ENDBRANCH   3  15
TORSDOF 2
