REMARK  3 active torsions:
REMARK  status: ('A' for Active; 'I' for Inactive)
REMARK    1  A    between atoms: N_1  and  C_12 
REMARK    2  A    between atoms: C_4  and  C_11 
REMARK    3  A    between atoms: N_6  and  C_11 
ROOT
HETATM    1  N   LIG     1      -0.947   2.137   0.303  1.00  0.00    -0.268 N 
HETATM    2  N   LIG     1       0.139   2.366  -0.482  1.00  0.00    -0.305 N 
ATOM      3  HN  LIG     1       0.537   3.266  -0.749  1.00  0.00     0.186 HD
HETATM    4  C   LIG     1      -0.244   0.118  -0.318  1.00  0.00     0.004 A 
HETATM    5  C   LIG     1      -1.200   0.788   0.415  1.00  0.00     0.127 A 
HETATM    6  C   LIG     1       0.568   1.152  -0.824  1.00  0.00     0.118 A 
ENDROOT
BRANCH   4   7
HETATM    7  C   LIG     1      -0.081  -1.349  -0.513  1.00  0.00     0.314 C 
BRANCH   7   8
HETATM    8  N   LIG     1      -1.273  -1.947  -1.145  1.00  0.00     0.103 N 
HETATM    9  C   LIG     1      -1.065  -3.411  -1.305  1.00  0.00     0.375 C 
HETATM   10  C   LIG     1      -0.037  -3.771  -2.391  1.00  0.00     0.246 C 
HETATM   11  N   LIG     1       0.032  -2.953  -3.494  1.00  0.00    -0.358 N 
HETATM   12  O   LIG     1       0.653  -4.783  -2.336  1.00  0.00    -0.272 OA
HETATM   13  C   LIG     1      -0.506  -1.609  -3.515  1.00  0.00     0.152 C 
ATOM     14  HN  LIG     1       0.483  -3.310  -4.336  1.00  0.00     0.162 HD
HETATM   15  C   LIG     1      -1.610  -1.392  -2.472  1.00  0.00     0.293 C 
ENDBRANCH   7   8
ENDBRANCH   4   7
BRANCH   1  16
HETATM   16  C   LIG     1      -1.669   3.208   0.898  1.00  0.00     0.055 A 
HETATM   17  C   LIG     1      -1.293   4.534   0.638  1.00  0.00     0.031 A 
HETATM   18  C   LIG     1      -2.003   5.588   1.216  1.00  0.00     0.002 A 
HETATM   19  C   LIG     1      -3.083   5.327   2.059  1.00  0.00     0.000 A 
HETATM   20  C   LIG     1      -3.456   4.011   2.326  1.00  0.00     0.002 A 
HETATM   21  C   LIG     1      -2.755   2.953   1.747  1.00  0.00     0.031 A 
ENDBRANCH   1  16
TORSDOF 3
