REMARK  2 active torsions:
REMARK  status: ('A' for Active; 'I' for Inactive)
REMARK    1  A    between atoms: C_1  and  C_3 
REMARK       I    between atoms: C_3  and  N_5 
REMARK    2  A    between atoms: C_4  and  C_8 
ROOT
HETATM    1  C   LIG     1      -0.383  -0.705  -0.018  1.00  0.00     0.143 A 
HETATM    2  O   LIG     1       0.908  -0.259   0.043  1.00  0.00    -0.304 OA
HETATM    3  C   LIG     1       0.894   1.107   0.048  1.00  0.00     0.086 A 
HETATM    4  C   LIG     1      -1.232   0.388  -0.004  1.00  0.00     0.046 A 
HETATM    5  C   LIG     1      -0.415   1.545   0.021  1.00  0.00     0.041 A 
ENDROOT
BRANCH   1   6
HETATM    6  C   LIG     1      -0.691  -2.127   0.008  1.00  0.00     0.277 C 
HETATM    7  N   LIG     1       0.261  -3.060  -0.433  1.00  0.00    -0.342 N 
HETATM    8  C   LIG     1       1.590  -2.723  -0.955  1.00  0.00     0.152 C 
HETATM    9  C   LIG     1       0.115  -4.440   0.036  1.00  0.00     0.152 C 
HETATM   10  C   LIG     1       2.166  -3.829  -1.846  1.00  0.00     0.187 C 
HETATM   11  O   LIG     1       2.113  -5.106  -1.200  1.00  0.00    -0.388 OA
HETATM   12  C   LIG     1       0.751  -5.452  -0.917  1.00  0.00     0.187 C 
HETATM   13  O   LIG     1      -1.790  -2.516   0.411  1.00  0.00    -0.265 OA
ENDBRANCH   1   6
BRANCH   3  14
HETATM   14  C   LIG     1       2.202   1.760   0.080  1.00  0.00    -0.002 A 
HETATM   15  C   LIG     1       3.390   1.010   0.132  1.00  0.00     0.016 A 
HETATM   16  C   LIG     1       4.641   1.636   0.150  1.00  0.00     0.024 A 
HETATM   17  C   LIG     1       4.718   3.025   0.118  1.00  0.00     0.034 A 
HETATM   18  C   LIG     1       3.555   3.790   0.071  1.00  0.00     0.024 A 
HETATM   19 CL   LIG     1       6.253   3.799   0.137  1.00  0.00    -0.084 Cl
HETATM   20  C   LIG     1       2.305   3.160   0.052  1.00  0.00     0.016 A 
ENDBRANCH   3  14
TORSDOF 2
