REMARK  1 active torsions:
REMARK  status: ('A' for Active; 'I' for Inactive)
REMARK    1  A    between atoms: C_7  and  C_8 
REMARK       I    between atoms: C_7  and  N_11 
ROOT
HETATM    1  C   LIG     1      -1.237   0.019  -0.075  1.00  0.00    -0.023 A 
HETATM    2  C   LIG     1      -1.686   1.319  -0.003  1.00  0.00     0.017 A 
HETATM    3  C   LIG     1       0.180   0.062  -0.105  1.00  0.00    -0.000 A 
HETATM    4  N   LIG     1      -0.600   2.150   0.032  1.00  0.00    -0.358 N 
ATOM      5  HN  LIG     1      -0.641   3.168   0.087  1.00  0.00     0.166 HD
HETATM    6  C   LIG     1       0.559   1.403  -0.018  1.00  0.00     0.043 A 
HETATM    7  C   LIG     1       2.517  -0.558  -0.041  1.00  0.00     0.033 C 
HETATM    8  C   LIG     1       1.175  -0.925  -0.183  1.00  0.00     0.031 C 
HETATM    9  C   LIG     1      -2.150  -1.161  -0.119  1.00  0.00     0.045 C 
HETATM   10  C   LIG     1      -3.108   1.749   0.061  1.00  0.00     0.058 C 
HETATM   11  C   LIG     1       1.902   1.803  -0.003  1.00  0.00     0.031 C 
HETATM   12  C   LIG     1       2.875   0.795  -0.003  1.00  0.00     0.019 C 
HETATM   13  C   LIG     1      -3.596  -0.786   0.285  1.00  0.00    -0.014 C 
HETATM   14  C   LIG     1      -4.020   0.570  -0.336  1.00  0.00     0.010 C 
HETATM   15  C   LIG     1      -3.771  -0.788   1.807  1.00  0.00     0.010 C 
ENDROOT
BRANCH   7  16
HETATM   16  C   LIG     1       3.583  -1.593   0.018  1.00  0.00     0.253 C 
HETATM   17  N   LIG     1       3.379  -2.763   0.770  1.00  0.00    -0.357 N 
HETATM   18  C   LIG     1       4.444  -3.754   0.760  1.00  0.00     0.152 C 
HETATM   19  C   LIG     1       2.443  -2.889   1.884  1.00  0.00     0.152 C 
HETATM   20  O   LIG     1       4.615  -1.372  -0.604  1.00  0.00    -0.267 OA
ENDBRANCH   7  16
TORSDOF 1
