REMARK  3 active torsions:
REMARK  status: ('A' for Active; 'I' for Inactive)
REMARK    1  A    between atoms: C_1  and  C_2 
REMARK       I    between atoms: C_2  and  N_3 
REMARK    2  A    between atoms: N_3  and  C_6 
REMARK    3  A    between atoms: C_5  and  C_6 
ROOT
HETATM    1  C   LIG     1      -3.040  -0.465  -0.562  1.00  0.00     0.277 C 
HETATM    2  N   LIG     1      -3.924   0.404   0.036  1.00  0.00    -0.347 N 
ATOM      3  HN  LIG     1      -3.557   1.267   0.438  1.00  0.00     0.163 HD
HETATM    4  O   LIG     1      -3.368  -1.510  -1.112  1.00  0.00    -0.265 OA
ENDROOT
BRANCH   2   5
HETATM    5  C   LIG     1      -5.356   0.155   0.124  1.00  0.00     0.114 C 
HETATM    6  C   LIG     1      -6.022   0.065  -1.259  1.00  0.00     0.037 C 
BRANCH   5   7
HETATM    7  C   LIG     1      -6.033   1.240   0.961  1.00  0.00    -0.029 A 
HETATM    8  C   LIG     1      -6.724   0.959   2.159  1.00  0.00    -0.054 A 
HETATM    9  C   LIG     1      -7.339   2.011   2.862  1.00  0.00     0.008 A 
HETATM   10  C   LIG     1      -6.818  -0.429   2.732  1.00  0.00     0.049 C 
HETATM   11  C   LIG     1      -7.287   3.323   2.391  1.00  0.00     0.007 A 
HETATM   12  C   LIG     1      -6.605   3.620   1.213  1.00  0.00    -0.061 A 
HETATM   13  C   LIG     1      -5.987   2.579   0.508  1.00  0.00     0.016 A 
HETATM   14  C   LIG     1      -6.580   5.027   0.693  1.00  0.00     0.048 C 
ENDBRANCH   5   7
ENDBRANCH   2   5
BRANCH   1  15
HETATM   15  C   LIG     1      -1.610  -0.016  -0.473  1.00  0.00     0.158 C 
HETATM   16  O   LIG     1      -1.323   1.170   0.193  1.00  0.00    -0.342 OA
HETATM   17  C   LIG     1       0.076   1.251   0.511  1.00  0.00     0.202 C 
HETATM   18  C   LIG     1       0.931   0.879  -0.693  1.00  0.00     0.201 C 
HETATM   19  O   LIG     1       0.681  -0.478  -1.089  1.00  0.00    -0.358 OA
HETATM   20  C   LIG     1      -0.658  -0.783  -1.039  1.00  0.00     0.177 C 
ENDBRANCH   1  15
TORSDOF 3
