REMARK  2 active torsions:
REMARK  status: ('A' for Active; 'I' for Inactive)
REMARK    1  A    between atoms: C_1  and  C_2 
REMARK       I    between atoms: C_2  and  N_5 
REMARK    2  A    between atoms: N_5  and  C_10 
ROOT
HETATM    1  C   LIG     1      -4.327   0.309   2.384  1.00  0.00     0.060 A 
HETATM    2  C   LIG     1      -5.462   0.272   3.183  1.00  0.00     0.106 A 
HETATM    3  C   LIG     1      -3.298   0.889   3.215  1.00  0.00     0.008 A 
HETATM    4  N   LIG     1      -5.200   0.900   4.369  1.00  0.00    -0.364 N 
ATOM      5  HN  LIG     1      -5.892   1.100   5.091  1.00  0.00     0.165 HD
HETATM    6  C   LIG     1      -3.871   1.221   4.445  1.00  0.00     0.043 A 
HETATM    7  C   LIG     1      -1.922   1.151   3.039  1.00  0.00     0.015 A 
HETATM    8  C   LIG     1      -3.144   1.766   5.510  1.00  0.00     0.030 A 
HETATM    9  C   LIG     1      -1.174   1.683   4.099  1.00  0.00     0.001 A 
HETATM   10  C   LIG     1      -1.777   1.976   5.319  1.00  0.00     0.002 A 
ENDROOT
BRANCH   1  11
HETATM   11  C   LIG     1      -4.162  -0.217   1.012  1.00  0.00     0.260 C 
HETATM   12  N   LIG     1      -5.270  -0.332   0.152  1.00  0.00    -0.318 N 
HETATM   13  C   LIG     1      -5.102  -1.031  -1.119  1.00  0.00     0.159 C 
HETATM   14  O   LIG     1      -3.046  -0.609   0.639  1.00  0.00    -0.267 OA
BRANCH  12  15
HETATM   15  C   LIG     1      -6.545   0.233   0.378  1.00  0.00     0.037 A 
HETATM   16  C   LIG     1      -7.675  -0.591   0.313  1.00  0.00     0.029 A 
HETATM   17  C   LIG     1      -8.937  -0.067   0.582  1.00  0.00     0.002 A 
HETATM   18  C   LIG     1      -9.076   1.286   0.888  1.00  0.00     0.000 A 
HETATM   19  C   LIG     1      -7.955   2.116   0.931  1.00  0.00     0.002 A 
HETATM   20  C   LIG     1      -6.688   1.592   0.675  1.00  0.00     0.029 A 
ENDBRANCH  12  15
ENDBRANCH   1  11
TORSDOF 2
