REMARK  2 active torsions:
REMARK  status: ('A' for Active; 'I' for Inactive)
REMARK       I    between atoms: C_1  and  N_2 
REMARK    1  A    between atoms: C_1  and  C_3 
REMARK    2  A    between atoms: C_12  and  O_15 
ROOT
HETATM    1  C   LIG     1      -0.498   0.049   0.072  1.00  0.00     0.256 C 
HETATM    2  N   LIG     1      -0.871   1.372  -0.196  1.00  0.00    -0.343 N 
HETATM    3  C   LIG     1      -0.123   3.480  -1.148  1.00  0.00    -0.027 A 
HETATM    4  C   LIG     1      -0.767   4.150  -0.126  1.00  0.00    -0.008 A 
HETATM    5  C   LIG     1      -0.324   2.013  -1.405  1.00  0.00     0.165 C 
HETATM    6  S   LIG     1      -0.333   5.790  -0.027  1.00  0.00    -0.106 SA
HETATM    7  C   LIG     1      -1.692   3.498   0.852  1.00  0.00     0.066 C 
HETATM    8  C   LIG     1      -2.021   2.063   0.405  1.00  0.00     0.131 C 
HETATM    9  C   LIG     1       0.732   5.639  -1.360  1.00  0.00     0.051 A 
HETATM   10  C   LIG     1       0.732   4.361  -1.880  1.00  0.00     0.017 A 
HETATM   11  O   LIG     1       0.257  -0.577  -0.662  1.00  0.00    -0.267 OA
ENDROOT
BRANCH   1  12
HETATM   12  C   LIG     1      -1.090  -0.685   1.240  1.00  0.00     0.065 A 
HETATM   13  C   LIG     1      -1.207  -0.167   2.546  1.00  0.00     0.084 A 
HETATM   14  C   LIG     1      -1.889  -0.911   3.520  1.00  0.00     0.038 A 
HETATM   15  C   LIG     1      -2.346  -2.200   3.245  1.00  0.00     0.003 A 
HETATM   16  C   LIG     1      -2.133  -2.758   1.990  1.00  0.00     0.001 A 
HETATM   17  C   LIG     1      -1.523  -2.000   0.990  1.00  0.00     0.020 A 
BRANCH  13  18
HETATM   18  O   LIG     1      -0.680   1.073   2.800  1.00  0.00    -0.355 OA
HETATM   19  C   LIG     1      -0.364   1.372   4.155  1.00  0.00     0.210 C 
ENDBRANCH  13  18
ENDBRANCH   1  12
TORSDOF 2
