REMARK  2 active torsions:
REMARK  status: ('A' for Active; 'I' for Inactive)
REMARK    1  A    between atoms: C_5  and  C_9 
REMARK    2  A    between atoms: C_9  and  C_10 
ROOT
HETATM    1  N   LIG     1      -0.566  -4.642  -1.796  1.00  0.00    -0.074 N 
ATOM      2  HN1 LIG     1      -0.798  -5.519  -2.263  1.00  0.00     0.277 HD
ATOM      3  HN2 LIG     1      -0.991  -4.994  -0.938  1.00  0.00     0.277 HD
HETATM    4  C   LIG     1       0.265  -2.705  -1.767  1.00  0.00     0.041 C 
HETATM    5  C   LIG     1       0.824  -4.146  -1.790  1.00  0.00     0.238 C 
HETATM    6  C   LIG     1      -1.004  -3.352  -2.371  1.00  0.00     0.238 C 
ENDROOT
BRANCH   4   7
HETATM    7  C   LIG     1       0.136  -2.083  -0.377  1.00  0.00     0.047 C 
BRANCH   7   8
HETATM    8  C   LIG     1      -0.418  -0.689  -0.454  1.00  0.00    -0.051 A 
HETATM    9  C   LIG     1       0.348   0.455  -0.585  1.00  0.00     0.056 A 
HETATM   10  S   LIG     1      -0.591   1.883  -0.643  1.00  0.00    -0.113 SA
HETATM   11  C   LIG     1      -2.042   0.997  -0.485  1.00  0.00     0.050 A 
HETATM   12  C   LIG     1      -1.812  -0.359  -0.391  1.00  0.00     0.014 A 
ENDBRANCH   7   8
ENDBRANCH   4   7
TORSDOF 2
