REMARK  2 active torsions:
REMARK  status: ('A' for Active; 'I' for Inactive)
REMARK    1  A    between atoms: C_9  and  C_13 
REMARK    2  A    between atoms: O_11  and  C_13 
ROOT
HETATM    1  C   LIG     1      -0.421   0.580   0.012  1.00  0.00     0.122 A 
HETATM    2  C   LIG     1      -0.149  -0.769   0.017  1.00  0.00     0.107 A 
HETATM    3  C   LIG     1       0.600   1.508  -0.008  1.00  0.00     0.047 A 
HETATM    4  O   LIG     1      -1.759   0.829   0.033  1.00  0.00    -0.322 OA
HETATM    5  O   LIG     1      -1.277  -1.529   0.044  1.00  0.00    -0.323 OA
HETATM    6  C   LIG     1       1.141  -1.260   0.000  1.00  0.00     0.049 A 
HETATM    7  C   LIG     1       1.920   1.045  -0.025  1.00  0.00     0.031 A 
HETATM    8  C   LIG     1      -2.295  -0.508   0.049  1.00  0.00     0.352 A 
HETATM    9  C   LIG     1       2.200  -0.341  -0.030  1.00  0.00    -0.031 A 
HETATM   10 BR   LIG     1       0.252   3.362  -0.006  1.00  0.00    -0.048 Br
ENDROOT
BRANCH   9  11
HETATM   11  C   LIG     1       3.628  -0.818  -0.024  1.00  0.00     0.203 C 
BRANCH  11  12
HETATM   12  O   LIG     1       4.181  -0.712   1.280  1.00  0.00    -0.396 OA
ATOM     13  HO  LIG     1       5.082  -1.013   1.284  1.00  0.00     0.209 HD
ENDBRANCH  11  12
ENDBRANCH   9  11
TORSDOF 2
