REMARK  2 active torsions:
REMARK  status: ('A' for Active; 'I' for Inactive)
REMARK    1  A    between atoms: C_2  and  C_6 
REMARK       I    between atoms: C_6  and  N_10 
REMARK    2  A    between atoms: C_15  and  O_17 
ROOT
HETATM    1  C   LIG     1      -0.606  -0.034   0.136  1.00  0.00     0.023 A 
HETATM    2  C   LIG     1      -3.041  -0.463  -0.056  1.00  0.00     0.074 A 
HETATM    3  S   LIG     1      -1.597  -1.401  -0.054  1.00  0.00    -0.084 SA
HETATM    4  C   LIG     1      -1.349   1.127   0.236  1.00  0.00    -0.038 A 
HETATM    5  C   LIG     1      -2.747   0.883   0.083  1.00  0.00     0.033 A 
HETATM    6  C   LIG     1       0.865  -0.050   0.136  1.00  0.00    -0.012 A 
HETATM    7  C   LIG     1       1.523   1.196   0.003  1.00  0.00    -0.044 A 
HETATM    8  C   LIG     1       1.634  -1.215   0.241  1.00  0.00     0.016 A 
HETATM    9  C   LIG     1      -0.672   2.445   0.453  1.00  0.00     0.044 C 
HETATM   10  C   LIG     1       2.923   1.239  -0.061  1.00  0.00     0.044 A 
HETATM   11  C   LIG     1       0.724   2.474  -0.194  1.00  0.00     0.044 C 
HETATM   12  C   LIG     1       3.678   0.067   0.007  1.00  0.00     0.068 A 
HETATM   13  C   LIG     1       3.032  -1.157   0.177  1.00  0.00     0.037 A 
ENDROOT
BRANCH   2  14
HETATM   14  C   LIG     1      -4.310  -1.152  -0.280  1.00  0.00     0.260 C 
HETATM   15  N   LIG     1      -5.480  -0.678   0.338  1.00  0.00    -0.356 N 
HETATM   16  C   LIG     1      -5.555   0.394   1.316  1.00  0.00     0.152 C 
HETATM   17  C   LIG     1      -6.742  -1.214  -0.147  1.00  0.00     0.152 C 
HETATM   18  O   LIG     1      -4.382  -2.135  -1.025  1.00  0.00    -0.267 OA
ENDBRANCH   2  14
BRANCH  12  19
HETATM   19  O   LIG     1       5.031   0.244  -0.089  1.00  0.00    -0.356 OA
HETATM   20  C   LIG     1       5.775  -0.883  -0.538  1.00  0.00     0.210 C 
ENDBRANCH  12  19
TORSDOF 2
