REMARK  0 active torsions:
REMARK  status: ('A' for Active; 'I' for Inactive)
ROOT
HETATM    1  N   LIG     1      -0.301  -0.614  -0.001  1.00  0.00    -0.204 N 
HETATM    2  C   LIG     1      -0.268   0.768   0.000  1.00  0.00     0.132 A 
HETATM    3  C   LIG     1       0.841  -1.433  -0.001  1.00  0.00     0.270 A 
HETATM    4  N   LIG     1      -1.575  -1.091  -0.002  1.00  0.00    -0.294 N 
ATOM      5  HN  LIG     1      -1.880  -2.064  -0.004  1.00  0.00     0.187 HD
HETATM    6  C   LIG     1      -1.567   1.200  -0.000  1.00  0.00     0.076 A 
HETATM    7  C   LIG     1       2.125  -0.676   0.002  1.00  0.00     0.101 A 
HETATM    8  N   LIG     1       0.932   1.391   0.002  1.00  0.00    -0.345 N 
ATOM      9  HN  LIG     1       0.966   2.410   0.002  1.00  0.00     0.167 HD
HETATM   10  C   LIG     1       2.118   0.672   0.004  1.00  0.00     0.012 A 
HETATM   11  C   LIG     1      -2.338   0.011  -0.000  1.00  0.00     0.026 A 
HETATM   12  O   LIG     1       0.779  -2.656  -0.003  1.00  0.00    -0.266 OA
HETATM   13  C   LIG     1       3.398   1.461   0.010  1.00  0.00     0.068 C 
HETATM   14  C   LIG     1      -3.818  -0.098   0.001  1.00  0.00     0.070 C 
ENDROOT
TORSDOF 0
