REMARK  1 active torsions:
REMARK  status: ('A' for Active; 'I' for Inactive)
REMARK       I    between atoms: N_1  and  C_2 
REMARK       I    between atoms: C_2  and  N_6 
REMARK    1  A    between atoms: N_6  and  C_14 
ROOT
HETATM    1  N   LIG     1       1.815   0.694  -0.087  1.00  0.00    -0.323 N 
HETATM    2  C   LIG     1       2.333   1.199   1.103  1.00  0.00     0.323 C 
HETATM    3  C   LIG     1      -0.584   0.339  -0.267  1.00  0.00     0.034 A 
HETATM    4  C   LIG     1       0.558   1.260  -0.634  1.00  0.00     0.135 C 
HETATM    5  N   LIG     1      -0.364  -0.996  -0.004  1.00  0.00    -0.357 N 
HETATM    6  N   LIG     1       3.472   0.565   1.582  1.00  0.00    -0.309 N 
ATOM      7  HN  LIG     1       3.863  -0.186   1.013  1.00  0.00     0.170 HD
HETATM    8  C   LIG     1       2.023  -0.691  -0.515  1.00  0.00     0.148 C 
HETATM    9  C   LIG     1      -1.952   0.538  -0.191  1.00  0.00     0.028 A 
HETATM   10  O   LIG     1       1.792   2.136   1.663  1.00  0.00    -0.247 OA
HETATM   11  C   LIG     1      -1.551  -1.649   0.173  1.00  0.00     0.091 A 
HETATM   12  C   LIG     1       0.956  -1.597   0.098  1.00  0.00     0.148 C 
HETATM   13  C   LIG     1      -2.559  -0.716   0.071  1.00  0.00     0.019 A 
HETATM   14  C   LIG     1       0.251   2.744  -0.412  1.00  0.00     0.039 C 
ENDROOT
BRANCH   6  15
HETATM   15  C   LIG     1       4.138   0.873   2.796  1.00  0.00     0.036 A 
HETATM   16  C   LIG     1       3.742   1.941   3.603  1.00  0.00     0.029 A 
HETATM   17  C   LIG     1       4.425   2.273   4.766  1.00  0.00     0.002 A 
HETATM   18  C   LIG     1       5.512   1.512   5.166  1.00  0.00     0.000 A 
HETATM   19  C   LIG     1       5.912   0.421   4.396  1.00  0.00     0.002 A 
HETATM   20  C   LIG     1       5.238   0.105   3.205  1.00  0.00     0.029 A 
ENDBRANCH   6  15
TORSDOF 1
