REMARK  3 active torsions:
REMARK  status: ('A' for Active; 'I' for Inactive)
REMARK    1  A    between atoms: C_1  and  C_3 
REMARK    2  A    between atoms: C_2  and  N_4 
REMARK       I    between atoms: C_3  and  N_5 
REMARK    3  A    between atoms: N_5  and  C_11 
ROOT
HETATM    1  C   LIG     1      -0.232  -1.060   0.810  1.00  0.00     0.070 A 
HETATM    2  C   LIG     1       0.815  -1.328  -0.089  1.00  0.00     0.098 A 
HETATM    3  N   LIG     1       1.769  -0.399  -0.352  1.00  0.00    -0.356 N 
ATOM      4  HN  LIG     1       2.518  -0.596  -1.016  1.00  0.00     0.166 HD
HETATM    5  C   LIG     1      -0.246   0.175   1.479  1.00  0.00     0.022 A 
HETATM    6  C   LIG     1       1.708   0.792   0.283  1.00  0.00     0.089 A 
HETATM    7  C   LIG     1       0.738   1.120   1.208  1.00  0.00     0.018 A 
ENDROOT
BRANCH   1   8
HETATM    8  C   LIG     1      -1.382  -1.985   1.050  1.00  0.00     0.255 C 
HETATM    9  N   LIG     1      -1.735  -2.803  -0.005  1.00  0.00    -0.352 N 
ATOM     10  HN  LIG     1      -1.208  -2.730  -0.876  1.00  0.00     0.163 HD
HETATM   11  O   LIG     1      -1.991  -1.950   2.112  1.00  0.00    -0.268 OA
BRANCH   9  12
HETATM   12  C   LIG     1      -2.817  -3.758   0.069  1.00  0.00     0.084 C 
HETATM   13  C   LIG     1      -2.361  -5.131   0.572  1.00  0.00     0.025 C 
HETATM   14  C   LIG     1      -3.175  -6.164  -0.211  1.00  0.00     0.002 C 
HETATM   15  C   LIG     1      -4.157  -5.367  -1.060  1.00  0.00     0.002 C 
HETATM   16  C   LIG     1      -3.436  -4.050  -1.297  1.00  0.00     0.025 C 
ENDBRANCH   9  12
ENDBRANCH   1   8
BRANCH   2  17
HETATM   17  N   LIG     1       0.944  -2.598  -0.691  1.00  0.00    -0.269 NA
HETATM   18  C   LIG     1       1.601  -2.602  -2.009  1.00  0.00     0.097 C 
HETATM   19  C   LIG     1       2.267  -3.970  -2.068  1.00  0.00     0.016 C 
HETATM   20  C   LIG     1       2.801  -4.112  -0.656  1.00  0.00     0.016 C 
HETATM   21  C   LIG     1       1.675  -3.531   0.200  1.00  0.00     0.097 C 
ENDBRANCH   2  17
TORSDOF 3
