REMARK  3 active torsions:
REMARK  status: ('A' for Active; 'I' for Inactive)
REMARK    1  A    between atoms: N_3  and  C_13 
REMARK    2  A    between atoms: C_8  and  C_12 
REMARK    3  A    between atoms: C_10  and  C_17 
REMARK       I    between atoms: C_12  and  N_15 
ROOT
HETATM    1  C   LIG     1      -0.253  -0.705  -0.121  1.00  0.00     0.135 A 
HETATM    2  C   LIG     1      -0.435   0.666  -0.248  1.00  0.00     0.042 A 
HETATM    3  N   LIG     1      -1.508  -1.261  -0.178  1.00  0.00    -0.272 N 
HETATM    4  N   LIG     1      -2.488  -0.346  -0.379  1.00  0.00    -0.307 N 
ATOM      5  HN  LIG     1      -3.491  -0.505  -0.472  1.00  0.00     0.186 HD
HETATM    6  N   LIG     1       0.915  -1.360   0.026  1.00  0.00    -0.344 N 
ATOM      7  HN  LIG     1       0.970  -2.372   0.141  1.00  0.00     0.167 HD
HETATM    8  C   LIG     1       0.711   1.473  -0.197  1.00  0.00     0.049 A 
HETATM    9  C   LIG     1      -1.828   0.812  -0.426  1.00  0.00     0.123 A 
HETATM   10  C   LIG     1       2.011  -0.563   0.009  1.00  0.00     0.015 A 
HETATM   11  C   LIG     1       1.953   0.830  -0.086  1.00  0.00     0.043 A 
ENDROOT
BRANCH   8  12
HETATM   12  C   LIG     1       0.656   2.949  -0.299  1.00  0.00     0.252 C 
HETATM   13  O   LIG     1       1.610   3.558  -0.776  1.00  0.00    -0.268 OA
HETATM   14  N   LIG     1      -0.472   3.566   0.200  1.00  0.00    -0.361 N 
HETATM   15  C   LIG     1      -0.631   5.000   0.187  1.00  0.00     0.149 C 
ATOM     16  HN  LIG     1      -1.218   2.990   0.591  1.00  0.00     0.162 HD
ENDBRANCH   8  12
BRANCH  10  17
HETATM   17  C   LIG     1       3.369  -1.242   0.151  1.00  0.00     0.027 C 
HETATM   18  C   LIG     1       3.748  -1.388   1.625  1.00  0.00     0.016 C 
HETATM   19  C   LIG     1       3.413  -2.610  -0.540  1.00  0.00     0.016 C 
ENDBRANCH  10  17
BRANCH   3  20
HETATM   20  C   LIG     1      -1.835  -2.677  -0.043  1.00  0.00     0.102 C 
HETATM   21  C   LIG     1      -3.204  -2.901   0.608  1.00  0.00     0.034 C 
HETATM   22  C   LIG     1      -1.761  -3.391  -1.392  1.00  0.00     0.034 C 
ENDBRANCH   3  20
TORSDOF 3
