REMARK  3 active torsions:
REMARK  status: ('A' for Active; 'I' for Inactive)
REMARK       I    between atoms: C_1  and  N_2 
REMARK       I    between atoms: C_1  and  N_4 
REMARK    1  A    between atoms: C_3  and  C_7 
REMARK    2  A    between atoms: N_4  and  C_13 
REMARK    3  A    between atoms: C_14  and  O_18 
ROOT
HETATM    1  C   LIG     1       0.436  -0.193   0.109  1.00  0.00     0.323 C 
HETATM    2  N   LIG     1       0.074  -1.038   1.146  1.00  0.00    -0.325 N 
HETATM    3  C   LIG     1      -0.760  -0.759   2.319  1.00  0.00     0.122 C 
HETATM    4  N   LIG     1      -0.027   1.098   0.233  1.00  0.00    -0.307 N 
ATOM      5  HN  LIG     1      -0.607   1.303   1.047  1.00  0.00     0.170 HD
HETATM    6  O   LIG     1       1.136  -0.587  -0.810  1.00  0.00    -0.247 OA
HETATM    7  C   LIG     1       0.582  -2.395   1.192  1.00  0.00     0.128 C 
HETATM    8  C   LIG     1      -1.095  -2.148   2.895  1.00  0.00     0.032 C 
HETATM    9  C   LIG     1      -0.513  -3.158   1.905  1.00  0.00     0.022 C 
ENDROOT
BRANCH   3  10
HETATM   10  C   LIG     1      -0.052   0.119   3.342  1.00  0.00    -0.035 A 
HETATM   11  C   LIG     1       1.341   0.074   3.489  1.00  0.00     0.012 A 
HETATM   12  C   LIG     1       2.003   0.888   4.403  1.00  0.00     0.037 A 
HETATM   13  C   LIG     1       1.288   1.751   5.223  1.00  0.00     0.068 A 
HETATM   14  C   LIG     1      -0.102   1.813   5.093  1.00  0.00     0.037 A 
HETATM   15  C   LIG     1      -0.771   0.997   4.166  1.00  0.00     0.012 A 
BRANCH  13  16
HETATM   16  O   LIG     1       1.861   2.585   6.145  1.00  0.00    -0.356 OA
HETATM   17  C   LIG     1       3.125   2.146   6.647  1.00  0.00     0.210 C 
ENDBRANCH  13  16
ENDBRANCH   3  10
BRANCH   4  18
HETATM   18  C   LIG     1       0.222   2.165  -0.655  1.00  0.00     0.051 A 
HETATM   19  C   LIG     1       0.647   2.027  -1.973  1.00  0.00     0.117 A 
HETATM   20  N   LIG     1       0.801   3.067  -2.836  1.00  0.00    -0.373 N 
HETATM   21  C   LIG     1       0.545   4.301  -2.355  1.00  0.00     0.088 A 
ATOM     22  HN  LIG     1       1.096   2.921  -3.801  1.00  0.00     0.164 HD
HETATM   23  C   LIG     1       0.162   4.549  -1.048  1.00  0.00     0.019 A 
HETATM   24  C   LIG     1      -0.005   3.463  -0.191  1.00  0.00     0.032 A 
ENDBRANCH   4  18
TORSDOF 3
