REMARK  3 active torsions:
REMARK  status: ('A' for Active; 'I' for Inactive)
REMARK       I    between atoms: N_1  and  C_2 
REMARK       I    between atoms: C_2  and  N_4 
REMARK    1  A    between atoms: N_4  and  C_16 
REMARK    2  A    between atoms: C_9  and  O_19 
REMARK    3  A    between atoms: C_13  and  C_16 
ROOT
HETATM    1  N   LIG     1      -2.675   2.582   1.178  1.00  0.00    -0.330 N 
HETATM    2  C   LIG     1      -2.736   1.815   0.022  1.00  0.00     0.318 C 
HETATM    3  C   LIG     1      -2.101   1.919   2.348  1.00  0.00     0.166 C 
HETATM    4  N   LIG     1      -3.267   2.466  -1.058  1.00  0.00    -0.339 N 
ATOM      5  HN  LIG     1      -3.599   3.424  -0.951  1.00  0.00     0.164 HD
HETATM    6  C   LIG     1      -2.109   2.737   3.622  1.00  0.00    -0.034 A 
HETATM    7  C   LIG     1      -2.604   4.046   1.172  1.00  0.00     0.132 C 
HETATM    8  O   LIG     1      -2.344   0.657  -0.037  1.00  0.00    -0.247 OA
HETATM    9  C   LIG     1      -2.635   4.041   3.660  1.00  0.00    -0.049 A 
HETATM   10  C   LIG     1      -3.253   4.630   2.422  1.00  0.00     0.059 C 
HETATM   11  C   LIG     1      -1.551   2.194   4.788  1.00  0.00     0.009 A 
HETATM   12  C   LIG     1      -2.611   4.772   4.855  1.00  0.00     0.008 A 
HETATM   13  C   LIG     1      -1.515   2.934   5.971  1.00  0.00     0.001 A 
HETATM   14  C   LIG     1      -2.044   4.222   6.003  1.00  0.00     0.001 A 
ENDROOT
BRANCH   4  15
HETATM   15  C   LIG     1      -3.366   1.821  -2.350  1.00  0.00     0.164 C 
BRANCH  15  16
HETATM   16  C   LIG     1      -3.350   2.829  -3.467  1.00  0.00    -0.025 A 
HETATM   17  C   LIG     1      -4.013   2.572  -4.664  1.00  0.00     0.099 A 
HETATM   18  N   LIG     1      -4.029   3.412  -5.725  1.00  0.00    -0.346 N 
HETATM   19  C   LIG     1      -3.334   4.562  -5.598  1.00  0.00     0.141 A 
ATOM     20  HN  LIG     1      -4.541   3.187  -6.578  1.00  0.00     0.167 HD
HETATM   21  C   LIG     1      -2.622   4.907  -4.463  1.00  0.00     0.057 A 
HETATM   22  C   LIG     1      -2.624   4.023  -3.389  1.00  0.00     0.014 A 
BRANCH  19  23
HETATM   23  O   LIG     1      -3.299   5.473  -6.635  1.00  0.00    -0.341 OA
HETATM   24  C   LIG     1      -4.055   5.058  -7.767  1.00  0.00     0.211 C 
ENDBRANCH  19  23
ENDBRANCH  15  16
ENDBRANCH   4  15
TORSDOF 3
