REMARK  0 active torsions:
REMARK  status: ('A' for Active; 'I' for Inactive)
ROOT
HETATM    1  N   LIG     1       1.593   1.151   0.001  1.00  0.00    -0.324 N 
ATOM      2  HN  LIG     1       1.932   2.113   0.002  1.00  0.00     0.169 HD
HETATM    3  C   LIG     1       2.299   0.037   0.001  1.00  0.00     0.223 A 
HETATM    4  O   LIG     1       1.559  -1.116   0.001  1.00  0.00    -0.282 OA
HETATM    5  C   LIG     1       0.296   0.710   0.000  1.00  0.00     0.069 A 
HETATM    6  C   LIG     1       0.269  -0.675   0.000  1.00  0.00     0.105 A 
HETATM    7 CL   LIG     1       4.018   0.047   0.001  1.00  0.00    -0.037 Cl
HETATM    8  C   LIG     1      -0.917   1.411   0.000  1.00  0.00     0.032 A 
HETATM    9  C   LIG     1      -0.887  -1.445   0.000  1.00  0.00     0.040 A 
HETATM   10  C   LIG     1      -2.091  -0.731  -0.000  1.00  0.00     0.003 A 
HETATM   11  C   LIG     1      -2.109   0.670  -0.000  1.00  0.00     0.002 A 
ENDROOT
TORSDOF 0
