REMARK  3 active torsions:
REMARK  status: ('A' for Active; 'I' for Inactive)
REMARK    1  A    between atoms: C_1  and  N_3 
REMARK       I    between atoms: C_2  and  N_3 
REMARK    2  A    between atoms: C_2  and  C_17 
REMARK    3  A    between atoms: C_6  and  C_17 
ROOT
HETATM    1  C   LIG     1       0.081   0.283   0.507  1.00  0.00     0.034 C 
HETATM    2  C   LIG     1      -2.392   0.651   0.005  1.00  0.00    -0.012 C 
HETATM    3  C   LIG     1      -0.683   1.036  -1.799  1.00  0.00    -0.012 C 
HETATM    4  C   LIG     1      -1.183  -1.308  -1.016  1.00  0.00    -0.012 C 
HETATM    5  C   LIG     1      -1.288   0.759   1.068  1.00  0.00     0.035 C 
HETATM    6  C   LIG     1      -0.085  -1.190   0.061  1.00  0.00     0.035 C 
HETATM    7  C   LIG     1       0.419   1.153  -0.732  1.00  0.00     0.035 C 
HETATM    8  C   LIG     1      -2.521  -0.814  -0.443  1.00  0.00     0.009 C 
HETATM    9  C   LIG     1      -0.807  -0.436  -2.226  1.00  0.00     0.009 C 
HETATM   10  C   LIG     1      -2.015   1.518  -1.205  1.00  0.00     0.009 C 
ENDROOT
BRANCH   1  11
HETATM   11  N   LIG     1       1.090   0.436   1.564  1.00  0.00    -0.352 N 
HETATM   12  C   LIG     1       2.432   0.142   1.430  1.00  0.00     0.222 C 
HETATM   13  O   LIG     1       2.942  -0.301   0.408  1.00  0.00    -0.273 OA
ATOM     14  HN  LIG     1       0.774   0.787   2.468  1.00  0.00     0.163 HD
BRANCH  12  15
HETATM   15  C   LIG     1       3.270   0.477   2.659  1.00  0.00     0.141 C 
BRANCH  15  16
HETATM   16  C   LIG     1       2.936  -0.383   3.843  1.00  0.00    -0.043 A 
HETATM   17  C   LIG     1       3.074  -1.759   3.881  1.00  0.00     0.057 A 
HETATM   18  S   LIG     1       2.614  -2.430   5.384  1.00  0.00    -0.113 SA
HETATM   19  C   LIG     1       2.242  -0.889   6.020  1.00  0.00     0.050 A 
HETATM   20  C   LIG     1       2.460   0.114   5.102  1.00  0.00     0.015 A 
ENDBRANCH  15  16
ENDBRANCH  12  15
ENDBRANCH   1  11
TORSDOF 3
