REMARK  2 active torsions:
REMARK  status: ('A' for Active; 'I' for Inactive)
REMARK    1  A    between atoms: N_1  and  C_8 
REMARK    2  A    between atoms: C_8  and  C_12 
ROOT
HETATM    1  N   LIG     1       2.134  -0.508  -0.067  1.00  0.00    -0.299 N 
HETATM    2  C   LIG     1       0.973  -1.281  -0.085  1.00  0.00     0.261 A 
HETATM    3  C   LIG     1       2.062   0.869   0.038  1.00  0.00     0.083 A 
HETATM    4  N   LIG     1       0.950   1.530   0.101  1.00  0.00    -0.345 N 
ATOM      5  HN  LIG     1       0.955   2.548   0.167  1.00  0.00     0.167 HD
HETATM    6  C   LIG     1      -0.306  -0.560   0.001  1.00  0.00     0.059 A 
HETATM    7  C   LIG     1      -0.257   0.827   0.077  1.00  0.00     0.049 A 
HETATM    8  O   LIG     1       0.959  -2.509  -0.174  1.00  0.00    -0.267 OA
HETATM    9  C   LIG     1      -1.528  -1.243  -0.013  1.00  0.00     0.019 A 
HETATM   10  C   LIG     1       3.336   1.679   0.064  1.00  0.00     0.089 C 
HETATM   11  C   LIG     1      -1.457   1.539   0.131  1.00  0.00     0.030 A 
HETATM   12  C   LIG     1      -2.720  -0.522   0.043  1.00  0.00     0.001 A 
HETATM   13  C   LIG     1      -2.684   0.870   0.112  1.00  0.00     0.002 A 
ENDROOT
BRANCH   1  14
HETATM   14  C   LIG     1       3.401  -1.231  -0.211  1.00  0.00     0.173 C 
BRANCH  14  15
HETATM   15  C   LIG     1       4.038  -1.610   1.103  1.00  0.00    -0.024 A 
HETATM   16  C   LIG     1       5.317  -1.168   1.430  1.00  0.00     0.096 A 
HETATM   17  N   LIG     1       5.965  -1.483   2.575  1.00  0.00    -0.375 N 
HETATM   18  C   LIG     1       5.314  -2.291   3.438  1.00  0.00     0.087 A 
ATOM     19  HN  LIG     1       6.900  -1.127   2.776  1.00  0.00     0.164 HD
HETATM   20  C   LIG     1       4.049  -2.799   3.207  1.00  0.00     0.018 A 
HETATM   21  C   LIG     1       3.408  -2.456   2.021  1.00  0.00     0.011 A 
ENDBRANCH  14  15
ENDBRANCH   1  14
TORSDOF 2
