REMARK  2 active torsions:
REMARK  status: ('A' for Active; 'I' for Inactive)
REMARK    1  A    between atoms: C_1  and  C_2 
REMARK       I    between atoms: C_1  and  N_3 
REMARK    2  A    between atoms: C_4  and  C_14 
ROOT
HETATM    1  C   LIG     1       0.715  -0.361  -0.313  1.00  0.00     0.256 C 
HETATM    2  N   LIG     1       0.146  -0.409  -1.593  1.00  0.00    -0.344 N 
HETATM    3  C   LIG     1      -1.296  -0.411  -4.061  1.00  0.00    -0.049 C 
HETATM    4  C   LIG     1      -0.930   0.751  -3.480  1.00  0.00     0.001 C 
HETATM    5  C   LIG     1      -0.118   0.881  -2.217  1.00  0.00     0.154 C 
HETATM    6  O   LIG     1       1.027   0.710   0.212  1.00  0.00    -0.267 OA
HETATM    7  C   LIG     1       0.368  -1.510  -2.527  1.00  0.00     0.131 C 
HETATM    8  C   LIG     1      -0.850  -1.712  -3.431  1.00  0.00     0.059 C 
ENDROOT
BRANCH   1   9
HETATM    9  C   LIG     1       0.911  -1.612   0.407  1.00  0.00     0.056 A 
HETATM   10  C   LIG     1       1.894  -1.811   1.359  1.00  0.00     0.158 A 
HETATM   11  O   LIG     1       1.836  -3.065   1.869  1.00  0.00    -0.334 OA
HETATM   12  C   LIG     1       0.783  -3.684   1.277  1.00  0.00     0.142 A 
HETATM   13  C   LIG     1       0.163  -2.829   0.396  1.00  0.00     0.043 A 
ENDBRANCH   1   9
BRANCH   3  14
HETATM   14  C   LIG     1      -2.136  -0.467  -5.292  1.00  0.00    -0.030 A 
HETATM   15  C   LIG     1      -3.003  -1.547  -5.535  1.00  0.00     0.012 A 
HETATM   16  C   LIG     1      -3.783  -1.609  -6.699  1.00  0.00     0.001 A 
HETATM   17  C   LIG     1      -3.711  -0.592  -7.645  1.00  0.00     0.000 A 
HETATM   18  C   LIG     1      -2.856   0.484  -7.430  1.00  0.00     0.001 A 
HETATM   19  C   LIG     1      -2.075   0.542  -6.269  1.00  0.00     0.012 A 
ENDBRANCH   3  14
TORSDOF 2
