REMARK  2 active torsions:
REMARK  status: ('A' for Active; 'I' for Inactive)
REMARK    1  A    between atoms: C_1  and  C_2 
REMARK       I    between atoms: C_2  and  N_7 
REMARK    2  A    between atoms: N_7  and  C_11 
ROOT
HETATM    1  C   LIG     1       2.180  -0.445   0.221  1.00  0.00     0.055 A 
HETATM    2  N   LIG     1       0.978   1.609  -0.206  1.00  0.00    -0.358 N 
ATOM      3  HN  LIG     1       0.990   2.604  -0.431  1.00  0.00     0.166 HD
HETATM    4  C   LIG     1       2.149   0.919  -0.075  1.00  0.00     0.021 A 
HETATM    5  C   LIG     1       0.957  -1.101   0.410  1.00  0.00     0.032 A 
HETATM    6  C   LIG     1      -0.250  -0.403   0.276  1.00  0.00    -0.007 A 
HETATM    7  C   LIG     1      -0.189   0.969  -0.036  1.00  0.00     0.042 A 
HETATM    8  C   LIG     1      -1.495  -1.036   0.448  1.00  0.00     0.037 A 
HETATM    9  C   LIG     1      -1.380   1.671  -0.163  1.00  0.00     0.032 A 
HETATM   10  C   LIG     1      -2.672  -0.306   0.310  1.00  0.00     0.035 A 
HETATM   11  C   LIG     1      -2.621   1.049   0.007  1.00  0.00     0.026 A 
HETATM   12 CL   LIG     1      -4.191  -1.084   0.516  1.00  0.00    -0.084 Cl
HETATM   13  C   LIG     1       3.388   1.741  -0.281  1.00  0.00     0.069 C 
ENDROOT
BRANCH   1  14
HETATM   14  C   LIG     1       3.460  -1.193   0.370  1.00  0.00     0.253 C 
HETATM   15  N   LIG     1       3.430  -2.529   0.008  1.00  0.00    -0.352 N 
ATOM     16  HN  LIG     1       2.556  -2.927  -0.335  1.00  0.00     0.163 HD
HETATM   17  O   LIG     1       4.470  -0.632   0.784  1.00  0.00    -0.268 OA
BRANCH  15  18
HETATM   18  C   LIG     1       4.584  -3.369   0.099  1.00  0.00     0.084 A 
HETATM   19  C   LIG     1       4.498  -4.822  -0.282  1.00  0.00     0.027 A 
HETATM   20  C   LIG     1       4.676  -4.434   1.156  1.00  0.00     0.027 A 
ENDBRANCH  15  18
ENDBRANCH   1  14
TORSDOF 2
