REMARK  2 active torsions:
REMARK  status: ('A' for Active; 'I' for Inactive)
REMARK    1  A    between atoms: C_1  and  N_6 
REMARK       I    between atoms: C_4  and  N_6 
REMARK    2  A    between atoms: C_4  and  C_5 
ROOT
HETATM    1  C   LIG     1       0.298  -3.558   0.026  1.00  0.00     0.229 C 
HETATM    2  N   LIG     1      -0.597  -2.606  -0.373  1.00  0.00    -0.312 N 
ATOM      3  HN  LIG     1      -0.262  -1.643  -0.334  1.00  0.00     0.170 HD
HETATM    4  O   LIG     1       1.425  -3.175   0.372  1.00  0.00    -0.273 OA
ENDROOT
BRANCH   1   5
HETATM    5  C   LIG     1      -0.084  -5.025   0.098  1.00  0.00     0.107 C 
HETATM    6  C   LIG     1       1.120  -5.955   0.010  1.00  0.00     0.057 C 
HETATM    7  C   LIG     1       0.636  -7.370   0.191  1.00  0.00    -0.024 A 
HETATM    8  C   LIG     1      -0.549  -7.632   0.892  1.00  0.00     0.075 A 
HETATM    9  C   LIG     1       1.365  -8.438  -0.346  1.00  0.00     0.010 A 
HETATM   10  O   LIG     1      -1.348  -6.657   1.432  1.00  0.00    -0.350 OA
HETATM   11  C   LIG     1      -1.010  -8.941   1.031  1.00  0.00     0.037 A 
HETATM   12  C   LIG     1      -0.793  -5.334   1.411  1.00  0.00     0.190 C 
HETATM   13  C   LIG     1      -0.283  -9.999   0.486  1.00  0.00     0.003 A 
HETATM   14  C   LIG     1       0.904  -9.747  -0.201  1.00  0.00     0.001 A 
ENDBRANCH   1   5
BRANCH   2  15
HETATM   15  C   LIG     1      -1.889  -2.768  -0.820  1.00  0.00     0.123 A 
HETATM   16  N   LIG     1      -2.499  -3.942  -0.950  1.00  0.00    -0.284 N 
HETATM   17  N   LIG     1      -3.713  -3.662  -1.429  1.00  0.00    -0.306 N 
ATOM     18  HN  LIG     1      -2.119  -4.863  -0.730  1.00  0.00     0.188 HD
HETATM   19  C   LIG     1      -3.933  -2.327  -1.576  1.00  0.00     0.113 A 
HETATM   20  C   LIG     1      -4.617  -4.744  -1.731  1.00  0.00     0.177 C 
HETATM   21  C   LIG     1      -2.756  -1.715  -1.204  1.00  0.00     0.068 A 
ENDBRANCH   2  15
TORSDOF 2
