REMARK  1 active torsions:
REMARK  status: ('A' for Active; 'I' for Inactive)
REMARK       I    between atoms: N_1  and  C_2 
REMARK    1  A    between atoms: C_2  and  C_6 
ROOT
HETATM    1  N   LIG     1      -0.860   0.894   0.518  1.00  0.00    -0.312 N 
HETATM    2  C   LIG     1      -1.084   2.270   0.228  1.00  0.00     0.275 C 
HETATM    3  C   LIG     1       0.220   0.136  -0.091  1.00  0.00     0.043 A 
HETATM    4  C   LIG     1       0.247  -1.273   0.011  1.00  0.00    -0.031 A 
HETATM    5  C   LIG     1       1.294   0.740  -0.760  1.00  0.00     0.031 A 
HETATM    6  O   LIG     1      -0.402   2.947  -0.550  1.00  0.00    -0.265 OA
HETATM    7  C   LIG     1       1.292  -2.024  -0.564  1.00  0.00     0.016 A 
HETATM    8  C   LIG     1      -1.790   0.160   1.388  1.00  0.00     0.133 C 
HETATM    9  C   LIG     1       2.341  -0.010  -1.316  1.00  0.00     0.009 A 
HETATM   10  C   LIG     1       2.344  -1.399  -1.232  1.00  0.00    -0.061 A 
HETATM   11  C   LIG     1      -0.849  -2.019   0.718  1.00  0.00     0.042 C 
HETATM   12  C   LIG     1      -1.308  -1.189   1.891  1.00  0.00     0.025 C 
HETATM   13  C   LIG     1       3.492  -2.196  -1.774  1.00  0.00     0.048 C 
ENDROOT
BRANCH   2  14
HETATM   14  C   LIG     1      -2.199   3.040   0.894  1.00  0.00     0.101 A 
HETATM   15  N   LIG     1      -3.345   2.397   1.238  1.00  0.00    -0.361 N 
HETATM   16  C   LIG     1      -4.311   3.131   1.834  1.00  0.00     0.088 A 
ATOM     17  HN  LIG     1      -3.471   1.402   1.054  1.00  0.00     0.165 HD
HETATM   18  C   LIG     1      -4.204   4.487   2.092  1.00  0.00     0.017 A 
HETATM   19  C   LIG     1      -3.039   5.138   1.709  1.00  0.00     0.004 A 
HETATM   20  C   LIG     1      -2.022   4.409   1.098  1.00  0.00     0.035 A 
ENDBRANCH   2  14
TORSDOF 1
