REMARK  3 active torsions:
REMARK  status: ('A' for Active; 'I' for Inactive)
REMARK    1  A    between atoms: C_5  and  C_12 
REMARK    2  A    between atoms: N_8  and  C_15 
REMARK    3  A    between atoms: C_12  and  C_15 
ROOT
HETATM    1 CL   LIG     2       1.966  -0.382   2.840  1.00  0.00     0.000 Cl
ENDROOT
TORSDOF 3
