REMARK  2 active torsions:
REMARK  status: ('A' for Active; 'I' for Inactive)
REMARK    1  A    between atoms: C_3  and  C_12 
REMARK    2  A    between atoms: C_9  and  C_13 
ROOT
HETATM    1  N   LIG     1       1.388  -0.528  -0.007  1.00  0.00    -0.349 N 
ATOM      2  HN  LIG     1       1.800  -1.461   0.020  1.00  0.00     0.166 HD
HETATM    3  C   LIG     1       2.078   0.595  -0.025  1.00  0.00     0.075 A 
HETATM    4  S   LIG     1       1.108   2.027  -0.093  1.00  0.00    -0.070 SA
HETATM    5  C   LIG     1       0.027  -0.270  -0.029  1.00  0.00     0.050 A 
HETATM    6  C   LIG     1      -0.323   1.078  -0.072  1.00  0.00     0.033 A 
HETATM    7  C   LIG     1      -0.999  -1.237  -0.010  1.00  0.00     0.037 A 
HETATM    8  C   LIG     1      -1.663   1.497  -0.091  1.00  0.00     0.022 A 
HETATM    9  C   LIG     1      -2.346  -0.841  -0.027  1.00  0.00    -0.060 A 
HETATM   10  C   LIG     1      -2.663   0.519  -0.067  1.00  0.00     0.008 A 
HETATM   11  C   LIG     1      -3.426  -1.883  -0.015  1.00  0.00     0.048 C 
ENDROOT
BRANCH   3  12
HETATM   12  C   LIG     1       3.494   0.735   0.012  1.00  0.00     0.038 C 
HETATM   13  C   LIG     1       4.298  -0.342   0.077  1.00  0.00     0.017 C 
BRANCH  13  14
HETATM   14  C   LIG     1       5.721  -0.308   0.138  1.00  0.00    -0.002 A 
HETATM   15  C   LIG     1       6.541   0.798   0.145  1.00  0.00     0.122 A 
HETATM   16  N   LIG     1       7.818   0.319   0.218  1.00  0.00    -0.307 N 
HETATM   17  N   LIG     1       7.887  -1.024   0.259  1.00  0.00    -0.310 N 
HETATM   18  C   LIG     1       9.032   1.096   0.252  1.00  0.00     0.177 C 
HETATM   19  C   LIG     1       6.606  -1.405   0.211  1.00  0.00     0.120 A 
ATOM     20  HN  LIG     1       8.719  -1.612   0.314  1.00  0.00     0.186 HD
ENDBRANCH  13  14
ENDBRANCH   3  12
TORSDOF 2
