REMARK  3 active torsions:
REMARK  status: ('A' for Active; 'I' for Inactive)
REMARK       I    between atoms: N_1  and  C_3 
REMARK    1  A    between atoms: C_3  and  C_6 
REMARK    2  A    between atoms: C_6  and  N_8 
REMARK    3  A    between atoms: N_8  and  C_14 
ROOT
HETATM    1  N   LIG     1       2.673  -2.152   2.121  1.00  0.00    -0.346 N 
HETATM    2  C   LIG     1       2.593  -4.552   1.584  1.00  0.00    -0.027 A 
HETATM    3  C   LIG     1       1.980  -0.964   2.338  1.00  0.00     0.237 C 
HETATM    4  C   LIG     1       3.668  -4.750   2.430  1.00  0.00    -0.008 A 
HETATM    5  C   LIG     1       2.006  -3.192   1.312  1.00  0.00     0.165 C 
HETATM    6  S   LIG     1       4.120  -6.378   2.581  1.00  0.00    -0.106 SA
HETATM    7  C   LIG     1       4.364  -3.645   3.152  1.00  0.00     0.066 C 
HETATM    8  C   LIG     1       2.902  -6.865   1.482  1.00  0.00     0.051 A 
HETATM    9  C   LIG     1       2.164  -5.796   1.017  1.00  0.00     0.017 A 
HETATM   10  C   LIG     1       4.105  -2.335   2.396  1.00  0.00     0.131 C 
HETATM   11  O   LIG     1       0.846  -0.791   1.887  1.00  0.00    -0.272 OA
ENDROOT
BRANCH   3  12
HETATM   12  C   LIG     1       2.660   0.163   3.152  1.00  0.00     0.225 C 
BRANCH  12  13
HETATM   13  N   LIG     1       3.012  -0.190   4.558  1.00  0.00    -0.376 N 
HETATM   14  C   LIG     1       1.941  -0.867   5.311  1.00  0.00     0.150 C 
BRANCH  13  15
HETATM   15  C   LIG     1       3.687   0.806   5.315  1.00  0.00     0.030 A 
HETATM   16  C   LIG     1       4.042   0.586   6.662  1.00  0.00     0.029 A 
HETATM   17  C   LIG     1       4.658   1.573   7.448  1.00  0.00     0.002 A 
HETATM   18  C   LIG     1       4.965   2.811   6.900  1.00  0.00     0.000 A 
HETATM   19  C   LIG     1       4.686   3.043   5.561  1.00  0.00     0.002 A 
HETATM   20  C   LIG     1       4.069   2.051   4.782  1.00  0.00     0.029 A 
ENDBRANCH  13  15
ENDBRANCH  12  13
ENDBRANCH   3  12
TORSDOF 3
