REMARK  3 active torsions:
REMARK  status: ('A' for Active; 'I' for Inactive)
REMARK    1  A    between atoms: N_1  and  C_6 
REMARK       I    between atoms: C_2  and  N_3 
REMARK    2  A    between atoms: C_2  and  C_11 
REMARK    3  A    between atoms: N_3  and  C_5 
ROOT
HETATM    1  C   LIG     1       0.446   2.618  -1.015  1.00  0.00     0.056 A 
HETATM    2  C   LIG     1       0.678   1.639  -2.013  1.00  0.00     0.037 A 
HETATM    3  C   LIG     1       1.087   3.870  -1.068  1.00  0.00     0.031 A 
HETATM    4  C   LIG     1       1.529   2.011  -3.074  1.00  0.00     0.026 A 
HETATM    5  C   LIG     1       1.922   4.200  -2.130  1.00  0.00     0.002 A 
HETATM    6  C   LIG     1       2.133   3.273  -3.139  1.00  0.00     0.002 A 
ENDROOT
BRANCH   1   7
HETATM    7  N   LIG     1      -0.489   2.362   0.021  1.00  0.00    -0.325 N 
HETATM    8  C   LIG     1      -1.406   3.309   0.432  1.00  0.00     0.226 C 
HETATM    9  O   LIG     1      -1.515   4.441  -0.063  1.00  0.00    -0.273 OA
ATOM     10  HN  LIG     1      -0.484   1.449   0.477  1.00  0.00     0.169 HD
BRANCH   8  11
HETATM   11  C   LIG     1      -2.325   2.845   1.548  1.00  0.00     0.078 C 
HETATM   12  C   LIG     1      -3.431   3.862   1.859  1.00  0.00     0.014 C 
HETATM   13  C   LIG     1      -3.689   3.788   3.359  1.00  0.00     0.001 C 
HETATM   14  C   LIG     1      -2.687   2.790   3.920  1.00  0.00     0.001 C 
HETATM   15  C   LIG     1      -1.585   2.699   2.876  1.00  0.00     0.014 C 
ENDBRANCH   8  11
ENDBRANCH   1   7
BRANCH   2  16
HETATM   16  N   LIG     1      -0.004   0.387  -1.986  1.00  0.00    -0.278 NA
HETATM   17  C   LIG     1      -0.274  -0.211  -3.322  1.00  0.00     0.126 C 
HETATM   18  C   LIG     1      -1.090  -1.523  -3.217  1.00  0.00     0.286 C 
HETATM   19  N   LIG     1      -0.558  -2.533  -2.276  1.00  0.00     0.086 N 
HETATM   20  C   LIG     1      -0.256  -1.879  -0.986  1.00  0.00     0.286 C 
HETATM   21  C   LIG     1       0.597  -3.241  -2.822  1.00  0.00     0.310 C 
HETATM   22  C   LIG     1       0.611  -0.592  -1.059  1.00  0.00     0.126 C 
ENDBRANCH   2  16
TORSDOF 3
