REMARK  3 active torsions:
REMARK  status: ('A' for Active; 'I' for Inactive)
REMARK    1  A    between atoms: N_1  and  C_4 
REMARK    2  A    between atoms: C_3  and  C_4 
REMARK       I    between atoms: C_3  and  N_5 
REMARK    3  A    between atoms: N_5  and  C_10 
ROOT
HETATM    1  C   LIG     1      -3.491  -1.358  -3.408  1.00  0.00     0.240 C 
HETATM    2  N   LIG     1      -3.427  -2.539  -2.678  1.00  0.00    -0.326 N 
ATOM      3  HN  LIG     1      -2.976  -2.499  -1.764  1.00  0.00     0.169 HD
HETATM    4  O   LIG     1      -4.013  -1.219  -4.515  1.00  0.00    -0.271 OA
ENDROOT
BRANCH   2   5
HETATM    5  C   LIG     1      -3.937  -3.797  -3.097  1.00  0.00     0.035 A 
HETATM    6  C   LIG     1      -4.610  -3.952  -4.309  1.00  0.00     0.037 A 
HETATM    7  C   LIG     1      -5.155  -5.176  -4.643  1.00  0.00    -0.050 A 
HETATM    8  C   LIG     1      -5.020  -6.286  -3.817  1.00  0.00    -0.052 A 
HETATM    9  C   LIG     1      -6.007  -5.464  -5.835  1.00  0.00     0.039 C 
HETATM   10  C   LIG     1      -4.334  -6.177  -2.619  1.00  0.00     0.010 A 
HETATM   11  C   LIG     1      -5.754  -7.453  -4.405  1.00  0.00     0.039 C 
HETATM   12  C   LIG     1      -3.795  -4.924  -2.258  1.00  0.00     0.030 A 
HETATM   13  C   LIG     1      -5.949  -6.992  -5.863  1.00  0.00     0.009 C 
ENDBRANCH   2   5
BRANCH   1  14
HETATM   14  C   LIG     1      -2.979  -0.101  -2.712  1.00  0.00     0.234 C 
BRANCH  14  15
HETATM   15  N   LIG     1      -1.915  -0.270  -1.730  1.00  0.00    -0.316 N 
HETATM   16  C   LIG     1      -2.163   0.128  -0.420  1.00  0.00     0.247 A 
HETATM   17  C   LIG     1      -1.020   0.039   0.520  1.00  0.00     0.074 A 
HETATM   18  O   LIG     1      -3.251   0.535  -0.005  1.00  0.00    -0.268 OA
HETATM   19  C   LIG     1       0.175  -0.385   0.088  1.00  0.00     0.007 A 
HETATM   20  C   LIG     1       0.368  -0.741  -1.294  1.00  0.00     0.017 A 
HETATM   21  C   LIG     1      -0.657  -0.671  -2.152  1.00  0.00     0.095 A 
ENDBRANCH  14  15
ENDBRANCH   1  14
TORSDOF 3
