REMARK  2 active torsions:
REMARK  status: ('A' for Active; 'I' for Inactive)
REMARK    1  A    between atoms: C_1  and  C_3 
REMARK    2  A    between atoms: N_2  and  C_9 
REMARK       I    between atoms: C_3  and  N_4 
ROOT
HETATM    1  C   LIG     1       0.505   2.326  -2.761  1.00  0.00     0.124 A 
HETATM    2  N   LIG     1      -0.680   1.670  -3.093  1.00  0.00    -0.302 N 
HETATM    3  N   LIG     1       0.855   1.031  -4.611  1.00  0.00    -0.359 N 
ATOM      4  HN  LIG     1       1.302   0.592  -5.416  1.00  0.00     0.166 HD
HETATM    5  C   LIG     1      -0.400   0.951  -4.243  1.00  0.00     0.189 A 
HETATM    6  C   LIG     1       1.425   1.835  -3.673  1.00  0.00     0.124 A 
ENDROOT
BRANCH   1   7
HETATM    7  C   LIG     1       0.759   3.125  -1.586  1.00  0.00     0.272 C 
HETATM    8  N   LIG     1       1.535   4.292  -1.680  1.00  0.00    -0.347 N 
HETATM    9  C   LIG     1       1.898   4.953  -0.426  1.00  0.00     0.126 C 
HETATM   10  C   LIG     1       2.302   4.715  -2.854  1.00  0.00     0.126 C 
HETATM   11  C   LIG     1       1.898   6.470  -0.557  1.00  0.00     0.024 C 
HETATM   12  C   LIG     1       2.821   6.921  -1.692  1.00  0.00    -0.015 C 
HETATM   13  C   LIG     1       2.402   6.234  -2.996  1.00  0.00     0.024 C 
HETATM   14  C   LIG     1       2.788   8.441  -1.840  1.00  0.00     0.010 C 
HETATM   15  O   LIG     1       0.284   2.784  -0.493  1.00  0.00    -0.266 OA
ENDBRANCH   1   7
BRANCH   2  16
HETATM   16  C   LIG     1      -1.955   1.679  -2.454  1.00  0.00     0.041 A 
HETATM   17  C   LIG     1      -2.779   0.541  -2.552  1.00  0.00     0.033 A 
HETATM   18  C   LIG     1      -4.019   0.507  -1.909  1.00  0.00     0.044 A 
HETATM   19  C   LIG     1      -4.446   1.612  -1.187  1.00  0.00     0.116 A 
HETATM   20  C   LIG     1      -3.656   2.752  -1.097  1.00  0.00     0.044 A 
HETATM   21  F   LIG     1      -5.633   1.578  -0.569  1.00  0.00    -0.206 F 
HETATM   22  C   LIG     1      -2.407   2.789  -1.728  1.00  0.00     0.033 A 
ENDBRANCH   2  16
TORSDOF 2
