REMARK  0 active torsions:
REMARK  status: ('A' for Active; 'I' for Inactive)
ROOT
HETATM    1  C   LIG     1      -0.146  -0.745   0.066  1.00  0.00     0.043 A 
HETATM    2  C   LIG     1      -0.314   0.632   0.250  1.00  0.00     0.088 A 
HETATM    3  C   LIG     1       1.176  -1.406   0.131  1.00  0.00     0.162 C 
HETATM    4  O   LIG     1       0.713   1.457   0.620  1.00  0.00    -0.350 OA
HETATM    5  C   LIG     1      -1.601   1.198   0.200  1.00  0.00    -0.028 A 
HETATM    6  O   LIG     1       1.290  -2.474   0.728  1.00  0.00    -0.292 OA
HETATM    7  C   LIG     1      -1.260  -1.561  -0.169  1.00  0.00     0.018 A 
HETATM    8  C   LIG     1      -2.535  -1.003  -0.239  1.00  0.00     0.002 A 
HETATM    9  C   LIG     1       2.305  -0.828  -0.691  1.00  0.00     0.086 C 
HETATM   10  C   LIG     1      -2.704   0.370  -0.056  1.00  0.00     0.009 A 
HETATM   11  C   LIG     1       1.709   1.594  -0.391  1.00  0.00     0.176 C 
HETATM   12  C   LIG     1      -1.807   2.666   0.448  1.00  0.00     0.051 C 
HETATM   13  C   LIG     1       2.783   0.533  -0.220  1.00  0.00     0.034 C 
ENDROOT
TORSDOF 0
