REMARK  3 active torsions:
REMARK  status: ('A' for Active; 'I' for Inactive)
REMARK    1  A    between atoms: N_1  and  C_8 
REMARK    2  A    between atoms: C_8  and  C_13 
REMARK    3  A    between atoms: O_11  and  C_13 
ROOT
HETATM    1  N   LIG     1      -2.230  -0.686  -0.089  1.00  0.00    -0.278 N 
HETATM    2  C   LIG     1      -1.783   0.611  -0.022  1.00  0.00     0.261 A 
HETATM    3  C   LIG     1      -1.186  -1.563  -0.013  1.00  0.00     0.261 A 
HETATM    4  C   LIG     1       0.038  -0.780  -0.007  1.00  0.00     0.048 A 
HETATM    5  C   LIG     1      -0.319   0.553  -0.011  1.00  0.00     0.048 A 
HETATM    6  O   LIG     1      -2.423   1.641   0.047  1.00  0.00    -0.267 OA
HETATM    7  O   LIG     1      -1.198  -2.781   0.050  1.00  0.00    -0.267 OA
HETATM    8  C   LIG     1       1.355  -1.197   0.006  1.00  0.00     0.018 A 
HETATM    9  C   LIG     1       0.631   1.555   0.002  1.00  0.00     0.018 A 
HETATM   10  C   LIG     1       1.976   1.161   0.008  1.00  0.00     0.001 A 
HETATM   11  C   LIG     1       2.334  -0.203   0.009  1.00  0.00     0.001 A 
ENDROOT
BRANCH   1  12
HETATM   12  C   LIG     1      -3.643  -1.042   0.011  1.00  0.00     0.161 C 
BRANCH  12  13
HETATM   13  C   LIG     1      -4.067  -2.268  -0.807  1.00  0.00     0.184 C 
BRANCH  13  14
HETATM   14  O   LIG     1      -3.664  -3.495  -0.208  1.00  0.00    -0.399 OA
ATOM     15  HO  LIG     1      -3.927  -4.254  -0.715  1.00  0.00     0.209 HD
ENDBRANCH  13  14
ENDBRANCH  12  13
ENDBRANCH   1  12
TORSDOF 3
