REMARK  2 active torsions:
REMARK  status: ('A' for Active; 'I' for Inactive)
REMARK    1  A    between atoms: C_1  and  C_4 
REMARK    2  A    between atoms: C_2  and  C_6 
REMARK       I    between atoms: C_4  and  N_5 
ROOT
HETATM    1  C   LIG     1       0.069  -0.830  -0.830  1.00  0.00     0.143 A 
HETATM    2  C   LIG     1       0.603   0.908  -2.094  1.00  0.00     0.089 A 
HETATM    3  O   LIG     1       1.022  -0.320  -1.669  1.00  0.00    -0.304 OA
HETATM    4  C   LIG     1      -0.931   0.110  -0.667  1.00  0.00     0.046 A 
HETATM    5  C   LIG     1      -0.604   1.210  -1.498  1.00  0.00     0.041 A 
ENDROOT
BRANCH   1   6
HETATM    6  C   LIG     1       0.245  -2.130  -0.200  1.00  0.00     0.277 C 
HETATM    7  N   LIG     1       0.993  -3.126  -0.854  1.00  0.00    -0.343 N 
HETATM    8  C   LIG     1       1.637  -2.950  -2.161  1.00  0.00     0.156 C 
HETATM    9  C   LIG     1       1.482  -4.238  -0.035  1.00  0.00     0.156 C 
HETATM   10  C   LIG     1       1.941  -4.276  -2.885  1.00  0.00     0.291 C 
HETATM   11  N   LIG     1       2.590  -5.310  -2.059  1.00  0.00     0.087 N 
HETATM   12  C   LIG     1       1.785  -5.515  -0.840  1.00  0.00     0.291 C 
HETATM   13  C   LIG     1       3.976  -4.969  -1.749  1.00  0.00     0.310 C 
HETATM   14  O   LIG     1      -0.268  -2.364   0.897  1.00  0.00    -0.265 OA
ENDBRANCH   1   6
BRANCH   2  15
HETATM   15  C   LIG     1       1.477   1.581  -3.047  1.00  0.00     0.036 A 
HETATM   16  C   LIG     1       0.989   2.570  -3.910  1.00  0.00     0.129 A 
HETATM   17  F   LIG     1      -0.305   2.924  -3.883  1.00  0.00    -0.205 F 
HETATM   18  C   LIG     1       1.820   3.204  -4.834  1.00  0.00     0.043 A 
HETATM   19  C   LIG     1       3.168   2.863  -4.905  1.00  0.00     0.003 A 
HETATM   20  C   LIG     1       3.679   1.887  -4.052  1.00  0.00     0.001 A 
HETATM   21  C   LIG     1       2.840   1.250  -3.131  1.00  0.00     0.017 A 
ENDBRANCH   2  15
TORSDOF 2
