REMARK  1 active torsions:
REMARK  status: ('A' for Active; 'I' for Inactive)
REMARK    1  A    between atoms: C_2  and  C_10 
ROOT
HETATM    1  C   LIG     1      -0.395   0.524   0.032  1.00  0.00    -0.010 A 
HETATM    2  C   LIG     1       0.788   1.470   0.007  1.00  0.00     0.253 C 
HETATM    3  C   LIG     1      -0.227  -0.850  -0.011  1.00  0.00    -0.007 A 
HETATM    4  S   LIG     1      -1.687  -1.716  -0.017  1.00  0.00    -0.106 SA
HETATM    5  N   LIG     1       2.036   0.763   0.363  1.00  0.00    -0.062 N 
ATOM      6  HN1 LIG     1       2.095   0.599   1.368  1.00  0.00     0.278 HD
ATOM      7  HN2 LIG     1       2.849   1.368   0.251  1.00  0.00     0.278 HD
HETATM    8  C   LIG     1      -1.794   0.850   0.014  1.00  0.00     0.018 A 
HETATM    9  C   LIG     1      -2.598  -0.269   0.002  1.00  0.00     0.051 A 
HETATM   10  C   LIG     1       1.110  -1.521  -0.026  1.00  0.00     0.074 C 
HETATM   11  C   LIG     1       2.194  -0.487  -0.392  1.00  0.00     0.238 C 
ENDROOT
BRANCH   2  12
HETATM   12  C   LIG     1       0.496   2.587   0.992  1.00  0.00    -0.023 A 
HETATM   13  C   LIG     1       0.488   2.363   2.381  1.00  0.00     0.009 A 
HETATM   14  C   LIG     1       0.216   3.402   3.272  1.00  0.00     0.001 A 
HETATM   15  C   LIG     1      -0.049   4.682   2.790  1.00  0.00     0.000 A 
HETATM   16  C   LIG     1      -0.043   4.924   1.418  1.00  0.00     0.001 A 
HETATM   17  C   LIG     1       0.229   3.886   0.525  1.00  0.00     0.009 A 
ENDBRANCH   2  12
TORSDOF 1
