REMARK  1 active torsions:
REMARK  status: ('A' for Active; 'I' for Inactive)
REMARK    1  A    between atoms: C_5  and  O_9 
ROOT
HETATM    1  N   LIG     1       1.218  -1.414   0.034  1.00  0.00    -0.334 N 
ATOM      2  HN  LIG     1       1.230  -2.433   0.072  1.00  0.00     0.168 HD
HETATM    3  N   LIG     1       1.197   1.395  -0.031  1.00  0.00    -0.355 N 
ATOM      4  HN  LIG     1       1.191   2.415  -0.041  1.00  0.00     0.166 HD
HETATM    5  C   LIG     1       2.357  -0.698  -0.006  1.00  0.00     0.163 A 
HETATM    6  C   LIG     1       2.362   0.695  -0.039  1.00  0.00     0.057 A 
HETATM    7  C   LIG     1       0.063  -0.725   0.022  1.00  0.00     0.061 A 
HETATM    8  C   LIG     1       0.051   0.687  -0.009  1.00  0.00     0.059 A 
HETATM    9  C   LIG     1       3.596   1.539  -0.086  1.00  0.00     0.072 C 
HETATM   10  C   LIG     1      -1.170   1.353  -0.032  1.00  0.00     0.032 A 
HETATM   11  C   LIG     1      -1.146  -1.411   0.025  1.00  0.00     0.032 A 
HETATM   12  C   LIG     1      -2.366  -0.734  -0.014  1.00  0.00     0.002 A 
HETATM   13  C   LIG     1      -2.378   0.654  -0.043  1.00  0.00     0.002 A 
ENDROOT
BRANCH   5  14
HETATM   14  O   LIG     1       3.472  -1.478  -0.020  1.00  0.00    -0.345 OA
ATOM     15  HO  LIG     1       4.276  -0.973  -0.048  1.00  0.00     0.219 HD
ENDBRANCH   5  14
TORSDOF 1
