REMARK  1 active torsions:
REMARK  status: ('A' for Active; 'I' for Inactive)
REMARK       I    between atoms: N_1  and  C_2 
REMARK    1  A    between atoms: C_2  and  C_4 
ROOT
HETATM    1  N   LIG     1       0.819  -1.295  -0.338  1.00  0.00    -0.311 N 
HETATM    2  C   LIG     1       0.960  -2.635   0.078  1.00  0.00     0.282 C 
HETATM    3  C   LIG     1      -0.433  -0.635  -0.503  1.00  0.00     0.054 A 
HETATM    4  C   LIG     1      -0.703   0.597   0.124  1.00  0.00     0.027 A 
HETATM    5  S   LIG     1       0.415   1.420   1.254  1.00  0.00    -0.128 SA
HETATM    6  O   LIG     1       2.048  -3.213  -0.040  1.00  0.00    -0.265 OA
HETATM    7  C   LIG     1       1.971  -0.621  -0.940  1.00  0.00     0.133 C 
HETATM    8  C   LIG     1       2.661   0.370  -0.013  1.00  0.00     0.031 C 
HETATM    9  C   LIG     1      -1.415  -1.227  -1.316  1.00  0.00     0.031 A 
HETATM   10  C   LIG     1       1.861   1.650   0.179  1.00  0.00     0.081 C 
HETATM   11  C   LIG     1      -1.971   1.178  -0.033  1.00  0.00     0.021 A 
HETATM   12  C   LIG     1      -2.665  -0.628  -1.473  1.00  0.00     0.002 A 
HETATM   13  C   LIG     1      -2.946   0.570  -0.825  1.00  0.00     0.002 A 
ENDROOT
BRANCH   2  14
HETATM   14  C   LIG     1      -0.180  -3.351   0.636  1.00  0.00     0.142 A 
HETATM   15  O   LIG     1      -1.185  -2.693   1.294  1.00  0.00    -0.317 OA
HETATM   16  C   LIG     1      -2.105  -3.619   1.664  1.00  0.00     0.143 A 
HETATM   17  C   LIG     1      -1.701  -4.877   1.287  1.00  0.00     0.027 A 
HETATM   18  C   LIG     1      -0.449  -4.709   0.650  1.00  0.00     0.045 A 
ENDBRANCH   2  14
TORSDOF 1
