REMARK  3 active torsions:
REMARK  status: ('A' for Active; 'I' for Inactive)
REMARK    1  A    between atoms: N_1  and  C_7 
REMARK    2  A    between atoms: C_2  and  N_5 
REMARK    3  A    between atoms: C_4  and  C_7 
REMARK       I    between atoms: C_4  and  N_5 
ROOT
HETATM    1  C   LIG     1      -1.953  -1.618  -1.926  1.00  0.00     0.236 C 
HETATM    2  N   LIG     1      -3.294  -1.786  -2.210  1.00  0.00    -0.350 N 
ATOM      3  HN  LIG     1      -3.969  -1.365  -1.572  1.00  0.00     0.163 HD
HETATM    4  O   LIG     1      -1.046  -2.088  -2.610  1.00  0.00    -0.272 OA
ENDROOT
BRANCH   2   5
HETATM    5  C   LIG     1      -3.818  -2.529  -3.366  1.00  0.00     0.034 C 
HETATM    6  C   LIG     1      -5.369  -2.533  -3.295  1.00  0.00     0.035 C 
HETATM    7  C   LIG     1      -5.976  -3.296  -4.486  1.00  0.00    -0.012 C 
HETATM    8  C   LIG     1      -5.535  -2.624  -5.796  1.00  0.00     0.009 C 
HETATM    9  C   LIG     1      -5.472  -4.748  -4.468  1.00  0.00     0.009 C 
HETATM   10  C   LIG     1      -4.001  -2.633  -5.898  1.00  0.00    -0.012 C 
HETATM   11  C   LIG     1      -3.406  -1.864  -4.704  1.00  0.00     0.035 C 
HETATM   12  C   LIG     1      -3.499  -4.086  -5.867  1.00  0.00     0.009 C 
HETATM   13  C   LIG     1      -3.938  -4.770  -4.561  1.00  0.00    -0.012 C 
HETATM   14  C   LIG     1      -3.344  -4.006  -3.365  1.00  0.00     0.035 C 
ENDBRANCH   2   5
BRANCH   1  15
HETATM   15  C   LIG     1      -1.659  -0.860  -0.627  1.00  0.00     0.234 C 
BRANCH  15  16
HETATM   16  N   LIG     1      -1.497  -1.751   0.524  1.00  0.00    -0.316 N 
HETATM   17  C   LIG     1      -2.374  -1.626   1.597  1.00  0.00     0.247 A 
HETATM   18  C   LIG     1      -2.125  -2.524   2.759  1.00  0.00     0.074 A 
HETATM   19  O   LIG     1      -3.315  -0.833   1.642  1.00  0.00    -0.268 OA
HETATM   20  C   LIG     1      -1.122  -3.410   2.724  1.00  0.00     0.007 A 
HETATM   21  C   LIG     1      -0.268  -3.497   1.567  1.00  0.00     0.017 A 
HETATM   22  C   LIG     1      -0.465  -2.678   0.527  1.00  0.00     0.095 A 
ENDBRANCH  15  16
ENDBRANCH   1  15
TORSDOF 3
