REMARK  1 active torsions:
REMARK  status: ('A' for Active; 'I' for Inactive)
REMARK    1  A    between atoms: N_1  and  C_2 
ROOT
HETATM    1  N   LIG     1      -1.166   0.598   0.850  1.00  0.00    -0.282 NA
HETATM    2  C   LIG     1      -0.064   1.429   0.342  1.00  0.00     0.096 C 
HETATM    3  C   LIG     1      -1.536  -0.571   0.031  1.00  0.00     0.096 C 
HETATM    4  C   LIG     1      -0.405  -1.599  -0.044  1.00  0.00     0.015 C 
HETATM    5  C   LIG     1       1.272   0.780   0.697  1.00  0.00     0.015 C 
HETATM    6  C   LIG     1       1.776  -0.252  -0.309  1.00  0.00     0.001 C 
HETATM    7  C   LIG     1       0.734  -1.160  -0.959  1.00  0.00     0.001 C 
ENDROOT
BRANCH   1   8
HETATM    8  C   LIG     1      -2.349   1.342   1.150  1.00  0.00     0.035 A 
HETATM    9  C   LIG     1      -3.042   1.045   2.351  1.00  0.00     0.067 A 
HETATM   10  N   LIG     1      -2.605  -0.035   3.155  1.00  0.00    -0.101 NA
HETATM   11  C   LIG     1      -4.243   1.693   2.645  1.00  0.00     0.028 A 
HETATM   12  C   LIG     1      -4.728   2.690   1.798  1.00  0.00     0.002 A 
HETATM   13  C   LIG     1      -4.034   3.017   0.635  1.00  0.00     0.002 A 
HETATM   14  C   LIG     1      -2.856   2.341   0.307  1.00  0.00     0.025 A 
ENDBRANCH   1   8
TORSDOF 1
