REMARK  2 active torsions:
REMARK  status: ('A' for Active; 'I' for Inactive)
REMARK    1  A    between atoms: C_4  and  C_10 
REMARK    2  A    between atoms: C_10  and  N_12 
ROOT
HETATM    1  N   LIG     1      -0.930   1.267  -0.035  1.00  0.00    -0.270 N 
HETATM    2  C   LIG     1      -1.744   0.138  -0.056  1.00  0.00     0.330 A 
HETATM    3  C   LIG     1       0.457   1.238  -0.044  1.00  0.00     0.260 A 
HETATM    4  C   LIG     1       1.096  -0.099  -0.149  1.00  0.00     0.051 A 
HETATM    5  N   LIG     1      -1.076  -1.076  -0.187  1.00  0.00    -0.313 N 
HETATM    6  C   LIG     1       0.294  -1.165  -0.235  1.00  0.00     0.109 A 
HETATM    7  O   LIG     1      -2.971   0.204   0.044  1.00  0.00    -0.246 OA
HETATM    8  O   LIG     1       1.159   2.243   0.042  1.00  0.00    -0.267 OA
HETATM    9  C   LIG     1      -1.558   2.569   0.085  1.00  0.00     0.164 C 
HETATM   10  C   LIG     1      -1.841  -2.316  -0.221  1.00  0.00     0.160 C 
ENDROOT
BRANCH   4  11
HETATM   11  C   LIG     1       2.602  -0.120  -0.126  1.00  0.00     0.277 C 
BRANCH  11  12
HETATM   12  N   LIG     1       3.171  -1.478  -0.093  1.00  0.00    -0.075 N 
HETATM   13  C   LIG     1       4.629  -1.431  -0.104  1.00  0.00     0.267 C 
ATOM     14  HN2 LIG     1       2.817  -2.016   0.698  1.00  0.00     0.277 HD
ATOM     15  HN1 LIG     1       2.807  -2.058  -0.849  1.00  0.00     0.277 HD
ENDBRANCH  11  12
ENDBRANCH   4  11
TORSDOF 2
