REMARK  3 active torsions:
REMARK  status: ('A' for Active; 'I' for Inactive)
REMARK    1  A    between atoms: C_2  and  C_9 
REMARK       I    between atoms: C_6  and  N_7 
REMARK    2  A    between atoms: C_6  and  C_11 
REMARK    3  A    between atoms: N_7  and  C_9 
ROOT
HETATM    1  C   LIG     1       0.072  -4.416  -0.398  1.00  0.00     0.222 C 
HETATM    2  N   LIG     1       0.249  -3.053  -0.437  1.00  0.00    -0.355 N 
ATOM      3  HN  LIG     1       1.186  -2.672  -0.567  1.00  0.00     0.162 HD
HETATM    4  O   LIG     1      -1.035  -4.936  -0.272  1.00  0.00    -0.273 OA
ENDROOT
BRANCH   2   5
HETATM    5  C   LIG     1      -0.868  -2.156  -0.297  1.00  0.00     0.179 C 
BRANCH   5   6
HETATM    6  C   LIG     1      -0.359  -0.762  -0.391  1.00  0.00     0.029 A 
HETATM    7  N   LIG     1      -0.248  -0.063  -1.576  1.00  0.00    -0.357 N 
HETATM    8  C   LIG     1       0.192   1.218  -1.313  1.00  0.00     0.007 A 
HETATM    9  C   LIG     1      -0.540  -0.614  -2.885  1.00  0.00     0.156 C 
HETATM   10  C   LIG     1       0.412   1.311   0.047  1.00  0.00     0.027 A 
HETATM   11  C   LIG     1       0.373   2.260  -2.358  1.00  0.00     0.068 C 
HETATM   12  C   LIG     1       0.065   0.073   0.625  1.00  0.00     0.029 A 
ENDBRANCH   5   6
ENDBRANCH   2   5
BRANCH   1  13
HETATM   13  C   LIG     1       1.377  -5.208  -0.477  1.00  0.00     0.078 C 
HETATM   14  C   LIG     1       1.191  -6.586  -1.127  1.00  0.00     0.014 C 
HETATM   15  C   LIG     1       0.599  -7.641  -0.196  1.00  0.00     0.001 C 
HETATM   16  C   LIG     1       1.344  -7.707   1.131  1.00  0.00     0.000 C 
HETATM   17  C   LIG     1       1.394  -6.344   1.809  1.00  0.00     0.001 C 
HETATM   18  C   LIG     1       2.036  -5.291   0.906  1.00  0.00     0.014 C 
ENDBRANCH   1  13
TORSDOF 3
