REMARK  2 active torsions:
REMARK  status: ('A' for Active; 'I' for Inactive)
REMARK    1  A    between atoms: C_1  and  C_2 
REMARK       I    between atoms: C_2  and  N_7 
REMARK    2  A    between atoms: N_7  and  C_12 
ROOT
HETATM    1  C   LIG     1       0.693  -2.988  -1.037  1.00  0.00     0.268 C 
HETATM    2  N   LIG     1       0.401  -3.759   0.063  1.00  0.00    -0.351 N 
ATOM      3  HN  LIG     1       0.706  -3.433   0.980  1.00  0.00     0.163 HD
HETATM    4  O   LIG     1       0.360  -3.295  -2.176  1.00  0.00    -0.266 OA
ENDROOT
BRANCH   1   5
HETATM    5  C   LIG     1       1.431  -1.776  -0.749  1.00  0.00     0.102 A 
HETATM    6  C   LIG     1       1.903  -1.230   0.438  1.00  0.00     0.055 A 
HETATM    7  C   LIG     1       2.554  -0.023   0.118  1.00  0.00     0.028 A 
HETATM    8  C   LIG     1       2.484   0.165  -1.236  1.00  0.00     0.107 A 
HETATM    9 BR   LIG     1       3.363   1.101   1.377  1.00  0.00    -0.050 Br
HETATM   10  N   LIG     1       1.804  -0.905  -1.756  1.00  0.00    -0.360 N 
ATOM     11  HN  LIG     1       1.601  -1.040  -2.747  1.00  0.00     0.165 HD
ENDBRANCH   1   5
BRANCH   2  12
HETATM   12  C   LIG     1      -0.318  -5.010  -0.021  1.00  0.00     0.084 C 
HETATM   13  C   LIG     1      -0.637  -5.575   1.365  1.00  0.00     0.025 C 
HETATM   14  C   LIG     1      -0.640  -7.096   1.215  1.00  0.00     0.002 C 
HETATM   15  C   LIG     1      -0.227  -7.386  -0.223  1.00  0.00     0.002 C 
HETATM   16  C   LIG     1       0.484  -6.125  -0.687  1.00  0.00     0.025 C 
ENDBRANCH   2  12
TORSDOF 2
