REMARK  2 active torsions:
REMARK  status: ('A' for Active; 'I' for Inactive)
REMARK    1  A    between atoms: N_2  and  C_7 
REMARK    2  A    between atoms: C_7  and  C_14 
ROOT
HETATM    1  N   LIG     1       8.860  -2.669  -0.682  1.00  0.00    -0.191 NA
HETATM    2  C   LIG     1       7.878  -2.051  -0.671  1.00  0.00     0.099 C 
HETATM    3  C   LIG     1       6.663  -1.289  -0.664  1.00  0.00     0.044 A 
HETATM    4  C   LIG     1       4.281   0.205  -0.656  1.00  0.00    -0.030 A 
HETATM    5  C   LIG     1       6.162  -0.772   0.534  1.00  0.00     0.023 A 
HETATM    6  C   LIG     1       5.975  -1.060  -1.860  1.00  0.00     0.023 A 
HETATM    7  C   LIG     1       4.979  -0.027   0.538  1.00  0.00     0.010 A 
HETATM    8  C   LIG     1       4.792  -0.316  -1.855  1.00  0.00     0.010 A 
ENDROOT
BRANCH   4   9
HETATM    9  C   LIG     1       2.997   1.011  -0.664  1.00  0.00     0.312 C 
BRANCH   9  10
HETATM   10  N   LIG     1       1.903   0.444   0.157  1.00  0.00     0.104 N 
HETATM   11  C   LIG     1       0.718   1.352   0.094  1.00  0.00     0.269 C 
HETATM   12  C   LIG     1      -0.609   0.653   0.267  1.00  0.00     0.044 A 
HETATM   13  C   LIG     1       0.863   2.439   1.169  1.00  0.00     0.049 C 
HETATM   14  N   LIG     1      -0.698  -0.691   0.516  1.00  0.00    -0.357 N 
HETATM   15  C   LIG     1      -1.907   1.125   0.168  1.00  0.00     0.029 A 
HETATM   16  C   LIG     1      -2.003  -1.085   0.588  1.00  0.00     0.091 A 
HETATM   17  C   LIG     1       0.470  -1.539   0.590  1.00  0.00     0.158 C 
HETATM   18  C   LIG     1      -2.782   0.031   0.375  1.00  0.00     0.019 A 
HETATM   19  C   LIG     1       1.581  -0.935  -0.268  1.00  0.00     0.294 C 
ENDBRANCH   9  10
ENDBRANCH   4   9
TORSDOF 2
