REMARK  0 active torsions:
REMARK  status: ('A' for Active; 'I' for Inactive)
ROOT
HETATM    1  C   LIG     1      -2.366   0.780   0.191  1.00  0.00     0.322 C 
HETATM    2  N   LIG     1      -1.165   1.347  -0.151  1.00  0.00    -0.308 N 
ATOM      3  HN  LIG     1      -1.168   2.319  -0.461  1.00  0.00     0.170 HD
HETATM    4  N   LIG     1      -2.337  -0.556   0.521  1.00  0.00    -0.334 N 
HETATM    5  C   LIG     1       0.065  -0.701   0.056  1.00  0.00    -0.013 A 
HETATM    6  C   LIG     1       0.059   0.682  -0.102  1.00  0.00     0.044 A 
HETATM    7  C   LIG     1      -1.248  -1.416   0.089  1.00  0.00     0.168 C 
HETATM    8  O   LIG     1      -3.371   1.486   0.256  1.00  0.00    -0.247 OA
HETATM    9  C   LIG     1      -3.510  -1.194   1.084  1.00  0.00     0.154 C 
HETATM   10  C   LIG     1       1.286  -1.383   0.103  1.00  0.00     0.011 A 
HETATM   11  C   LIG     1       1.251   1.399  -0.178  1.00  0.00     0.030 A 
HETATM   12  C   LIG     1       2.484  -0.671   0.042  1.00  0.00     0.001 A 
HETATM   13  C   LIG     1       2.468   0.719  -0.091  1.00  0.00     0.002 A 
ENDROOT
TORSDOF 0
