REMARK  1 active torsions:
REMARK  status: ('A' for Active; 'I' for Inactive)
REMARK    1  A    between atoms: N_1  and  C_7 
ROOT
HETATM    1  N   LIG     1      -0.431   1.031   0.334  1.00  0.00    -0.223 N 
HETATM    2  N   LIG     1       0.908   0.715   0.182  1.00  0.00    -0.279 N 
ATOM      3  HN  LIG     1       1.691   1.369   0.178  1.00  0.00     0.189 HD
HETATM    4  C   LIG     1      -1.280  -0.085   0.291  1.00  0.00     0.250 A 
HETATM    5  C   LIG     1       0.976  -0.572   0.045  1.00  0.00     0.099 A 
HETATM    6  C   LIG     1      -0.360  -1.249   0.089  1.00  0.00     0.182 A 
HETATM    7  O   LIG     1      -2.494  -0.177   0.382  1.00  0.00    -0.271 OA
HETATM    8  N   LIG     1       2.132  -1.270  -0.132  1.00  0.00    -0.387 N 
ATOM      9  HN1 LIG     1       2.186  -2.283  -0.240  1.00  0.00     0.157 HD
ATOM     10  HN2 LIG     1       3.041  -0.809  -0.162  1.00  0.00     0.157 HD
ENDROOT
BRANCH   1  11
HETATM   11  C   LIG     1      -0.789   2.392   0.508  1.00  0.00     0.059 A 
HETATM   12  C   LIG     1      -2.122   2.795   0.666  1.00  0.00     0.031 A 
HETATM   13  C   LIG     1      -2.451   4.145   0.837  1.00  0.00     0.002 A 
HETATM   14  C   LIG     1      -1.453   5.114   0.853  1.00  0.00     0.000 A 
HETATM   15  C   LIG     1      -0.123   4.735   0.698  1.00  0.00     0.002 A 
HETATM   16  C   LIG     1       0.204   3.386   0.528  1.00  0.00     0.031 A 
ENDBRANCH   1  11
TORSDOF 1
