REMARK  1 active torsions:
REMARK  status: ('A' for Active; 'I' for Inactive)
REMARK       I    between atoms: N_1  and  C_2 
REMARK    1  A    between atoms: C_2  and  C_4 
ROOT
HETATM    1  N   LIG     1       0.830  -1.145  -0.661  1.00  0.00    -0.311 N 
HETATM    2  C   LIG     1       0.997  -2.537  -0.520  1.00  0.00     0.275 C 
HETATM    3  C   LIG     1      -0.418  -0.498  -0.879  1.00  0.00     0.054 A 
HETATM    4  C   LIG     1      -0.847   0.567  -0.062  1.00  0.00     0.027 A 
HETATM    5  S   LIG     1       0.015   1.126   1.406  1.00  0.00    -0.128 SA
HETATM    6  O   LIG     1       2.110  -3.068  -0.564  1.00  0.00    -0.265 OA
HETATM    7  C   LIG     1       2.016  -0.321  -0.894  1.00  0.00     0.133 C 
HETATM    8  C   LIG     1       2.499   0.420   0.343  1.00  0.00     0.031 C 
HETATM    9  C   LIG     1      -1.225  -0.917  -1.950  1.00  0.00     0.031 A 
HETATM   10  C   LIG     1       1.616   1.608   0.697  1.00  0.00     0.081 C 
HETATM   11  C   LIG     1      -2.094   1.159  -0.315  1.00  0.00     0.021 A 
HETATM   12  C   LIG     1      -2.458  -0.311  -2.192  1.00  0.00     0.002 A 
HETATM   13  C   LIG     1      -2.894   0.725  -1.373  1.00  0.00     0.002 A 
ENDROOT
BRANCH   2  14
HETATM   14  C   LIG     1      -0.186  -3.443  -0.320  1.00  0.00     0.101 A 
HETATM   15  N   LIG     1      -1.291  -2.955   0.297  1.00  0.00    -0.361 N 
HETATM   16  C   LIG     1      -2.364  -3.769   0.370  1.00  0.00     0.088 A 
ATOM     17  HN  LIG     1      -1.310  -2.013   0.689  1.00  0.00     0.165 HD
HETATM   18  C   LIG     1      -2.385  -5.063  -0.126  1.00  0.00     0.017 A 
HETATM   19  C   LIG     1      -1.229  -5.562  -0.715  1.00  0.00     0.004 A 
HETATM   20  C   LIG     1      -0.107  -4.744  -0.811  1.00  0.00     0.035 A 
ENDBRANCH   2  14
TORSDOF 1
