REMARK  0 active torsions:
REMARK  status: ('A' for Active; 'I' for Inactive)
ROOT
HETATM    1  N   LIG     1      -2.429  -0.694  -0.538  1.00  0.00    -0.294 N 
ATOM      2  HN  LIG     1      -3.141  -1.136  -1.119  1.00  0.00     0.171 HD
HETATM    3  C   LIG     1      -1.182  -1.271  -0.530  1.00  0.00     0.260 C 
HETATM    4  C   LIG     1      -0.024  -0.383  -0.003  1.00  0.00     0.206 C 
HETATM    5  N   LIG     1      -0.518   0.407   1.151  1.00  0.00    -0.049 N 
ATOM      6  HN1 LIG     1       0.229   0.979   1.546  1.00  0.00     0.279 HD
ATOM      7  HN2 LIG     1      -0.707  -0.197   1.951  1.00  0.00     0.279 HD
HETATM    8  C   LIG     1      -2.803   0.423   0.165  1.00  0.00     0.250 C 
HETATM    9  O   LIG     1      -1.026  -2.401  -0.989  1.00  0.00    -0.270 OA
HETATM   10  C   LIG     1      -1.693   1.230   0.828  1.00  0.00     0.336 C 
HETATM   11  O   LIG     1      -3.982   0.771   0.205  1.00  0.00    -0.271 OA
HETATM   12  C   LIG     1       1.132  -1.288   0.484  1.00  0.00     0.049 C 
HETATM   13  C   LIG     1       0.492   0.494  -1.169  1.00  0.00     0.049 C 
HETATM   14  C   LIG     1       1.747   1.290  -0.810  1.00  0.00     0.003 C 
HETATM   15  C   LIG     1       2.399  -0.511   0.849  1.00  0.00     0.003 C 
HETATM   16  C   LIG     1       2.862   0.383  -0.298  1.00  0.00     0.000 C 
ENDROOT
TORSDOF 0
