REMARK  2 active torsions:
REMARK  status: ('A' for Active; 'I' for Inactive)
REMARK    1  A    between atoms: N_1  and  C_7 
REMARK    2  A    between atoms: C_7  and  C_8 
ROOT
HETATM    1  N   LIG     1       2.278  -0.608  -0.091  1.00  0.00    -0.259 N 
HETATM    2  C   LIG     1       2.323   0.781  -0.082  1.00  0.00     0.332 A 
HETATM    3  C   LIG     1       1.118  -1.367  -0.106  1.00  0.00     0.264 A 
HETATM    4  N   LIG     1       1.101   1.447  -0.026  1.00  0.00    -0.303 N 
HETATM    5  C   LIG     1      -0.156  -0.633  -0.074  1.00  0.00     0.059 A 
HETATM    6  C   LIG     1      -0.141   0.759  -0.027  1.00  0.00     0.054 A 
HETATM    7  O   LIG     1       3.389   1.398  -0.142  1.00  0.00    -0.246 OA
HETATM    8  O   LIG     1       1.101  -2.596  -0.150  1.00  0.00    -0.267 OA
HETATM    9  C   LIG     1       1.117   2.904   0.029  1.00  0.00     0.161 C 
HETATM   10  C   LIG     1      -1.367  -1.344  -0.088  1.00  0.00     0.019 A 
HETATM   11  C   LIG     1      -1.372   1.434   0.009  1.00  0.00     0.031 A 
HETATM   12  C   LIG     1      -2.579  -0.660  -0.054  1.00  0.00     0.001 A 
HETATM   13  C   LIG     1      -2.581   0.729  -0.004  1.00  0.00     0.002 A 
ENDROOT
BRANCH   1  14
HETATM   14  C   LIG     1       3.545  -1.323  -0.082  1.00  0.00     0.202 C 
BRANCH  14  15
HETATM   15  C   LIG     1       3.954  -1.596   1.325  1.00  0.00     0.071 A 
HETATM   16  O   LIG     1       4.730  -0.652   1.933  1.00  0.00    -0.325 OA
HETATM   17  C   LIG     1       4.980  -1.091   3.192  1.00  0.00     0.142 A 
HETATM   18  C   LIG     1       4.383  -2.310   3.403  1.00  0.00     0.027 A 
HETATM   19  C   LIG     1       3.718  -2.639   2.197  1.00  0.00     0.036 A 
ENDBRANCH  14  15
ENDBRANCH   1  14
TORSDOF 2
