REMARK  3 active torsions:
REMARK  status: ('A' for Active; 'I' for Inactive)
REMARK    1  A    between atoms: C_1  and  C_5 
REMARK       I    between atoms: C_5  and  N_8 
REMARK    2  A    between atoms: N_8  and  C_13 
REMARK    3  A    between atoms: C_13  and  C_15 
ROOT
HETATM    1  C   LIG     1      -0.041  -2.694   0.962  1.00  0.00     0.268 C 
HETATM    2  N   LIG     1       0.137  -3.504  -0.131  1.00  0.00    -0.351 N 
ATOM      3  HN  LIG     1       0.224  -3.083  -1.056  1.00  0.00     0.163 HD
HETATM    4  O   LIG     1      -0.154  -3.136   2.102  1.00  0.00    -0.266 OA
ENDROOT
BRANCH   2   5
HETATM    5  C   LIG     1       0.204  -4.939   0.000  1.00  0.00     0.161 C 
BRANCH   5   6
HETATM    6  C   LIG     1       0.382  -5.610  -1.335  1.00  0.00    -0.038 A 
HETATM    7  C   LIG     1       1.506  -5.352  -2.128  1.00  0.00     0.025 A 
HETATM    8  C   LIG     1       1.624  -6.000  -3.348  1.00  0.00     0.088 A 
HETATM    9  N   LIG     1       0.715  -6.877  -3.823  1.00  0.00    -0.375 N 
HETATM   10  C   LIG     1      -0.359  -7.119  -3.043  1.00  0.00     0.088 A 
ATOM     11  HN  LIG     1       0.834  -7.334  -4.727  1.00  0.00     0.164 HD
HETATM   12  C   LIG     1      -0.569  -6.518  -1.811  1.00  0.00     0.025 A 
ENDBRANCH   5   6
ENDBRANCH   2   5
BRANCH   1  13
HETATM   13  C   LIG     1      -0.083  -1.275   0.676  1.00  0.00     0.102 A 
HETATM   14  C   LIG     1       0.042  -0.557  -0.509  1.00  0.00     0.055 A 
HETATM   15  C   LIG     1      -0.060   0.810  -0.185  1.00  0.00     0.028 A 
HETATM   16  C   LIG     1      -0.248   0.927   1.166  1.00  0.00     0.107 A 
HETATM   17 BR   LIG     1       0.056   2.197  -1.436  1.00  0.00    -0.050 Br
HETATM   18  N   LIG     1      -0.268  -0.342   1.680  1.00  0.00    -0.360 N 
ATOM     19  HN  LIG     1      -0.401  -0.568   2.666  1.00  0.00     0.165 HD
ENDBRANCH   1  13
TORSDOF 3
