REMARK  1 active torsions:
REMARK  status: ('A' for Active; 'I' for Inactive)
REMARK    1  A    between atoms: C_1  and  C_5 
ROOT
HETATM    1  C   LIG     1      -2.469   0.094  -0.024  1.00  0.00     0.029 A 
HETATM    2  C   LIG     1      -1.679   1.190  -0.011  1.00  0.00    -0.038 A 
HETATM    3  C   LIG     1      -0.290   0.717  -0.001  1.00  0.00    -0.023 A 
HETATM    4  C   LIG     1      -1.682  -1.198  -0.004  1.00  0.00     0.085 A 
HETATM    5  C   LIG     1      -0.278  -0.683   0.004  1.00  0.00    -0.043 A 
HETATM    6  C   LIG     1      -1.993   2.643   0.009  1.00  0.00     0.050 C 
HETATM    7  C   LIG     1       0.901   1.427   0.001  1.00  0.00     0.012 A 
HETATM    8  C   LIG     1       0.907  -1.402   0.013  1.00  0.00     0.008 A 
HETATM    9  C   LIG     1       2.105   0.714   0.009  1.00  0.00     0.001 A 
HETATM   10  C   LIG     1       2.107  -0.690   0.015  1.00  0.00     0.001 A 
ENDROOT
BRANCH   1  11
HETATM   11  C   LIG     1      -3.928  -0.031  -0.053  1.00  0.00     0.206 C 
HETATM   12  O   LIG     1      -4.538  -1.078   0.082  1.00  0.00    -0.644 OA
HETATM   13  O   LIG     1      -4.577   1.116  -0.291  1.00  0.00    -0.644 OA
ENDBRANCH   1  11
TORSDOF 1
