REMARK  3 active torsions:
REMARK  status: ('A' for Active; 'I' for Inactive)
REMARK       I    between atoms: C_1  and  N_2 
REMARK    1  A    between atoms: C_1  and  C_9 
REMARK    2  A    between atoms: N_2  and  C_4 
REMARK    3  A    between atoms: C_4  and  C_8 
ROOT
HETATM    1  C   LIG     1      -0.446   0.075   0.762  1.00  0.00     0.222 C 
HETATM    2  N   LIG     1      -0.741   0.110  -0.577  1.00  0.00    -0.351 N 
ATOM      3  HN  LIG     1       0.024   0.188  -1.247  1.00  0.00     0.163 HD
HETATM    4  O   LIG     1      -1.323  -0.029   1.622  1.00  0.00    -0.273 OA
ENDROOT
BRANCH   2   5
HETATM    5  C   LIG     1      -2.113   0.040  -1.077  1.00  0.00     0.130 C 
HETATM    6  C   LIG     1      -2.637  -1.398  -1.121  1.00  0.00     0.039 C 
BRANCH   5   7
HETATM    7  C   LIG     1      -2.214   0.705  -2.445  1.00  0.00     0.031 A 
HETATM    8  N   LIG     1      -1.416   0.239  -3.445  1.00  0.00    -0.367 N 
HETATM    9  C   LIG     1      -1.494   0.866  -4.643  1.00  0.00     0.088 A 
ATOM     10  HN  LIG     1      -0.786  -0.549  -3.298  1.00  0.00     0.165 HD
HETATM   11  C   LIG     1      -2.310   1.957  -4.894  1.00  0.00     0.017 A 
HETATM   12  C   LIG     1      -3.110   2.428  -3.862  1.00  0.00     0.003 A 
HETATM   13  C   LIG     1      -3.068   1.794  -2.623  1.00  0.00     0.027 A 
ENDBRANCH   5   7
ENDBRANCH   2   5
BRANCH   1  14
HETATM   14  C   LIG     1       1.042   0.142   1.094  1.00  0.00     0.078 C 
HETATM   15  C   LIG     1       1.326   0.112   2.610  1.00  0.00     0.014 C 
HETATM   16  C   LIG     1       2.082   1.397   2.926  1.00  0.00     0.001 C 
HETATM   17  C   LIG     1       2.773   1.742   1.621  1.00  0.00     0.001 C 
HETATM   18  C   LIG     1       1.711   1.425   0.579  1.00  0.00     0.014 C 
ENDBRANCH   1  14
TORSDOF 3
