REMARK  3 active torsions:
REMARK  status: ('A' for Active; 'I' for Inactive)
REMARK    1  A    between atoms: C_1  and  C_2 
REMARK       I    between atoms: C_1  and  N_3 
REMARK    2  A    between atoms: N_3  and  C_13 
REMARK    3  A    between atoms: C_13  and  C_14 
ROOT
HETATM    1  C   LIG     1       0.802   0.187  -0.178  1.00  0.00     0.251 C 
HETATM    2  N   LIG     1       1.161   0.219  -1.512  1.00  0.00    -0.353 N 
ATOM      3  HN  LIG     1       0.873   1.009  -2.090  1.00  0.00     0.163 HD
HETATM    4  O   LIG     1       1.114  -0.719   0.584  1.00  0.00    -0.268 OA
ENDROOT
BRANCH   1   5
HETATM    5  C   LIG     1      -0.032   1.332   0.301  1.00  0.00     0.032 A 
HETATM    6  C   LIG     1      -0.911   1.134   1.376  1.00  0.00     0.029 A 
HETATM    7  C   LIG     1      -1.700   2.191   1.870  1.00  0.00    -0.025 A 
HETATM    8  C   LIG     1      -1.594   3.471   1.280  1.00  0.00    -0.026 A 
HETATM    9  C   LIG     1      -2.595   2.004   2.937  1.00  0.00     0.012 A 
HETATM   10  C   LIG     1      -0.708   3.659   0.207  1.00  0.00     0.013 A 
HETATM   11  C   LIG     1      -2.375   4.528   1.780  1.00  0.00     0.012 A 
HETATM   12  C   LIG     1       0.067   2.600  -0.278  1.00  0.00     0.018 A 
HETATM   13  C   LIG     1      -3.256   4.324   2.844  1.00  0.00     0.001 A 
HETATM   14  C   LIG     1      -3.368   3.063   3.419  1.00  0.00     0.001 A 
ENDBRANCH   1   5
BRANCH   2  15
HETATM   15  C   LIG     1       1.939  -0.849  -2.104  1.00  0.00     0.161 C 
BRANCH  15  16
HETATM   16  C   LIG     1       2.166  -0.606  -3.573  1.00  0.00    -0.038 A 
HETATM   17  C   LIG     1       1.274  -1.102  -4.529  1.00  0.00     0.025 A 
HETATM   18  C   LIG     1       1.520  -0.842  -5.870  1.00  0.00     0.088 A 
HETATM   19  N   LIG     1       2.573  -0.125  -6.315  1.00  0.00    -0.375 N 
HETATM   20  C   LIG     1       3.420   0.351  -5.379  1.00  0.00     0.088 A 
ATOM     21  HN  LIG     1       2.721   0.048  -7.309  1.00  0.00     0.164 HD
HETATM   22  C   LIG     1       3.259   0.146  -4.016  1.00  0.00     0.025 A 
ENDBRANCH  15  16
ENDBRANCH   2  15
TORSDOF 3
