REMARK  1 active torsions:
REMARK  status: ('A' for Active; 'I' for Inactive)
REMARK    1  A    between atoms: C_1  and  C_9 
ROOT
HETATM    1  C   LIG     1      -0.273   1.481   0.112  1.00  0.00     0.099 A 
HETATM    2  C   LIG     1      -1.165   0.359  -0.252  1.00  0.00     0.262 A 
HETATM    3  C   LIG     1       1.026   1.187   0.326  1.00  0.00     0.026 A 
HETATM    4  N   LIG     1      -0.580  -0.871  -0.319  1.00  0.00    -0.312 N 
ATOM      5  HN  LIG     1      -1.154  -1.678  -0.562  1.00  0.00     0.170 HD
HETATM    6  N   LIG     1       1.546  -0.090   0.233  1.00  0.00    -0.349 N 
ATOM      7  HN  LIG     1       2.537  -0.265   0.401  1.00  0.00     0.167 HD
HETATM    8  C   LIG     1       0.745  -1.056  -0.072  1.00  0.00     0.080 A 
HETATM    9  O   LIG     1      -2.360   0.507  -0.482  1.00  0.00    -0.267 OA
HETATM   10  C   LIG     1       2.071   2.227   0.654  1.00  0.00     0.069 C 
HETATM   11  C   LIG     1       1.257  -2.462  -0.182  1.00  0.00     0.089 C 
ENDROOT
BRANCH   1  12
HETATM   12  C   LIG     1      -0.806   2.865   0.230  1.00  0.00     0.163 C 
HETATM   13  O   LIG     1      -0.492   3.587   1.177  1.00  0.00    -0.293 OA
HETATM   14  C   LIG     1      -1.744   3.358  -0.841  1.00  0.00     0.097 C 
ENDBRANCH   1  12
TORSDOF 1
