REMARK  4 active torsions:
REMARK  status: ('A' for Active; 'I' for Inactive)
REMARK    1  A    between atoms: N_1  and  C_5 
REMARK    2  A    between atoms: C_5  and  C_7 
REMARK    3  A    between atoms: C_7  and  C_10 
REMARK    4  A    between atoms: C_7  and  O_11 
ROOT
HETATM    1  N   LIG     1      -1.697  -0.025  -0.478  1.00  0.00    -0.285 N 
HETATM    2  C   LIG     1      -0.417  -0.497  -0.447  1.00  0.00     0.235 C 
HETATM    3  C   LIG     1      -1.981   0.761   0.598  1.00  0.00     0.227 C 
HETATM    4  C   LIG     1       0.382   0.286   0.589  1.00  0.00     0.050 C 
HETATM    5  C   LIG     1      -0.740   0.931   1.422  1.00  0.00     0.122 C 
HETATM    6  O   LIG     1       0.026  -1.396  -1.149  1.00  0.00    -0.272 OA
HETATM    7  O   LIG     1      -3.076   1.200   0.922  1.00  0.00    -0.273 OA
HETATM    8  C   LIG     1       1.220   1.381  -0.105  1.00  0.00     0.020 C 
HETATM    9  C   LIG     1       1.246  -0.632   1.471  1.00  0.00     0.020 C 
HETATM   10  C   LIG     1       2.531  -1.116   0.802  1.00  0.00     0.001 C 
HETATM   11  C   LIG     1       2.489   0.846  -0.767  1.00  0.00     0.001 C 
HETATM   12  C   LIG     1       3.332   0.035   0.209  1.00  0.00     0.000 C 
ENDROOT
BRANCH   1  13
HETATM   13  C   LIG     1      -2.720  -0.513  -1.399  1.00  0.00     0.171 C 
BRANCH  13  14
HETATM   14  C   LIG     1      -2.374  -0.259  -2.881  1.00  0.00     0.169 C 
BRANCH  14  15
HETATM   15  C   LIG     1      -3.438  -0.777  -3.832  1.00  0.00    -0.028 A 
HETATM   16  C   LIG     1      -3.123  -1.774  -4.769  1.00  0.00     0.010 A 
HETATM   17  C   LIG     1      -4.092  -2.244  -5.660  1.00  0.00     0.001 A 
HETATM   18  C   LIG     1      -5.385  -1.725  -5.627  1.00  0.00     0.000 A 
HETATM   19  C   LIG     1      -5.710  -0.731  -4.706  1.00  0.00     0.001 A 
HETATM   20  C   LIG     1      -4.743  -0.257  -3.817  1.00  0.00     0.010 A 
ENDBRANCH  14  15
BRANCH  14  21
HETATM   21  O   LIG     1      -2.199   1.146  -3.104  1.00  0.00    -0.389 OA
ATOM     22  HO  LIG     1      -1.986   1.302  -4.016  1.00  0.00     0.210 HD
ENDBRANCH  14  21
ENDBRANCH  13  14
ENDBRANCH   1  13
TORSDOF 4
