REMARK  2 active torsions:
REMARK  status: ('A' for Active; 'I' for Inactive)
REMARK    1  A    between atoms: N_1  and  C_5 
REMARK    2  A    between atoms: C_5  and  C_6 
REMARK       I    between atoms: C_6  and  N_8 
ROOT
HETATM    1  N   LIG     1       2.959  -0.268   0.275  1.00  0.00    -0.248 N 
HETATM    2  C   LIG     1       1.970   0.056   1.198  1.00  0.00     0.273 A 
HETATM    3  N   LIG     1       3.744   0.660  -0.385  1.00  0.00    -0.306 N 
ATOM      4  HN  LIG     1       4.464   0.364  -1.044  1.00  0.00     0.186 HD
HETATM    5  C   LIG     1       1.736   1.490   1.438  1.00  0.00     0.045 A 
HETATM    6  C   LIG     1       3.538   1.914  -0.142  1.00  0.00     0.119 A 
HETATM    7  C   LIG     1       2.513   2.419   0.762  1.00  0.00    -0.004 A 
HETATM    8  O   LIG     1       1.270  -0.775   1.778  1.00  0.00    -0.266 OA
HETATM    9  C   LIG     1       0.725   1.934   2.300  1.00  0.00     0.018 A 
HETATM   10  C   LIG     1       2.297   3.790   0.914  1.00  0.00     0.014 A 
HETATM   11  C   LIG     1       0.495   3.303   2.456  1.00  0.00     0.001 A 
HETATM   12  C   LIG     1       1.278   4.229   1.762  1.00  0.00     0.001 A 
ENDROOT
BRANCH   1  13
HETATM   13  C   LIG     1       3.205  -1.673  -0.041  1.00  0.00     0.255 C 
BRANCH  13  14
HETATM   14  C   LIG     1       4.209  -2.332   0.915  1.00  0.00     0.239 C 
HETATM   15  N   LIG     1       4.510  -3.687   0.698  1.00  0.00    -0.351 N 
HETATM   16  C   LIG     1       5.507  -4.313   1.568  1.00  0.00     0.126 C 
HETATM   17  C   LIG     1       3.859  -4.547  -0.292  1.00  0.00     0.126 C 
HETATM   18  C   LIG     1       4.854  -5.128   2.678  1.00  0.00     0.020 C 
HETATM   19  C   LIG     1       4.527  -6.570   2.291  1.00  0.00     0.002 C 
HETATM   20  C   LIG     1       4.002  -6.810   0.876  1.00  0.00     0.002 C 
HETATM   21  C   LIG     1       3.085  -5.719   0.324  1.00  0.00     0.020 C 
HETATM   22  O   LIG     1       4.752  -1.696   1.823  1.00  0.00    -0.271 OA
ENDBRANCH  13  14
ENDBRANCH   1  13
TORSDOF 2
