REMARK  3 active torsions:
REMARK  status: ('A' for Active; 'I' for Inactive)
REMARK    1  A    between atoms: C_1  and  C_2 
REMARK       I    between atoms: C_2  and  N_3 
REMARK    2  A    between atoms: N_3  and  C_9 
REMARK    3  A    between atoms: C_9  and  C_15 
ROOT
HETATM    1  C   LIG     1       0.242  -4.922  -0.996  1.00  0.00     0.164 C 
ENDROOT
BRANCH   1   2
HETATM    2  N   LIG     1       0.768  -3.560  -1.071  1.00  0.00    -0.348 N 
HETATM    3  C   LIG     1      -0.133  -2.491  -1.039  1.00  0.00     0.255 C 
HETATM    4  O   LIG     1      -1.345  -2.677  -0.898  1.00  0.00    -0.267 OA
HETATM    5  C   LIG     1       2.216  -3.424  -1.074  1.00  0.00     0.153 C 
BRANCH   3   6
HETATM    6  C   LIG     1       0.373  -1.124  -1.146  1.00  0.00     0.056 A 
HETATM    7  C   LIG     1      -0.253  -0.033  -0.568  1.00  0.00     0.158 A 
HETATM    8  O   LIG     1       0.433   1.114  -0.803  1.00  0.00    -0.334 OA
HETATM    9  C   LIG     1       1.495   0.782  -1.576  1.00  0.00     0.142 A 
HETATM   10  C   LIG     1       1.487  -0.566  -1.844  1.00  0.00     0.043 A 
ENDBRANCH   3   6
ENDBRANCH   1   2
BRANCH   1  11
HETATM   11  C   LIG     1       0.626  -5.770  -2.190  1.00  0.00    -0.037 A 
HETATM   12  C   LIG     1       0.204  -5.398  -3.477  1.00  0.00     0.048 A 
HETATM   13  C   LIG     1       0.531  -6.221  -4.533  1.00  0.00     0.105 A 
HETATM   14  C   LIG     1       1.250  -7.379  -4.355  1.00  0.00     0.105 A 
HETATM   15  O   LIG     1       0.191  -6.016  -5.833  1.00  0.00    -0.323 OA
HETATM   16  C   LIG     1       1.691  -7.774  -3.111  1.00  0.00     0.040 A 
HETATM   17  O   LIG     1       1.448  -8.051  -5.520  1.00  0.00    -0.323 OA
HETATM   18  C   LIG     1       1.374  -6.959  -2.019  1.00  0.00     0.012 A 
HETATM   19  C   LIG     1       0.763  -7.187  -6.451  1.00  0.00     0.352 A 
ENDBRANCH   1  11
TORSDOF 3
