REMARK  2 active torsions:
REMARK  status: ('A' for Active; 'I' for Inactive)
REMARK    1  A    between atoms: C_4  and  C_8 
REMARK    2  A    between atoms: N_7  and  C_8 
ROOT
HETATM    1  C   LIG     1      -1.783  -0.929  -0.435  1.00  0.00     0.331 A 
HETATM    2  N   LIG     1      -2.774   0.048  -0.440  1.00  0.00    -0.271 N 
HETATM    3  N   LIG     1      -0.461  -0.470  -0.437  1.00  0.00    -0.306 N 
HETATM    4  C   LIG     1      -0.141   0.887  -0.442  1.00  0.00     0.049 A 
HETATM    5  C   LIG     1      -2.530   1.402  -0.468  1.00  0.00     0.253 A 
HETATM    6  C   LIG     1      -1.119   1.801  -0.449  1.00  0.00     0.101 A 
HETATM    7  O   LIG     1      -2.069  -2.129  -0.425  1.00  0.00    -0.246 OA
HETATM    8  O   LIG     1      -3.386   2.279  -0.504  1.00  0.00    -0.268 OA
HETATM    9  C   LIG     1      -4.150  -0.409  -0.435  1.00  0.00     0.164 C 
HETATM   10  C   LIG     1       0.596  -1.478  -0.418  1.00  0.00     0.161 C 
ENDROOT
BRANCH   4  11
HETATM   11  C   LIG     1       1.308   1.369  -0.422  1.00  0.00     0.329 C 
BRANCH  11  12
HETATM   12  N   LIG     1       2.143   0.969  -1.560  1.00  0.00     0.094 N 
HETATM   13  C   LIG     1       3.535   1.432  -1.457  1.00  0.00     0.277 C 
HETATM   14  C   LIG     1       3.851   2.858  -1.965  1.00  0.00     0.010 C 
HETATM   15  C   LIG     1       3.164   3.140  -3.308  1.00  0.00     0.007 C 
HETATM   16  C   LIG     1       3.549   3.959  -0.948  1.00  0.00     0.011 C 
HETATM   17  C   LIG     1       1.701   2.712  -3.300  1.00  0.00     0.031 C 
HETATM   18  C   LIG     1       1.580   1.251  -2.883  1.00  0.00     0.273 C 
ENDBRANCH  11  12
ENDBRANCH   4  11
TORSDOF 2
