REMARK  2 active torsions:
REMARK  status: ('A' for Active; 'I' for Inactive)
REMARK       I    between atoms: N_1  and  C_3 
REMARK    1  A    between atoms: C_3  and  C_7 
REMARK    2  A    between atoms: N_4  and  C_7 
ROOT
HETATM    1  N   LIG     1      -3.452  -0.299  -2.958  1.00  0.00     0.097 N 
HETATM    2  C   LIG     1      -4.881   0.042  -3.067  1.00  0.00     0.278 C 
HETATM    3  C   LIG     1      -5.126   1.422  -3.685  1.00  0.00     0.018 C 
HETATM    4  C   LIG     1      -4.471   1.533  -5.070  1.00  0.00    -0.007 C 
HETATM    5  C   LIG     1      -2.825  -0.244  -4.288  1.00  0.00     0.273 C 
HETATM    6  C   LIG     1      -3.001   1.095  -5.018  1.00  0.00     0.035 C 
HETATM    7  C   LIG     1      -6.620   1.742  -3.798  1.00  0.00     0.007 C 
HETATM    8  C   LIG     1      -4.618   2.969  -5.594  1.00  0.00     0.005 C 
HETATM    9  C   LIG     1      -6.806   3.175  -4.292  1.00  0.00     0.000 C 
HETATM   10  C   LIG     1      -6.078   3.429  -5.612  1.00  0.00     0.000 C 
ENDROOT
BRANCH   1  11
HETATM   11  C   LIG     1      -2.706   0.517  -1.962  1.00  0.00     0.375 C 
BRANCH  11  12
HETATM   12  C   LIG     1      -3.197   0.301  -0.513  1.00  0.00     0.256 C 
HETATM   13  N   LIG     1      -2.582   1.066   0.477  1.00  0.00    -0.267 N 
HETATM   14  C   LIG     1      -1.553   2.018   0.386  1.00  0.00     0.325 C 
HETATM   15  C   LIG     1      -2.909   0.834   1.869  1.00  0.00     0.156 C 
HETATM   16  N   LIG     1      -1.266   2.463   1.670  1.00  0.00    -0.341 N 
HETATM   17  O   LIG     1      -0.992   2.435  -0.618  1.00  0.00    -0.247 OA
HETATM   18  C   LIG     1      -2.203   1.943   2.624  1.00  0.00     0.145 C 
ATOM     19  HN  LIG     1      -0.489   3.080   1.905  1.00  0.00     0.164 HD
HETATM   20  O   LIG     1      -4.076  -0.507  -0.199  1.00  0.00    -0.271 OA
ENDBRANCH  11  12
ENDBRANCH   1  11
TORSDOF 2
