REMARK  3 active torsions:
REMARK  status: ('A' for Active; 'I' for Inactive)
REMARK    1  A    between atoms: N_3  and  C_12 
REMARK    2  A    between atoms: C_4  and  C_12 
REMARK       I    between atoms: C_4  and  N_5 
REMARK    3  A    between atoms: N_5  and  C_7 
ROOT
HETATM    1  C   LIG     1      -0.419  -4.493  -1.021  1.00  0.00     0.236 C 
HETATM    2  N   LIG     1       0.615  -5.406  -1.070  1.00  0.00    -0.351 N 
ATOM      3  HN  LIG     1       0.886  -5.891  -0.215  1.00  0.00     0.163 HD
HETATM    4  O   LIG     1      -0.813  -3.871  -2.001  1.00  0.00    -0.272 OA
ENDROOT
BRANCH   2   5
HETATM    5  C   LIG     1       1.333  -5.699  -2.305  1.00  0.00     0.118 C 
HETATM    6  C   LIG     1       2.743  -6.146  -1.973  1.00  0.00    -0.029 A 
HETATM    7  C   LIG     1       3.116  -7.503  -1.998  1.00  0.00    -0.050 A 
HETATM    8  C   LIG     1       3.698  -5.179  -1.609  1.00  0.00     0.010 A 
HETATM    9  C   LIG     1       2.167  -8.586  -2.446  1.00  0.00     0.039 C 
HETATM   10  C   LIG     1       4.436  -7.861  -1.676  1.00  0.00     0.007 A 
HETATM   11  C   LIG     1       0.711  -8.143  -2.566  1.00  0.00     0.007 C 
HETATM   12  C   LIG     1       0.592  -6.741  -3.157  1.00  0.00     0.030 C 
HETATM   13  C   LIG     1       5.374  -6.890  -1.328  1.00  0.00     0.001 A 
HETATM   14  C   LIG     1       5.005  -5.549  -1.296  1.00  0.00     0.001 A 
ENDBRANCH   2   5
BRANCH   1  15
HETATM   15  C   LIG     1      -1.049  -4.319   0.347  1.00  0.00     0.231 C 
BRANCH  15  16
HETATM   16  N   LIG     1      -0.404  -3.270   1.106  1.00  0.00    -0.343 N 
HETATM   17  C   LIG     1      -0.788  -1.961   1.149  1.00  0.00     0.182 A 
HETATM   18  N   LIG     1      -0.024  -1.267   1.963  1.00  0.00    -0.361 N 
HETATM   19  C   LIG     1       0.883  -2.163   2.464  1.00  0.00     0.106 A 
ATOM     20  HN  LIG     1      -0.092  -0.272   2.176  1.00  0.00     0.166 HD
HETATM   21  C   LIG     1       0.657  -3.421   1.955  1.00  0.00     0.109 A 
ENDBRANCH  15  16
ENDBRANCH   1  15
TORSDOF 3
