REMARK  2 active torsions:
REMARK  status: ('A' for Active; 'I' for Inactive)
REMARK    1  A    between atoms: C_1  and  C_3 
REMARK    2  A    between atoms: N_2  and  C_10 
REMARK       I    between atoms: C_3  and  N_4 
ROOT
HETATM    1  C   LIG     1       1.982   3.560  -2.746  1.00  0.00     0.124 A 
HETATM    2  N   LIG     1       1.509   2.483  -3.514  1.00  0.00    -0.302 N 
HETATM    3  N   LIG     1       1.922   4.177  -4.947  1.00  0.00    -0.359 N 
ATOM      4  HN  LIG     1       2.025   4.720  -5.804  1.00  0.00     0.166 HD
HETATM    5  C   LIG     1       1.538   2.930  -4.825  1.00  0.00     0.189 A 
HETATM    6  C   LIG     1       2.151   4.581  -3.670  1.00  0.00     0.124 A 
ENDROOT
BRANCH   1   7
HETATM    7  C   LIG     1       2.059   3.682  -1.302  1.00  0.00     0.272 C 
HETATM    8  N   LIG     1       3.061   4.501  -0.729  1.00  0.00    -0.342 N 
HETATM    9  C   LIG     1       3.116   4.491   0.741  1.00  0.00     0.157 C 
HETATM   10  C   LIG     1       4.365   4.733  -1.368  1.00  0.00     0.152 C 
HETATM   11  C   LIG     1       3.993   5.598   1.353  1.00  0.00     0.135 C 
HETATM   12  O   LIG     1       5.274   5.672   0.709  1.00  0.00    -0.383 OA
HETATM   13  C   LIG     1       3.306   6.962   1.386  1.00  0.00     0.041 C 
HETATM   14  C   LIG     1       5.162   5.861  -0.704  1.00  0.00     0.188 C 
HETATM   15  O   LIG     1       1.241   3.123  -0.571  1.00  0.00    -0.266 OA
ENDBRANCH   1   7
BRANCH   2  16
HETATM   16  C   LIG     1       1.090   1.162  -3.147  1.00  0.00     0.040 A 
HETATM   17  C   LIG     1       1.511   0.548  -1.964  1.00  0.00     0.030 A 
HETATM   18  C   LIG     1       1.075  -0.744  -1.639  1.00  0.00     0.002 A 
HETATM   19  C   LIG     1       0.229  -1.444  -2.496  1.00  0.00     0.000 A 
HETATM   20  C   LIG     1      -0.181  -0.856  -3.686  1.00  0.00     0.002 A 
HETATM   21  C   LIG     1       0.243   0.434  -4.012  1.00  0.00     0.030 A 
ENDBRANCH   2  16
TORSDOF 2
