REMARK  4 active torsions:
REMARK  status: ('A' for Active; 'I' for Inactive)
REMARK    1  A    between atoms: N_1  and  C_2 
REMARK    2  A    between atoms: C_2  and  C_3 
REMARK    3  A    between atoms: C_2  and  C_10 
REMARK    4  A    between atoms: N_4  and  C_10 
ROOT
HETATM    1  C   LIG     1      -2.721   0.811  -0.518  1.00  0.00     0.107 C 
ENDROOT
BRANCH   1   2
HETATM    2  N   LIG     1      -1.414   0.504   0.164  1.00  0.00    -0.406 N 
HETATM    3  C   LIG     1      -0.295   1.231  -0.440  1.00  0.00     0.117 C 
HETATM    4  C   LIG     1       0.989   1.249   0.392  1.00  0.00     0.019 C 
HETATM    5  C   LIG     1       1.923   0.084   0.078  1.00  0.00     0.002 C 
HETATM    6  C   LIG     1       1.224  -1.262  -0.057  1.00  0.00     0.002 C 
HETATM    7  C   LIG     1       0.128  -1.446   0.984  1.00  0.00     0.019 C 
HETATM    8  C   LIG     1      -1.239  -0.901   0.549  1.00  0.00     0.117 C 
ENDBRANCH   1   2
BRANCH   1   9
HETATM    9  C   LIG     1      -2.773   0.488  -2.063  1.00  0.00     0.002 C 
HETATM   10  C   LIG     1      -2.543  -0.975  -2.447  1.00  0.00     0.011 C 
HETATM   11  C   LIG     1      -4.057   0.966  -2.754  1.00  0.00     0.011 C 
ENDBRANCH   1   9
BRANCH   1  12
HETATM   12  C   LIG     1      -3.924   0.284   0.334  1.00  0.00     0.254 C 
BRANCH  12  13
HETATM   13  N   LIG     1      -5.247   0.790  -0.035  1.00  0.00    -0.077 N 
ATOM     14  HN3 LIG     1      -5.240   1.810  -0.029  1.00  0.00     0.274 HD
ATOM     15  HN2 LIG     1      -5.421   0.613  -1.024  1.00  0.00     0.274 HD
ATOM     16  HN1 LIG     1      -6.031   0.447   0.520  1.00  0.00     0.274 HD
ENDBRANCH  12  13
ENDBRANCH   1  12
TORSDOF 4
