REMARK  4 active torsions:
REMARK  status: ('A' for Active; 'I' for Inactive)
REMARK    1  A    between atoms: N_1  and  C_2 
REMARK    2  A    between atoms: C_2  and  C_3 
REMARK    3  A    between atoms: C_2  and  C_10 
REMARK    4  A    between atoms: N_4  and  C_10 
ROOT
HETATM    1  C   LIG     1      -1.590  -1.632   1.020  1.00  0.00     0.251 C 
ENDROOT
BRANCH   1   2
HETATM    2  N   LIG     1      -0.796  -0.571   0.349  1.00  0.00     0.095 N 
HETATM    3  C   LIG     1      -1.259   0.809   0.537  1.00  0.00     0.273 C 
HETATM    4  C   LIG     1      -1.616   1.318  -0.847  1.00  0.00     0.032 C 
HETATM    5  C   LIG     1      -0.657   0.567  -1.744  1.00  0.00     0.032 C 
HETATM    6  C   LIG     1      -0.549  -0.797  -1.080  1.00  0.00     0.273 C 
ENDBRANCH   1   2
BRANCH   1   7
HETATM    7  C   LIG     1      -1.346  -1.570   2.571  1.00  0.00     0.012 C 
HETATM    8  C   LIG     1      -2.101  -2.639   3.371  1.00  0.00     0.012 C 
HETATM    9  C   LIG     1       0.148  -1.711   2.914  1.00  0.00     0.012 C 
ENDBRANCH   1   7
BRANCH   1  10
HETATM   10  C   LIG     1      -3.099  -1.606   0.599  1.00  0.00     0.265 C 
BRANCH  10  11
HETATM   11  N   LIG     1      -3.897  -2.760   1.011  1.00  0.00    -0.077 N 
ATOM     12  HN3 LIG     1      -3.459  -3.620   0.680  1.00  0.00     0.274 HD
ATOM     13  HN2 LIG     1      -3.821  -2.892   2.020  1.00  0.00     0.274 HD
ATOM     14  HN1 LIG     1      -4.879  -2.743   0.737  1.00  0.00     0.274 HD
ENDBRANCH  10  11
ENDBRANCH   1  10
TORSDOF 4
