REMARK  3 active torsions:
REMARK  status: ('A' for Active; 'I' for Inactive)
REMARK    1  A    between atoms: C_1  and  C_2 
REMARK       I    between atoms: C_1  and  N_3 
REMARK    2  A    between atoms: N_3  and  C_11 
REMARK    3  A    between atoms: C_12  and  O_17 
ROOT
HETATM    1  C   LIG     1       0.621   0.173   0.119  1.00  0.00     0.252 C 
HETATM    2  N   LIG     1       1.156   0.746  -1.017  1.00  0.00    -0.352 N 
ATOM      3  HN  LIG     1       1.013   0.284  -1.915  1.00  0.00     0.163 HD
HETATM    4  O   LIG     1       0.735   0.644   1.242  1.00  0.00    -0.268 OA
ENDROOT
BRANCH   1   5
HETATM    5  C   LIG     1      -0.154  -1.081  -0.089  1.00  0.00     0.032 A 
HETATM    6  C   LIG     1      -1.139  -1.414   0.847  1.00  0.00     0.029 A 
HETATM    7  C   LIG     1      -1.893  -2.589   0.707  1.00  0.00    -0.025 A 
HETATM    8  C   LIG     1      -1.646  -3.445  -0.392  1.00  0.00    -0.026 A 
HETATM    9  C   LIG     1      -2.885  -2.932   1.638  1.00  0.00     0.012 A 
HETATM   10  C   LIG     1      -0.644  -3.109  -1.316  1.00  0.00     0.013 A 
HETATM   11  C   LIG     1      -2.401  -4.619  -0.529  1.00  0.00     0.012 A 
HETATM   12  C   LIG     1       0.104  -1.940  -1.163  1.00  0.00     0.018 A 
HETATM   13  C   LIG     1      -3.384  -4.947   0.406  1.00  0.00     0.001 A 
HETATM   14  C   LIG     1      -3.625  -4.105   1.488  1.00  0.00     0.001 A 
ENDBRANCH   1   5
BRANCH   2  15
HETATM   15  C   LIG     1       1.920   1.990  -0.980  1.00  0.00     0.084 C 
HETATM   16  C   LIG     1       2.266   2.434  -2.411  1.00  0.00     0.028 C 
HETATM   17  C   LIG     1       3.268   1.491  -3.081  1.00  0.00     0.034 C 
HETATM   18  C   LIG     1       4.526   1.301  -2.234  1.00  0.00     0.118 C 
HETATM   19  C   LIG     1       4.199   0.884  -0.802  1.00  0.00     0.034 C 
HETATM   20  C   LIG     1       3.211   1.851  -0.155  1.00  0.00     0.028 C 
BRANCH  18  21
HETATM   21  O   LIG     1       5.358   0.320  -2.843  1.00  0.00    -0.396 OA
ATOM     22  HO  LIG     1       5.561   0.579  -3.734  1.00  0.00     0.210 HD
ENDBRANCH  18  21
ENDBRANCH   2  15
TORSDOF 3
