REMARK  1 active torsions:
REMARK  status: ('A' for Active; 'I' for Inactive)
REMARK       I    between atoms: N_1  and  C_2 
REMARK       I    between atoms: C_2  and  N_4 
REMARK    1  A    between atoms: C_3  and  N_4 
ROOT
HETATM    1  C   LIG     1      -1.374   5.210  -0.255  1.00  0.00     0.035 C 
HETATM    2  C   LIG     1      -1.270   7.617  -1.057  1.00  0.00    -0.012 C 
HETATM    3  C   LIG     1      -3.509   6.498  -0.761  1.00  0.00    -0.012 C 
HETATM    4  C   LIG     1      -2.135   7.117   1.254  1.00  0.00    -0.012 C 
HETATM    5  C   LIG     1      -0.583   6.242  -1.095  1.00  0.00     0.035 C 
HETATM    6  C   LIG     1      -1.453   5.737   1.204  1.00  0.00     0.035 C 
HETATM    7  C   LIG     1      -2.828   5.120  -0.793  1.00  0.00     0.035 C 
HETATM    8  C   LIG     1      -1.332   8.109   0.398  1.00  0.00     0.009 C 
HETATM    9  C   LIG     1      -3.560   7.004   0.688  1.00  0.00     0.009 C 
HETATM   10  C   LIG     1      -2.696   7.486  -1.615  1.00  0.00     0.009 C 
ENDROOT
BRANCH   1  11
HETATM   11  N   LIG     1      -0.694   3.906  -0.271  1.00  0.00    -0.333 N 
HETATM   12  C   LIG     1      -0.603   3.127  -1.402  1.00  0.00     0.328 C 
HETATM   13  N   LIG     1      -0.029   1.881  -1.141  1.00  0.00    -0.270 N 
HETATM   14  O   LIG     1      -1.031   3.359  -2.526  1.00  0.00    -0.246 OA
HETATM   15  C   LIG     1      -0.441   0.692  -1.698  1.00  0.00     0.192 A 
HETATM   16  C   LIG     1       1.047   1.569  -0.333  1.00  0.00     0.119 A 
HETATM   17  N   LIG     1       0.273  -0.330  -1.283  1.00  0.00    -0.360 N 
HETATM   18  C   LIG     1       1.225   0.211  -0.463  1.00  0.00     0.106 A 
ATOM     19  HN  LIG     1       0.145  -1.314  -1.521  1.00  0.00     0.166 HD
ATOM     20  HN  LIG     1      -0.272   3.565   0.593  1.00  0.00     0.165 HD
ENDBRANCH   1  11
TORSDOF 1
