REMARK  2 active torsions:
REMARK  status: ('A' for Active; 'I' for Inactive)
REMARK    1  A    between atoms: C_1  and  C_2 
REMARK       I    between atoms: C_1  and  N_3 
REMARK    2  A    between atoms: N_3  and  C_7 
ROOT
HETATM    1  C   LIG     1       1.489  -0.255   0.821  1.00  0.00     0.228 C 
HETATM    2  N   LIG     1       0.737   0.914   0.917  1.00  0.00    -0.326 N 
ATOM      3  HN  LIG     1      -0.274   0.848   0.800  1.00  0.00     0.169 HD
HETATM    4  O   LIG     1       2.706  -0.308   0.918  1.00  0.00    -0.273 OA
ENDROOT
BRANCH   1   5
HETATM    5  C   LIG     1       0.652  -1.492   0.488  1.00  0.00     0.107 C 
HETATM    6  C   LIG     1       1.539  -2.736   0.346  1.00  0.00     0.057 C 
HETATM    7  C   LIG     1       0.797  -4.019   0.593  1.00  0.00    -0.024 A 
HETATM    8  C   LIG     1      -0.492  -4.016   1.127  1.00  0.00     0.075 A 
HETATM    9  C   LIG     1       1.427  -5.249   0.348  1.00  0.00     0.010 A 
HETATM   10  O   LIG     1      -1.204  -2.873   1.354  1.00  0.00    -0.350 OA
HETATM   11  C   LIG     1      -1.138  -5.216   1.426  1.00  0.00     0.037 A 
HETATM   12  C   LIG     1      -0.398  -1.714   1.569  1.00  0.00     0.190 C 
HETATM   13  C   LIG     1      -0.495  -6.433   1.205  1.00  0.00     0.003 A 
HETATM   14  C   LIG     1       0.784  -6.450   0.655  1.00  0.00     0.001 A 
ENDBRANCH   1   5
BRANCH   2  15
HETATM   15  C   LIG     1       1.300   2.190   1.168  1.00  0.00     0.040 A 
HETATM   16  C   LIG     1       0.766   3.329   0.537  1.00  0.00    -0.035 A 
HETATM   17  C   LIG     1      -0.421   3.278  -0.385  1.00  0.00     0.050 C 
HETATM   18  C   LIG     1       1.443   4.556   0.670  1.00  0.00     0.009 A 
HETATM   19  C   LIG     1       2.569   4.673   1.483  1.00  0.00     0.001 A 
HETATM   20  C   LIG     1       3.028   3.567   2.188  1.00  0.00     0.002 A 
HETATM   21  C   LIG     1       2.400   2.332   2.026  1.00  0.00     0.030 A 
ENDBRANCH   2  15
TORSDOF 2
