REMARK  1 active torsions:
REMARK  status: ('A' for Active; 'I' for Inactive)
REMARK       I    between atoms: N_1  and  C_2 
REMARK    1  A    between atoms: C_2  and  C_10 
ROOT
HETATM    1  N   LIG     1      -1.038  -0.790   0.343  1.00  0.00    -0.307 N 
HETATM    2  C   LIG     1      -1.076  -2.147   0.740  1.00  0.00     0.229 C 
HETATM    3  C   LIG     1       0.115   0.066   0.556  1.00  0.00     0.064 A 
HETATM    4  N   LIG     1      -0.878   1.849  -0.804  1.00  0.00    -0.324 N 
ATOM      5  HN  LIG     1      -0.770   2.772  -1.225  1.00  0.00     0.169 HD
HETATM    6  C   LIG     1      -2.029   1.172  -1.028  1.00  0.00     0.240 C 
HETATM    7  C   LIG     1       0.168   1.350  -0.028  1.00  0.00     0.061 A 
HETATM    8  C   LIG     1      -2.175  -0.183  -0.366  1.00  0.00     0.235 C 
HETATM    9  O   LIG     1      -0.136  -2.728   1.286  1.00  0.00    -0.273 OA
HETATM   10  O   LIG     1      -2.930   1.669  -1.705  1.00  0.00    -0.271 OA
HETATM   11  C   LIG     1       1.229  -0.312   1.322  1.00  0.00     0.032 A 
HETATM   12  C   LIG     1       1.282   2.190   0.128  1.00  0.00     0.032 A 
HETATM   13  C   LIG     1       2.344   0.526   1.479  1.00  0.00     0.002 A 
HETATM   14  C   LIG     1       2.373   1.775   0.879  1.00  0.00     0.002 A 
ENDROOT
BRANCH   2  15
HETATM   15  C   LIG     1      -2.365  -2.960   0.461  1.00  0.00     0.082 C 
HETATM   16  C   LIG     1      -2.079  -4.481   0.408  1.00  0.00     0.041 C 
HETATM   17  C   LIG     1      -2.213  -5.204   1.717  1.00  0.00    -0.030 C 
HETATM   18  C   LIG     1      -2.714  -4.638   2.822  1.00  0.00    -0.031 C 
HETATM   19  C   LIG     1      -3.225  -3.233   2.856  1.00  0.00     0.027 C 
HETATM   20  C   LIG     1      -3.488  -2.658   1.463  1.00  0.00     0.018 C 
ENDBRANCH   2  15
TORSDOF 1
