REMARK  2 active torsions:
REMARK  status: ('A' for Active; 'I' for Inactive)
REMARK    1  A    between atoms: C_1  and  C_2 
REMARK       I    between atoms: C_1  and  N_8 
REMARK    2  A    between atoms: N_8  and  C_13 
ROOT
HETATM    1  C   LIG     1       0.087  -0.316  -2.144  1.00  0.00     0.122 C 
HETATM    2  N   LIG     1       0.493  -2.280  -4.110  1.00  0.00    -0.327 N 
ATOM      3  HN  LIG     1       0.873  -3.004  -4.719  1.00  0.00     0.169 HD
HETATM    4  C   LIG     1      -0.161  -2.677  -2.976  1.00  0.00     0.223 C 
HETATM    5  C   LIG     1       0.372   0.068  -3.576  1.00  0.00    -0.018 A 
HETATM    6  C   LIG     1       0.674  -0.947  -4.488  1.00  0.00     0.042 A 
HETATM    7  C   LIG     1      -0.752  -1.590  -2.106  1.00  0.00     0.122 C 
HETATM    8  O   LIG     1      -0.342  -3.875  -2.747  1.00  0.00    -0.273 OA
HETATM    9  C   LIG     1       0.488   1.409  -3.964  1.00  0.00     0.010 A 
HETATM   10  C   LIG     1       1.171  -0.636  -5.750  1.00  0.00     0.030 A 
HETATM   11  C   LIG     1       0.949   1.721  -5.241  1.00  0.00     0.001 A 
HETATM   12  C   LIG     1       1.310   0.702  -6.124  1.00  0.00     0.002 A 
ENDROOT
BRANCH   1  13
HETATM   13  C   LIG     1       1.335  -0.484  -1.252  1.00  0.00     0.231 C 
HETATM   14  N   LIG     1       2.548  -0.137  -1.828  1.00  0.00    -0.327 N 
ATOM     15  HN  LIG     1       2.516   0.154  -2.805  1.00  0.00     0.169 HD
HETATM   16  O   LIG     1       1.192  -0.849  -0.085  1.00  0.00    -0.272 OA
BRANCH  14  17
HETATM   17  C   LIG     1       3.821  -0.139  -1.221  1.00  0.00     0.034 A 
HETATM   18  C   LIG     1       4.088  -0.710   0.023  1.00  0.00     0.029 A 
HETATM   19  C   LIG     1       5.364  -0.618   0.586  1.00  0.00     0.002 A 
HETATM   20  C   LIG     1       6.385   0.043  -0.093  1.00  0.00     0.000 A 
HETATM   21  C   LIG     1       6.139   0.588  -1.350  1.00  0.00     0.002 A 
HETATM   22  C   LIG     1       4.865   0.487  -1.916  1.00  0.00     0.029 A 
ENDBRANCH  14  17
ENDBRANCH   1  13
TORSDOF 2
