REMARK  3 active torsions:
REMARK  status: ('A' for Active; 'I' for Inactive)
REMARK    1  A    between atoms: N_2  and  C_9 
REMARK    2  A    between atoms: C_5  and  C_10 
REMARK       I    between atoms: C_5  and  N_7 
REMARK    3  A    between atoms: C_9  and  C_14 
ROOT
HETATM    1  C   LIG     1       1.070  -4.610   3.212  1.00  0.00     0.026 A 
HETATM    2  C   LIG     1       0.861  -3.245   3.438  1.00  0.00     0.017 A 
HETATM    3  C   LIG     1       1.575  -5.037   1.979  1.00  0.00     0.017 A 
HETATM    4  C   LIG     1       1.648  -2.736   1.195  1.00  0.00    -0.039 A 
HETATM    5  C   LIG     1       1.872  -4.105   0.982  1.00  0.00     0.010 A 
HETATM    6  C   LIG     1       1.151  -2.314   2.438  1.00  0.00     0.010 A 
ENDROOT
BRANCH   4   7
HETATM    7  C   LIG     1       1.929  -1.734   0.102  1.00  0.00     0.185 C 
BRANCH   7   8
HETATM    8  N   LIG     1       3.313  -1.303   0.110  1.00  0.00    -0.269 N 
HETATM    9  N   LIG     1       4.234  -1.999  -0.588  1.00  0.00    -0.019 NA
HETATM   10  N   LIG     1       5.397  -1.377  -0.447  1.00  0.00    -0.282 N 
HETATM   11  C   LIG     1       5.194  -0.267   0.328  1.00  0.00     0.074 A 
ATOM     12  HN  LIG     1       6.287  -1.674  -0.846  1.00  0.00     0.184 HD
HETATM   13  C   LIG     1       3.855  -0.187   0.695  1.00  0.00     0.077 A 
HETATM   14  C   LIG     1       6.091   0.722   0.756  1.00  0.00     0.033 A 
HETATM   15  C   LIG     1       3.344   0.854   1.480  1.00  0.00     0.033 A 
HETATM   16  C   LIG     1       4.254   1.835   1.896  1.00  0.00     0.002 A 
HETATM   17  C   LIG     1       5.604   1.773   1.542  1.00  0.00     0.002 A 
ENDBRANCH   7   8
ENDBRANCH   4   7
BRANCH   1  18
HETATM   18  C   LIG     1       0.660  -5.582   4.262  1.00  0.00     0.233 C 
HETATM   19  N   LIG     1       1.351  -6.779   4.312  1.00  0.00    -0.249 NA
HETATM   20  C   LIG     1       1.143  -7.796   5.348  1.00  0.00     0.100 C 
HETATM   21  C   LIG     1       2.812  -6.902   4.404  1.00  0.00     0.100 C 
HETATM   22  C   LIG     1       2.553  -8.286   5.009  1.00  0.00     0.030 C 
HETATM   23  O   LIG     1      -0.273  -5.310   5.010  1.00  0.00    -0.274 OA
ENDBRANCH   1  18
TORSDOF 3
