REMARK  2 active torsions:
REMARK  status: ('A' for Active; 'I' for Inactive)
REMARK    1  A    between atoms: C_9  and  C_11 
REMARK    2  A    between atoms: C_11  and  O_15 
ROOT
HETATM    1  C   LIG     1       0.386  -0.725   0.001  1.00  0.00     0.034 A 
HETATM    2  C   LIG     1       0.308   0.660  -0.029  1.00  0.00     0.134 A 
HETATM    3  N   LIG     1       2.519   0.102  -0.049  1.00  0.00    -0.301 N 
ATOM      4  HN  LIG     1       3.536   0.180  -0.067  1.00  0.00     0.187 HD
HETATM    5  N   LIG     1       1.604   1.100  -0.054  1.00  0.00    -0.280 N 
HETATM    6  C   LIG     1       1.775  -1.013  -0.015  1.00  0.00     0.036 A 
HETATM    7  N   LIG     1      -0.812   1.413  -0.030  1.00  0.00    -0.349 N 
ATOM      8  HN  LIG     1      -0.807   2.433  -0.056  1.00  0.00     0.167 HD
HETATM    9  C   LIG     1      -2.009  -0.725   0.046  1.00  0.00     0.055 A 
HETATM   10  C   LIG     1      -0.813  -1.454   0.040  1.00  0.00     0.036 A 
HETATM   11  C   LIG     1      -1.948   0.667   0.008  1.00  0.00     0.107 A 
HETATM   12  C   LIG     1       2.052   2.469  -0.077  1.00  0.00     0.179 C 
HETATM   13  C   LIG     1       2.421  -2.348   0.002  1.00  0.00     0.070 C 
ENDROOT
BRANCH   9  14
HETATM   14  C   LIG     1      -3.339  -1.370   0.101  1.00  0.00     0.294 C 
HETATM   15  O   LIG     1      -4.391  -0.752   0.104  1.00  0.00    -0.259 OA
BRANCH  14  16
HETATM   16  O   LIG     1      -3.206  -2.719   0.154  1.00  0.00    -0.322 OA
HETATM   17  C   LIG     1      -4.442  -3.430   0.235  1.00  0.00     0.213 C 
ENDBRANCH  14  16
ENDBRANCH   9  14
TORSDOF 2
