REMARK  3 active torsions:
REMARK  status: ('A' for Active; 'I' for Inactive)
REMARK    1  A    between atoms: N_1  and  C_7 
REMARK    2  A    between atoms: C_5  and  C_7 
REMARK    3  A    between atoms: C_10  and  O_16 
ROOT
HETATM    1  N   LIG     1       2.023  -0.473   0.423  1.00  0.00    -0.253 N 
HETATM    2  C   LIG     1       1.939   0.666   1.224  1.00  0.00     0.273 A 
HETATM    3  N   LIG     1       0.965  -0.987  -0.305  1.00  0.00    -0.306 N 
ATOM      4  HN  LIG     1       1.089  -1.810  -0.895  1.00  0.00     0.186 HD
HETATM    5  C   LIG     1       0.615   1.317   1.304  1.00  0.00     0.045 A 
HETATM    6  C   LIG     1      -0.186  -0.401  -0.221  1.00  0.00     0.119 A 
HETATM    7  C   LIG     1      -0.445   0.776   0.593  1.00  0.00    -0.004 A 
HETATM    8  O   LIG     1       2.879   1.147   1.856  1.00  0.00    -0.266 OA
HETATM    9  C   LIG     1       0.408   2.457   2.087  1.00  0.00     0.018 A 
HETATM   10  C   LIG     1      -1.720   1.341   0.652  1.00  0.00     0.014 A 
HETATM   11  C   LIG     1      -0.864   3.032   2.155  1.00  0.00     0.001 A 
HETATM   12  C   LIG     1      -1.927   2.473   1.443  1.00  0.00     0.001 A 
ENDROOT
BRANCH   1  13
HETATM   13  C   LIG     1       3.291  -1.198   0.317  1.00  0.00     0.194 C 
BRANCH  13  14
HETATM   14  C   LIG     1       3.393  -2.358   1.288  1.00  0.00    -0.004 A 
HETATM   15  C   LIG     1       2.948  -3.646   0.943  1.00  0.00     0.076 A 
HETATM   16  C   LIG     1       3.045  -4.686   1.873  1.00  0.00     0.038 A 
HETATM   17  C   LIG     1       3.573  -4.454   3.145  1.00  0.00     0.009 A 
HETATM   18  C   LIG     1       4.020  -3.181   3.506  1.00  0.00    -0.061 A 
HETATM   19  C   LIG     1       3.918  -2.138   2.577  1.00  0.00     0.018 A 
HETATM   20  C   LIG     1       4.571  -2.947   4.881  1.00  0.00     0.048 C 
BRANCH  15  21
HETATM   21  O   LIG     1       2.502  -3.825  -0.340  1.00  0.00    -0.355 OA
HETATM   22  C   LIG     1       1.516  -4.834  -0.523  1.00  0.00     0.210 C 
ENDBRANCH  15  21
ENDBRANCH  13  14
ENDBRANCH   1  13
TORSDOF 3
