REMARK  2 active torsions:
REMARK  status: ('A' for Active; 'I' for Inactive)
REMARK    1  A    between atoms: C_1  and  C_7 
REMARK    2  A    between atoms: C_5  and  C_8 
ROOT
HETATM    1  C   LIG     1      -0.247  -1.438   0.114  1.00  0.00     0.074 A 
HETATM    2  S   LIG     1       1.460  -1.551   0.163  1.00  0.00    -0.066 SA
HETATM    3  N   LIG     1       0.447   0.790  -0.056  1.00  0.00    -0.352 N 
ATOM      4  HN  LIG     1       0.347   1.799  -0.166  1.00  0.00     0.166 HD
HETATM    5  C   LIG     1       1.599   0.160   0.054  1.00  0.00     0.085 A 
HETATM    6  C   LIG     1      -0.613  -0.106  -0.002  1.00  0.00     0.027 A 
HETATM    7  C   LIG     1      -1.996   0.442  -0.074  1.00  0.00     0.070 C 
ENDROOT
BRANCH   5   8
HETATM    8  C   LIG     1       2.917   0.819   0.037  1.00  0.00    -0.002 A 
HETATM    9  C   LIG     1       3.064   2.041  -0.640  1.00  0.00     0.014 A 
HETATM   10  C   LIG     1       4.300   2.693  -0.686  1.00  0.00     0.001 A 
HETATM   11  C   LIG     1       5.405   2.139  -0.046  1.00  0.00     0.000 A 
HETATM   12  C   LIG     1       5.276   0.937   0.644  1.00  0.00     0.001 A 
HETATM   13  C   LIG     1       4.041   0.283   0.687  1.00  0.00     0.014 A 
ENDBRANCH   5   8
BRANCH   1  14
HETATM   14  C   LIG     1      -1.110  -2.607   0.191  1.00  0.00     0.164 C 
HETATM   15  O   LIG     1      -2.341  -2.522   0.198  1.00  0.00    -0.292 OA
HETATM   16  C   LIG     1      -0.476  -3.979   0.260  1.00  0.00     0.097 C 
ENDBRANCH   1  14
TORSDOF 2
