REMARK  4 active torsions:
REMARK  status: ('A' for Active; 'I' for Inactive)
REMARK       I    between atoms: C_1  and  N_2 
REMARK    1  A    between atoms: C_1  and  C_8 
REMARK    2  A    between atoms: N_2  and  C_4 
REMARK    3  A    between atoms: C_6  and  O_11 
REMARK    4  A    between atoms: C_8  and  C_10 
ROOT
HETATM    1  C   LIG     1       1.490   0.085   0.129  1.00  0.00     0.222 C 
HETATM    2  N   LIG     1       0.548  -0.189   1.105  1.00  0.00    -0.325 N 
ATOM      3  HN  LIG     1       0.888  -0.750   1.887  1.00  0.00     0.169 HD
HETATM    4  O   LIG     1       1.283   0.740  -0.891  1.00  0.00    -0.273 OA
ENDROOT
BRANCH   2   5
HETATM    5  C   LIG     1      -0.820   0.190   1.187  1.00  0.00     0.068 A 
HETATM    6  C   LIG     1      -1.545   0.976   0.279  1.00  0.00     0.092 A 
HETATM    7  C   LIG     1      -2.901   1.256   0.495  1.00  0.00     0.039 A 
HETATM    8  C   LIG     1      -3.563   0.760   1.613  1.00  0.00     0.003 A 
HETATM    9  C   LIG     1      -2.865  -0.015   2.529  1.00  0.00     0.002 A 
HETATM   10  C   LIG     1      -1.508  -0.293   2.318  1.00  0.00     0.032 A 
BRANCH   6  11
HETATM   11  O   LIG     1      -1.054   1.536  -0.863  1.00  0.00    -0.358 OA
ATOM     12  HO  LIG     1      -1.545   2.068  -1.478  1.00  0.00     0.217 HD
ENDBRANCH   6  11
ENDBRANCH   2   5
BRANCH   1  13
HETATM   13  C   LIG     1       2.840  -0.545   0.436  1.00  0.00     0.111 C 
BRANCH  13  14
HETATM   14  C   LIG     1       3.943  -0.263  -0.593  1.00  0.00     0.017 C 
HETATM   15  C   LIG     1       4.426   1.157  -0.696  1.00  0.00    -0.026 C 
HETATM   16  C   LIG     1       5.761   1.238  -0.718  1.00  0.00    -0.030 C 
HETATM   17  C   LIG     1       6.403  -0.104  -0.621  1.00  0.00     0.027 C 
HETATM   18  C   LIG     1       5.240  -0.999  -0.197  1.00  0.00     0.012 C 
ENDBRANCH  13  14
ENDBRANCH   1  13
TORSDOF 4
