REMARK  3 active torsions:
REMARK  status: ('A' for Active; 'I' for Inactive)
REMARK       I    between atoms: C_1  and  N_2 
REMARK    1  A    between atoms: C_1  and  C_4 
REMARK    2  A    between atoms: C_3  and  C_7 
REMARK    3  A    between atoms: C_3  and  O_13 
ROOT
HETATM    1  C   LIG     1       1.073  -0.302   0.307  1.00  0.00     0.248 C 
HETATM    2  N   LIG     1       0.100  -0.275   1.308  1.00  0.00    -0.350 N 
HETATM    3  C   LIG     1      -0.227  -1.408   2.172  1.00  0.00     0.127 C 
HETATM    4  C   LIG     1      -0.403   1.020   1.753  1.00  0.00     0.127 C 
HETATM    5  C   LIG     1      -2.292  -0.159   2.953  1.00  0.00     0.088 C 
HETATM    6  O   LIG     1       1.348   0.706  -0.350  1.00  0.00    -0.270 OA
HETATM    7  C   LIG     1      -1.725  -1.488   2.436  1.00  0.00     0.034 C 
HETATM    8  C   LIG     1      -1.904   0.977   1.996  1.00  0.00     0.034 C 
ENDROOT
BRANCH   1   9
HETATM    9  C   LIG     1       1.758  -1.657   0.015  1.00  0.00     0.213 C 
HETATM   10  O   LIG     1       2.442  -2.164   1.176  1.00  0.00    -0.376 OA
HETATM   11  C   LIG     1       3.811  -2.404   0.843  1.00  0.00     0.168 C 
HETATM   12  C   LIG     1       3.859  -2.549  -0.658  1.00  0.00     0.029 C 
HETATM   13  C   LIG     1       2.789  -1.587  -1.108  1.00  0.00     0.043 C 
ENDBRANCH   1   9
BRANCH   5  14
HETATM   14  C   LIG     1      -3.798  -0.281   3.114  1.00  0.00     0.262 C 
HETATM   15  O   LIG     1      -4.380  -1.327   3.385  1.00  0.00    -0.265 OA
BRANCH  14  16
HETATM   16  O   LIG     1      -4.409   0.925   2.976  1.00  0.00    -0.326 OA
HETATM   17  C   LIG     1      -5.833   0.884   3.067  1.00  0.00     0.213 C 
ENDBRANCH  14  16
ENDBRANCH   5  14
TORSDOF 3
