REMARK  0 active torsions:
REMARK  status: ('A' for Active; 'I' for Inactive)
ROOT
HETATM    1  C   LIG     1      -0.257   0.780   0.009  1.00  0.00     0.027 A 
HETATM    2  C   LIG     1      -0.215  -0.610  -0.007  1.00  0.00     0.116 A 
HETATM    3  N   LIG     1      -1.501  -1.075   0.029  1.00  0.00    -0.352 N 
ATOM      4  HN  LIG     1      -1.769  -2.059   0.031  1.00  0.00     0.166 HD
HETATM    5  N   LIG     1       0.876  -1.397  -0.051  1.00  0.00    -0.352 N 
ATOM      6  HN  LIG     1       0.835  -2.416  -0.058  1.00  0.00     0.166 HD
HETATM    7  C   LIG     1      -2.376  -0.020   0.062  1.00  0.00     0.090 A 
HETATM    8  C   LIG     1      -1.634   1.143   0.054  1.00  0.00     0.034 A 
HETATM    9  C   LIG     1       0.979   1.445  -0.024  1.00  0.00     0.026 A 
HETATM   10  C   LIG     1       2.033  -0.697  -0.085  1.00  0.00     0.091 A 
HETATM   11  C   LIG     1       2.146   0.685  -0.073  1.00  0.00     0.037 A 
HETATM   12 BR   LIG     1       1.082   3.331  -0.005  1.00  0.00    -0.050 Br
ENDROOT
TORSDOF 0
