REMARK  3 active torsions:
REMARK  status: ('A' for Active; 'I' for Inactive)
REMARK    1  A    between atoms: C_2  and  C_15 
REMARK    2  A    between atoms: N_7  and  C_14 
REMARK    3  A    between atoms: N_7  and  C_15 
ROOT
HETATM    1  N   LIG     1      -1.219  -2.205  -0.483  1.00  0.00    -0.065 N 
ATOM      2  HN1 LIG     1      -1.313  -2.104  -1.494  1.00  0.00     0.278 HD
ATOM      3  HN2 LIG     1      -2.201  -2.130  -0.217  1.00  0.00     0.278 HD
ENDROOT
BRANCH   1   4
HETATM    4  C   LIG     1      -0.432  -1.097   0.088  1.00  0.00     0.189 C 
HETATM    5  C   LIG     1       1.011  -1.063  -0.435  1.00  0.00     0.063 C 
HETATM    6  C   LIG     1       1.756   0.175   0.067  1.00  0.00     0.274 C 
HETATM    7  N   LIG     1       1.081   1.443  -0.225  1.00  0.00     0.084 N 
HETATM    8  C   LIG     1      -0.306   1.427   0.257  1.00  0.00     0.274 C 
HETATM    9  C   LIG     1       1.172   1.802  -1.640  1.00  0.00     0.309 C 
HETATM   10  C   LIG     1      -1.130   0.233  -0.236  1.00  0.00     0.063 C 
ENDBRANCH   1   4
BRANCH   1  11
HETATM   11  C   LIG     1      -0.679  -3.525  -0.135  1.00  0.00     0.297 C 
BRANCH  11  12
HETATM   12  C   LIG     1      -1.570  -4.613  -0.624  1.00  0.00     0.078 A 
HETATM   13  O   LIG     1      -2.086  -5.453   0.321  1.00  0.00    -0.325 OA
HETATM   14  C   LIG     1      -2.831  -6.380  -0.335  1.00  0.00     0.142 A 
HETATM   15  C   LIG     1      -2.805  -6.147  -1.692  1.00  0.00     0.027 A 
HETATM   16  C   LIG     1      -1.989  -5.006  -1.879  1.00  0.00     0.036 A 
ENDBRANCH  11  12
ENDBRANCH   1  11
TORSDOF 3
