REMARK  2 active torsions:
REMARK  status: ('A' for Active; 'I' for Inactive)
REMARK    1  A    between atoms: C_1  and  C_2 
REMARK       I    between atoms: C_1  and  N_5 
REMARK    2  A    between atoms: N_5  and  C_11 
ROOT
HETATM    1  N   LIG     1       3.241   3.179   0.793  1.00  0.00    -0.075 N 
ATOM      2  HN1 LIG     1       3.732   3.900   0.265  1.00  0.00     0.277 HD
ATOM      3  HN2 LIG     1       3.662   3.342   1.708  1.00  0.00     0.277 HD
HETATM    4  C   LIG     1       1.495   1.911  -1.208  1.00  0.00     0.087 C 
HETATM    5  C   LIG     1       1.172   3.264  -0.568  1.00  0.00     0.052 C 
HETATM    6  C   LIG     1       2.997   1.613  -1.117  1.00  0.00     0.052 C 
HETATM    7  C   LIG     1       3.548   1.839   0.289  1.00  0.00     0.234 C 
HETATM    8  C   LIG     1       1.799   3.416   0.815  1.00  0.00     0.234 C 
ENDROOT
BRANCH   4   9
HETATM    9  N   LIG     1       0.685   0.845  -0.626  1.00  0.00    -0.356 N 
HETATM   10  C   LIG     1       0.353  -0.283  -1.337  1.00  0.00     0.222 C 
HETATM   11  O   LIG     1       0.674  -0.487  -2.502  1.00  0.00    -0.273 OA
ATOM     12  HN  LIG     1       0.356   0.940   0.335  1.00  0.00     0.162 HD
BRANCH  10  13
HETATM   13  C   LIG     1      -0.429  -1.286  -0.561  1.00  0.00     0.078 A 
HETATM   14  C   LIG     1       0.132  -2.675  -0.358  1.00  0.00     0.015 A 
HETATM   15  C   LIG     1      -1.054  -2.475  -1.256  1.00  0.00     0.015 A 
ENDBRANCH  10  13
ENDBRANCH   4   9
TORSDOF 2
