REMARK  3 active torsions:
REMARK  status: ('A' for Active; 'I' for Inactive)
REMARK    1  A    between atoms: C_1  and  C_8 
REMARK    2  A    between atoms: N_7  and  C_8 
REMARK    3  A    between atoms: C_10  and  O_17 
ROOT
HETATM    1  C   LIG     1       1.145  -1.156  -0.577  1.00  0.00     0.012 A 
HETATM    2  C   LIG     1       0.036  -0.283  -0.678  1.00  0.00    -0.020 A 
HETATM    3  N   LIG     1      -0.839   1.988  -0.691  1.00  0.00    -0.327 N 
ATOM      4  HN  LIG     1      -0.633   2.984  -0.769  1.00  0.00     0.169 HD
HETATM    5  C   LIG     1       0.242   1.107  -0.575  1.00  0.00     0.041 A 
HETATM    6  C   LIG     1      -2.153   1.606  -0.707  1.00  0.00     0.222 C 
HETATM    7  C   LIG     1      -1.359  -0.742  -1.035  1.00  0.00     0.051 C 
HETATM    8  C   LIG     1       2.420  -0.587  -0.383  1.00  0.00     0.074 A 
HETATM    9  C   LIG     1       1.516   1.640  -0.380  1.00  0.00     0.033 A 
HETATM   10  O   LIG     1      -3.053   2.427  -0.840  1.00  0.00    -0.273 OA
HETATM   11  C   LIG     1       2.608   0.787  -0.276  1.00  0.00     0.039 A 
HETATM   12  C   LIG     1      -2.422   0.152  -0.423  1.00  0.00     0.108 C 
ENDROOT
BRANCH   1  13
HETATM   13  C   LIG     1       1.008  -2.668  -0.635  1.00  0.00     0.314 C 
BRANCH  13  14
HETATM   14  N   LIG     1       1.907  -3.308  -1.623  1.00  0.00     0.092 N 
HETATM   15  C   LIG     1       1.637  -2.876  -3.009  1.00  0.00     0.273 C 
HETATM   16  C   LIG     1       0.298  -3.359  -3.568  1.00  0.00     0.034 C 
HETATM   17  C   LIG     1       0.175  -4.883  -3.477  1.00  0.00    -0.015 C 
HETATM   18  C   LIG     1       0.497  -5.367  -2.058  1.00  0.00     0.034 C 
HETATM   19  C   LIG     1      -1.216  -5.337  -3.912  1.00  0.00     0.010 C 
HETATM   20  C   LIG     1       1.816  -4.780  -1.539  1.00  0.00     0.273 C 
ENDBRANCH  13  14
ENDBRANCH   1  13
BRANCH   8  21
HETATM   21  O   LIG     1       3.548  -1.363  -0.339  1.00  0.00    -0.360 OA
ATOM     22  HO  LIG     1       4.407  -0.980  -0.208  1.00  0.00     0.217 HD
ENDBRANCH   8  21
TORSDOF 3
