REMARK  0 active torsions:
REMARK  status: ('A' for Active; 'I' for Inactive)
ROOT
HETATM    1  C   LIG     1      -0.679   1.193   0.001  1.00  0.00     0.121 A 
HETATM    2  C   LIG     1      -1.448  -0.072  -0.000  1.00  0.00     0.283 A 
HETATM    3  N   LIG     1       0.682  -1.265  -0.002  1.00  0.00    -0.300 N 
ATOM      4  HN  LIG     1       1.186  -2.152  -0.003  1.00  0.00     0.187 HD
HETATM    5  N   LIG     1      -0.689  -1.236   0.001  1.00  0.00    -0.261 N 
HETATM    6  C   LIG     1       0.668   1.194   0.001  1.00  0.00    -0.012 A 
HETATM    7  C   LIG     1       1.321  -0.140  -0.003  1.00  0.00     0.029 A 
HETATM    8  C   LIG     1      -1.357   2.425   0.004  1.00  0.00     0.105 C 
HETATM    9  N   LIG     1      -1.912   3.433   0.006  1.00  0.00    -0.191 NA
HETATM   10  O   LIG     1      -2.676  -0.053  -0.001  1.00  0.00    -0.265 OA
HETATM   11  C   LIG     1      -1.335  -2.537   0.003  1.00  0.00     0.181 C 
HETATM   12  C   LIG     1       1.547   2.417   0.004  1.00  0.00     0.052 C 
HETATM   13  C   LIG     1       2.834  -0.204  -0.008  1.00  0.00     0.070 C 
ENDROOT
TORSDOF 0
