REMARK  3 active torsions:
REMARK  status: ('A' for Active; 'I' for Inactive)
REMARK    1  A    between atoms: C_3  and  C_10 
REMARK    2  A    between atoms: C_4  and  C_13 
REMARK    3  A    between atoms: N_8  and  C_10 
ROOT
HETATM    1  N   LIG     1      -0.010  -1.506  -0.182  1.00  0.00    -0.277 N 
ATOM      2  HN  LIG     1      -0.142  -2.513  -0.278  1.00  0.00     0.189 HD
HETATM    3  C   LIG     1      -0.384   0.609   0.056  1.00  0.00     0.159 A 
HETATM    4  C   LIG     1       1.139  -0.858  -0.180  1.00  0.00     0.174 A 
HETATM    5  O   LIG     1       0.974   0.494  -0.049  1.00  0.00    -0.276 OA
HETATM    6  N   LIG     1      -1.001  -0.552  -0.029  1.00  0.00    -0.280 N 
ATOM      7  HN  LIG     1      -2.007  -0.715   0.010  1.00  0.00     0.189 HD
ENDROOT
BRANCH   3   8
HETATM    8  C   LIG     1      -0.947   1.974   0.226  1.00  0.00     0.217 C 
BRANCH   8   9
HETATM    9  N   LIG     1      -0.465   2.601   1.458  1.00  0.00    -0.317 N 
HETATM   10  C   LIG     1       0.714   3.345   1.396  1.00  0.00     0.247 A 
HETATM   11  C   LIG     1       1.157   3.974   2.671  1.00  0.00     0.074 A 
HETATM   12  O   LIG     1       1.381   3.514   0.381  1.00  0.00    -0.268 OA
HETATM   13  C   LIG     1       0.444   3.805   3.791  1.00  0.00     0.007 A 
HETATM   14  C   LIG     1      -0.755   3.008   3.779  1.00  0.00     0.017 A 
HETATM   15  C   LIG     1      -1.168   2.433   2.642  1.00  0.00     0.094 A 
ENDBRANCH   8   9
ENDBRANCH   3   8
BRANCH   4  16
HETATM   16  C   LIG     1       2.508  -1.348  -0.273  1.00  0.00     0.017 A 
HETATM   17  C   LIG     1       3.605  -0.471  -0.233  1.00  0.00     0.016 A 
HETATM   18  C   LIG     1       4.912  -0.956  -0.318  1.00  0.00     0.001 A 
HETATM   19  C   LIG     1       5.140  -2.324  -0.445  1.00  0.00     0.000 A 
HETATM   20  C   LIG     1       4.064  -3.208  -0.483  1.00  0.00     0.001 A 
HETATM   21  C   LIG     1       2.756  -2.723  -0.398  1.00  0.00     0.016 A 
ENDBRANCH   4  16
TORSDOF 3
