REMARK  2 active torsions:
REMARK  status: ('A' for Active; 'I' for Inactive)
REMARK    1  A    between atoms: C_1  and  C_2 
REMARK       I    between atoms: C_1  and  N_3 
REMARK    2  A    between atoms: N_5  and  C_6 
ROOT
HETATM    1  C   LIG     1       1.233  -0.421   0.495  1.00  0.00     0.270 C 
HETATM    2  N   LIG     1       0.233  -1.394   0.481  1.00  0.00    -0.344 N 
HETATM    3  N   LIG     1      -1.378  -3.658  -0.352  1.00  0.00    -0.280 NA
HETATM    4  O   LIG     1       2.299  -0.654   1.049  1.00  0.00    -0.266 OA
HETATM    5  C   LIG     1       0.510  -2.722   1.029  1.00  0.00     0.141 C 
HETATM    6  C   LIG     1      -1.182  -1.217   0.125  1.00  0.00     0.141 C 
HETATM    7  C   LIG     1       0.030  -3.864   0.095  1.00  0.00     0.115 C 
HETATM    8  C   LIG     1      -1.604  -2.288  -0.894  1.00  0.00     0.115 C 
ENDROOT
BRANCH   1   9
HETATM    9  C   LIG     1       0.991   0.877  -0.152  1.00  0.00     0.102 A 
HETATM   10  N   LIG     1       1.562   2.066   0.292  1.00  0.00    -0.357 N 
HETATM   11  C   LIG     1       1.135   3.116  -0.484  1.00  0.00     0.091 A 
HETATM   12  C   LIG     1       2.473   2.211   1.408  1.00  0.00     0.156 C 
HETATM   13  C   LIG     1       0.359   2.609  -1.496  1.00  0.00     0.020 A 
HETATM   14  C   LIG     1       0.318   1.207  -1.315  1.00  0.00     0.037 A 
ENDBRANCH   1   9
BRANCH   3  15
HETATM   15  C   LIG     1      -1.828  -4.712  -1.198  1.00  0.00     0.017 A 
HETATM   16  C   LIG     1      -2.327  -5.930  -0.654  1.00  0.00    -0.035 A 
HETATM   17  C   LIG     1      -2.800  -6.955  -1.522  1.00  0.00    -0.054 A 
HETATM   18  C   LIG     1      -2.349  -6.137   0.842  1.00  0.00     0.050 C 
HETATM   19  C   LIG     1      -2.779  -6.758  -2.910  1.00  0.00     0.007 A 
HETATM   20  C   LIG     1      -3.340  -8.268  -1.015  1.00  0.00     0.049 C 
HETATM   21  C   LIG     1      -2.288  -5.579  -3.446  1.00  0.00     0.002 A 
HETATM   22  C   LIG     1      -1.814  -4.578  -2.601  1.00  0.00     0.024 A 
ENDBRANCH   3  15
TORSDOF 2
