REMARK  2 active torsions:
REMARK  status: ('A' for Active; 'I' for Inactive)
REMARK    1  A    between atoms: C_1  and  C_2 
REMARK       I    between atoms: C_2  and  N_6 
REMARK    2  A    between atoms: N_6  and  C_10 
ROOT
HETATM    1  C   LIG     1       0.850  -3.875   0.231  1.00  0.00     0.255 C 
HETATM    2  N   LIG     1       0.478  -5.195   0.321  1.00  0.00    -0.348 N 
ATOM      3  HN  LIG     1       1.163  -5.917   0.097  1.00  0.00     0.163 HD
HETATM    4  O   LIG     1       0.086  -2.948   0.488  1.00  0.00    -0.268 OA
ENDROOT
BRANCH   2   5
HETATM    5  C   LIG     1      -0.861  -5.598   0.725  1.00  0.00     0.122 C 
HETATM    6  C   LIG     1      -1.156  -6.976   0.193  1.00  0.00    -0.002 A 
HETATM    7  C   LIG     1      -1.180  -8.086   1.045  1.00  0.00     0.077 A 
HETATM    8  C   LIG     1      -1.415  -7.159  -1.174  1.00  0.00     0.012 A 
HETATM    9  O   LIG     1      -0.947  -8.019   2.392  1.00  0.00    -0.350 OA
HETATM   10  C   LIG     1      -1.494  -9.350   0.545  1.00  0.00     0.037 A 
HETATM   11  C   LIG     1      -0.377  -6.791   2.853  1.00  0.00     0.178 C 
HETATM   12  C   LIG     1      -1.056  -5.578   2.242  1.00  0.00     0.057 C 
HETATM   13  C   LIG     1      -1.761  -9.520  -0.814  1.00  0.00     0.003 A 
HETATM   14  C   LIG     1      -1.716  -8.425  -1.674  1.00  0.00     0.001 A 
ENDBRANCH   2   5
BRANCH   1  15
HETATM   15  C   LIG     1       2.231  -3.648  -0.153  1.00  0.00     0.065 A 
HETATM   16  C   LIG     1       3.078  -4.438  -0.912  1.00  0.00     0.128 A 
HETATM   17  N   LIG     1       4.261  -3.756  -0.999  1.00  0.00    -0.307 N 
HETATM   18  N   LIG     1       4.252  -2.584  -0.344  1.00  0.00    -0.309 N 
HETATM   19  C   LIG     1       5.444  -4.161  -1.722  1.00  0.00     0.177 C 
HETATM   20  C   LIG     1       3.014  -2.510   0.150  1.00  0.00     0.125 A 
ATOM     21  HN  LIG     1       5.011  -1.910  -0.247  1.00  0.00     0.186 HD
ENDBRANCH   1  15
TORSDOF 2
