REMARK  2 active torsions:
REMARK  status: ('A' for Active; 'I' for Inactive)
REMARK    1  A    between atoms: C_5  and  O_12 
REMARK    2  A    between atoms: O_12  and  C_14 
ROOT
HETATM    1  C   LIG     1       2.125  -1.433  -1.124  1.00  0.00     0.078 A 
HETATM    2  C   LIG     1       2.565  -2.733  -1.277  1.00  0.00     0.138 A 
HETATM    3  N   LIG     1       0.518  -2.824  -0.285  1.00  0.00    -0.307 N 
ATOM      4  HN  LIG     1      -0.335  -3.181   0.145  1.00  0.00     0.186 HD
HETATM    5  C   LIG     1       2.967  -0.431  -1.593  1.00  0.00     0.164 A 
HETATM    6  N   LIG     1       1.573  -3.525  -0.767  1.00  0.00    -0.281 N 
HETATM    7  C   LIG     1       0.865  -1.551  -0.508  1.00  0.00     0.127 A 
HETATM    8  N   LIG     1       3.733  -3.127  -1.821  1.00  0.00    -0.337 N 
ATOM      9  HN  LIG     1       4.019  -4.101  -1.923  1.00  0.00     0.168 HD
HETATM   10  N   LIG     1       4.168  -0.768  -2.126  1.00  0.00    -0.332 N 
ATOM     11  HN  LIG     1       4.819  -0.053  -2.451  1.00  0.00     0.168 HD
HETATM   12  C   LIG     1       4.474  -2.075  -2.213  1.00  0.00     0.184 A 
HETATM   13  C   LIG     1       1.559  -4.964  -0.705  1.00  0.00     0.179 C 
ENDROOT
BRANCH   5  14
HETATM   14  O   LIG     1       2.600   0.904  -1.482  1.00  0.00    -0.293 OA
BRANCH  14  15
HETATM   15  C   LIG     1       3.104   1.756  -2.436  1.00  0.00     0.077 A 
HETATM   16  C   LIG     1       2.950   1.513  -3.803  1.00  0.00     0.038 A 
HETATM   17  C   LIG     1       3.469   2.416  -4.732  1.00  0.00     0.009 A 
HETATM   18  C   LIG     1       4.132   3.573  -4.303  1.00  0.00    -0.062 A 
HETATM   19  C   LIG     1       4.229   3.835  -2.930  1.00  0.00     0.009 A 
HETATM   20  C   LIG     1       4.684   4.537  -5.311  1.00  0.00     0.048 C 
HETATM   21  C   LIG     1       3.714   2.930  -1.998  1.00  0.00     0.038 A 
ENDBRANCH  14  15
ENDBRANCH   5  14
TORSDOF 2
