REMARK  3 active torsions:
REMARK  status: ('A' for Active; 'I' for Inactive)
REMARK    1  A    between atoms: C_2  and  C_14 
REMARK       I    between atoms: C_8  and  N_10 
REMARK    2  A    between atoms: C_8  and  C_9 
REMARK    3  A    between atoms: N_10  and  C_14 
ROOT
HETATM    1  C   LIG     1      -0.862   4.255  -1.913  1.00  0.00     0.252 C 
HETATM    2  N   LIG     1       0.317   3.641  -2.275  1.00  0.00    -0.350 N 
ATOM      3  HN  LIG     1       0.638   3.719  -3.240  1.00  0.00     0.163 HD
HETATM    4  O   LIG     1      -1.325   4.214  -0.782  1.00  0.00    -0.268 OA
ENDROOT
BRANCH   2   5
HETATM    5  C   LIG     1       1.115   2.890  -1.331  1.00  0.00     0.201 C 
BRANCH   5   6
HETATM    6  C   LIG     1       0.730   1.459  -1.356  1.00  0.00     0.117 A 
HETATM    7  N   LIG     1      -0.136   0.873  -0.506  1.00  0.00    -0.323 N 
HETATM    8  C   LIG     1      -0.168  -0.453  -0.792  1.00  0.00     0.099 A 
HETATM    9  C   LIG     1      -0.962   1.230   0.621  1.00  0.00     0.132 C 
HETATM   10  N   LIG     1       0.627  -0.709  -1.794  1.00  0.00    -0.287 N 
HETATM   11  C   LIG     1      -1.056  -1.188   0.122  1.00  0.00     0.080 C 
HETATM   12  N   LIG     1       1.196   0.511  -2.160  1.00  0.00    -0.286 N 
ATOM     13  HN  LIG     1       0.798  -1.618  -2.223  1.00  0.00     0.188 HD
ATOM     14  HN  LIG     1       1.861   0.652  -2.921  1.00  0.00     0.188 HD
HETATM   15  C   LIG     1      -1.847  -0.024   0.775  1.00  0.00     0.028 C 
ENDBRANCH   5   6
ENDBRANCH   2   5
BRANCH   1  16
HETATM   16  C   LIG     1      -1.586   4.978  -2.996  1.00  0.00     0.032 A 
HETATM   17  C   LIG     1      -2.983   5.062  -2.937  1.00  0.00     0.024 A 
HETATM   18  C   LIG     1      -3.707   5.754  -3.925  1.00  0.00    -0.055 A 
HETATM   19  C   LIG     1      -3.012   6.353  -4.995  1.00  0.00    -0.056 A 
HETATM   20  C   LIG     1      -5.205   5.845  -3.813  1.00  0.00     0.049 C 
HETATM   21  C   LIG     1      -1.609   6.294  -5.023  1.00  0.00     0.008 A 
HETATM   22  C   LIG     1      -3.732   7.094  -6.089  1.00  0.00     0.049 C 
HETATM   23  C   LIG     1      -0.899   5.615  -4.032  1.00  0.00     0.017 A 
ENDBRANCH   1  16
TORSDOF 3
