REMARK  3 active torsions:
REMARK  status: ('A' for Active; 'I' for Inactive)
REMARK    1  A    between atoms: C_1  and  C_12 
REMARK       I    between atoms: C_2  and  N_3 
REMARK    2  A    between atoms: C_2  and  C_7 
REMARK    3  A    between atoms: N_9  and  C_12 
ROOT
HETATM    1  C   LIG     1      -0.541  -4.188   4.394  1.00  0.00     0.224 C 
HETATM    2  N   LIG     1      -1.395  -3.739   3.385  1.00  0.00    -0.348 N 
HETATM    3  N   LIG     1      -2.990  -2.605   1.164  1.00  0.00     0.095 N 
HETATM    4  O   LIG     1       0.099  -3.433   5.113  1.00  0.00    -0.273 OA
HETATM    5  C   LIG     1      -1.529  -2.289   3.215  1.00  0.00     0.156 C 
HETATM    6  C   LIG     1      -1.663  -4.531   2.183  1.00  0.00     0.156 C 
HETATM    7  C   LIG     1      -2.918  -4.061   1.421  1.00  0.00     0.292 C 
HETATM    8  C   LIG     1      -2.818  -1.912   2.461  1.00  0.00     0.292 C 
ENDROOT
BRANCH   3   9
HETATM    9  C   LIG     1      -1.999  -2.195   0.148  1.00  0.00     0.313 C 
BRANCH   9  10
HETATM   10  C   LIG     1      -2.082  -0.724  -0.148  1.00  0.00    -0.002 A 
HETATM   11  C   LIG     1      -3.185  -0.043  -0.633  1.00  0.00     0.098 A 
HETATM   12  N   LIG     1      -2.861   1.279  -0.762  1.00  0.00    -0.365 N 
HETATM   13  C   LIG     1      -1.557   1.490  -0.383  1.00  0.00     0.043 A 
ATOM     14  HN  LIG     1      -3.497   2.005  -1.092  1.00  0.00     0.165 HD
HETATM   15  C   LIG     1      -1.037   0.254   0.006  1.00  0.00    -0.000 A 
HETATM   16  C   LIG     1      -0.807   2.674  -0.359  1.00  0.00     0.030 A 
HETATM   17  C   LIG     1       0.306   0.208   0.444  1.00  0.00     0.014 A 
HETATM   18  C   LIG     1       1.065   1.386   0.487  1.00  0.00     0.001 A 
HETATM   19  C   LIG     1       0.515   2.600   0.087  1.00  0.00     0.002 A 
ENDBRANCH   9  10
ENDBRANCH   3   9
BRANCH   1  20
HETATM   20  C   LIG     1      -0.458  -5.668   4.606  1.00  0.00     0.078 A 
HETATM   21  C   LIG     1       0.064  -6.206   5.918  1.00  0.00     0.015 A 
HETATM   22  C   LIG     1       0.869  -6.385   4.663  1.00  0.00     0.015 A 
ENDBRANCH   1  20
TORSDOF 3
