REMARK  2 active torsions:
REMARK  status: ('A' for Active; 'I' for Inactive)
REMARK    1  A    between atoms: C_10  and  N_13 
REMARK       I    between atoms: C_11  and  N_13 
REMARK    2  A    between atoms: C_11  and  C_12 
ROOT
HETATM    1  C   LIG     1      -0.854   1.233   1.537  1.00  0.00     0.009 C 
HETATM    2  C   LIG     1      -1.560   0.618   0.318  1.00  0.00    -0.012 C 
HETATM    3  C   LIG     1       0.669   1.105   1.379  1.00  0.00    -0.012 C 
HETATM    4  C   LIG     1      -1.185  -0.873   0.214  1.00  0.00     0.035 C 
HETATM    5  C   LIG     1       1.042  -0.383   1.265  1.00  0.00     0.035 C 
HETATM    6  C   LIG     1       1.110   1.837   0.101  1.00  0.00     0.009 C 
HETATM    7  C   LIG     1       0.420   1.215  -1.123  1.00  0.00    -0.012 C 
HETATM    8  C   LIG     1      -1.103   1.343  -0.960  1.00  0.00     0.009 C 
HETATM    9  C   LIG     1       0.799  -0.273  -1.224  1.00  0.00     0.035 C 
HETATM   10  C   LIG     1       0.347  -1.042   0.042  1.00  0.00     0.034 C 
ENDROOT
BRANCH  10  11
HETATM   11  N   LIG     1       0.742  -2.457  -0.016  1.00  0.00    -0.351 N 
HETATM   12  C   LIG     1       0.337  -3.342  -0.990  1.00  0.00     0.222 C 
HETATM   13  O   LIG     1      -0.421  -3.075  -1.909  1.00  0.00    -0.273 OA
ATOM     14  HN  LIG     1       1.359  -2.808   0.716  1.00  0.00     0.163 HD
BRANCH  12  15
HETATM   15  C   LIG     1       0.895  -4.721  -0.838  1.00  0.00     0.078 A 
HETATM   16  C   LIG     1       0.894  -5.671  -2.017  1.00  0.00     0.015 A 
HETATM   17  C   LIG     1      -0.042  -5.908  -0.868  1.00  0.00     0.015 A 
ENDBRANCH  12  15
ENDBRANCH  10  11
TORSDOF 2
