REMARK  2 active torsions:
REMARK  status: ('A' for Active; 'I' for Inactive)
REMARK    1  A    between atoms: C_1  and  C_9 
REMARK       I    between atoms: N_4  and  C_7 
REMARK    2  A    between atoms: C_7  and  C_9 
ROOT
HETATM    1  N   LIG     1      -2.707  -1.055   2.836  1.00  0.00    -0.317 N 
HETATM    2  C   LIG     1      -1.719  -1.908   2.351  1.00  0.00     0.228 C 
HETATM    3  C   LIG     1      -4.095  -1.324   2.886  1.00  0.00     0.043 A 
HETATM    4  C   LIG     1      -2.493   0.302   3.356  1.00  0.00     0.137 C 
HETATM    5  C   LIG     1      -4.768  -0.273   3.517  1.00  0.00    -0.030 A 
HETATM    6  O   LIG     1      -1.946  -3.033   1.910  1.00  0.00    -0.273 OA
HETATM    7  C   LIG     1      -3.816   0.790   3.957  1.00  0.00     0.061 C 
HETATM    8  C   LIG     1      -4.806  -2.419   2.422  1.00  0.00     0.030 A 
HETATM    9  C   LIG     1      -6.142  -0.301   3.724  1.00  0.00     0.009 A 
HETATM   10  C   LIG     1      -6.197  -2.451   2.609  1.00  0.00     0.002 A 
HETATM   11  C   LIG     1      -6.860  -1.402   3.262  1.00  0.00     0.001 A 
ENDROOT
BRANCH   2  12
HETATM   12  C   LIG     1      -0.273  -1.377   2.341  1.00  0.00     0.146 C 
BRANCH  12  13
HETATM   13  C   LIG     1       0.472  -1.561   3.634  1.00  0.00    -0.002 C 
HETATM   14  C   LIG     1       0.770  -2.753   4.286  1.00  0.00     0.033 C 
HETATM   15  N   LIG     1       1.411  -2.401   5.445  1.00  0.00    -0.300 N 
HETATM   16  C   LIG     1       0.509  -4.166   3.907  1.00  0.00     0.070 C 
HETATM   17  N   LIG     1       1.676  -1.091   5.527  1.00  0.00    -0.303 N 
HETATM   18  C   LIG     1       1.842  -3.260   6.524  1.00  0.00     0.177 C 
HETATM   19  C   LIG     1       1.143  -0.571   4.418  1.00  0.00     0.030 C 
ATOM     20  HN  LIG     1       2.173  -0.600   6.270  1.00  0.00     0.186 HD
HETATM   21  C   LIG     1       1.332   0.882   4.177  1.00  0.00     0.070 C 
ENDBRANCH  12  13
ENDBRANCH   2  12
TORSDOF 2
