REMARK  4 active torsions:
REMARK  status: ('A' for Active; 'I' for Inactive)
REMARK    1  A    between atoms: S_1  and  N_2 
REMARK    2  A    between atoms: S_1  and  C_8 
REMARK    3  A    between atoms: N_2  and  C_4 
REMARK    4  A    between atoms: C_8  and  C_12 
ROOT
HETATM    1  N   LIG     1       0.258  -0.194  -0.973  1.00  0.00    -0.310 N 
ATOM      2  HN  LIG     1       0.560  -0.637  -1.841  1.00  0.00     0.172 HD
ENDROOT
BRANCH   1   3
HETATM    3  S   LIG     1       1.373   0.337   0.186  1.00  0.00     0.231 S 
HETATM    4  O   LIG     1       1.156  -0.400   1.410  1.00  0.00    -0.206 OA
HETATM    5  O   LIG     1       1.309   1.783   0.178  1.00  0.00    -0.206 OA
BRANCH   3   6
HETATM    6  C   LIG     1       2.943  -0.218  -0.495  1.00  0.00     0.201 C 
BRANCH   6   7
HETATM    7  C   LIG     1       3.220   0.434  -1.823  1.00  0.00    -0.043 A 
HETATM    8  C   LIG     1       3.890   1.665  -1.887  1.00  0.00     0.008 A 
HETATM    9  C   LIG     1       4.154   2.264  -3.120  1.00  0.00     0.001 A 
HETATM   10  C   LIG     1       3.748   1.643  -4.299  1.00  0.00     0.000 A 
HETATM   11  C   LIG     1       3.075   0.424  -4.247  1.00  0.00     0.001 A 
HETATM   12  C   LIG     1       2.816  -0.180  -3.017  1.00  0.00     0.008 A 
ENDBRANCH   6   7
ENDBRANCH   3   6
ENDBRANCH   1   3
BRANCH   1  13
HETATM   13  C   LIG     1      -1.180   0.016  -0.667  1.00  0.00     0.126 C 
HETATM   14  C   LIG     1      -2.025  -0.459  -1.831  1.00  0.00    -0.029 A 
HETATM   15  C   LIG     1      -2.499  -1.759  -1.601  1.00  0.00    -0.050 A 
HETATM   16  C   LIG     1      -2.323   0.198  -3.015  1.00  0.00     0.010 A 
HETATM   17  C   LIG     1      -2.061  -2.251  -0.259  1.00  0.00     0.041 C 
HETATM   18  C   LIG     1      -3.241  -2.439  -2.550  1.00  0.00     0.007 A 
HETATM   19  C   LIG     1      -1.711  -0.925   0.429  1.00  0.00     0.035 C 
HETATM   20  C   LIG     1      -3.543  -1.783  -3.744  1.00  0.00     0.001 A 
HETATM   21  C   LIG     1      -3.095  -0.472  -3.971  1.00  0.00     0.001 A 
ENDBRANCH   1  13
TORSDOF 4
