REMARK  3 active torsions:
REMARK  status: ('A' for Active; 'I' for Inactive)
REMARK    1  A    between atoms: N_1  and  C_4 
REMARK       I    between atoms: C_2  and  N_5 
REMARK    2  A    between atoms: C_2  and  C_3 
REMARK    3  A    between atoms: N_5  and  C_9 
ROOT
HETATM    1  C   LIG     1      -1.902  -1.088   1.101  1.00  0.00     0.064 C 
HETATM    2  C   LIG     1      -2.523  -0.758  -0.130  1.00  0.00     0.062 C 
HETATM    3  C   LIG     1      -1.920  -2.461   1.458  1.00  0.00     0.032 C 
HETATM    4  C   LIG     1      -3.279  -1.740  -0.813  1.00  0.00     0.032 C 
HETATM    5  C   LIG     1      -2.591  -3.437   0.712  1.00  0.00     0.002 C 
HETATM    6  C   LIG     1      -3.311  -3.067  -0.404  1.00  0.00     0.002 C 
ENDROOT
BRANCH   2   7
HETATM    7  N   LIG     1      -2.383   0.501  -0.768  1.00  0.00    -0.320 N 
HETATM    8  C   LIG     1      -2.206   0.643  -2.137  1.00  0.00     0.273 C 
HETATM    9  O   LIG     1      -2.185  -0.307  -2.919  1.00  0.00    -0.266 OA
ATOM     10  HN  LIG     1      -2.414   1.343  -0.193  1.00  0.00     0.169 HD
BRANCH   8  11
HETATM   11  C   LIG     1      -2.020   2.002  -2.628  1.00  0.00     0.102 A 
HETATM   12  N   LIG     1      -2.369   2.399  -3.909  1.00  0.00    -0.357 N 
HETATM   13  C   LIG     1      -2.041   3.714  -4.109  1.00  0.00     0.091 A 
HETATM   14  C   LIG     1      -3.000   1.558  -4.907  1.00  0.00     0.156 C 
HETATM   15  C   LIG     1      -1.443   4.179  -2.964  1.00  0.00     0.020 A 
HETATM   16  C   LIG     1      -1.440   3.113  -2.031  1.00  0.00     0.037 A 
ENDBRANCH   8  11
ENDBRANCH   2   7
BRANCH   1  17
HETATM   17  N   LIG     1      -1.194  -0.189   1.977  1.00  0.00    -0.316 N 
HETATM   18  C   LIG     1      -1.010   1.194   1.850  1.00  0.00     0.224 C 
HETATM   19  O   LIG     1      -1.510   1.973   1.064  1.00  0.00    -0.273 OA
HETATM   20  C   LIG     1       0.016   1.625   2.868  1.00  0.00     0.105 C 
HETATM   21  C   LIG     1      -0.109   0.569   3.938  1.00  0.00     0.029 C 
HETATM   22  C   LIG     1      -0.510  -0.669   3.164  1.00  0.00     0.133 C 
ENDBRANCH   1  17
TORSDOF 3
