REMARK  2 active torsions:
REMARK  status: ('A' for Active; 'I' for Inactive)
REMARK    1  A    between atoms: C_1  and  C_8 
REMARK       I    between atoms: N_2  and  C_7 
REMARK    2  A    between atoms: C_7  and  C_12 
ROOT
HETATM    1  N   LIG     1      -4.674  -0.082  -1.143  1.00  0.00    -0.336 N 
HETATM    2  C   LIG     1      -4.341  -1.233  -0.439  1.00  0.00     0.254 C 
HETATM    3  C   LIG     1      -3.680   0.983  -1.294  1.00  0.00     0.155 C 
HETATM    4  O   LIG     1      -3.199  -1.424  -0.031  1.00  0.00    -0.267 OA
HETATM    5  C   LIG     1      -6.010   0.410  -1.474  1.00  0.00     0.127 C 
HETATM    6  C   LIG     1      -4.514   2.266  -1.344  1.00  0.00     0.035 C 
HETATM    7  C   LIG     1      -5.815   1.826  -1.996  1.00  0.00     0.022 C 
ENDROOT
BRANCH   3   8
HETATM    8  C   LIG     1      -2.873   0.748  -2.540  1.00  0.00     0.105 A 
HETATM    9  N   LIG     1      -2.754   1.543  -3.589  1.00  0.00    -0.342 N 
HETATM   10  C   LIG     1      -1.866   0.921  -4.431  1.00  0.00     0.060 A 
ATOM     11  HN  LIG     1      -3.225   2.435  -3.742  1.00  0.00     0.167 HD
HETATM   12  C   LIG     1      -1.434  -0.287  -3.897  1.00  0.00     0.060 A 
HETATM   13  C   LIG     1      -1.374   1.337  -5.677  1.00  0.00     0.032 A 
HETATM   14  N   LIG     1      -2.092  -0.377  -2.696  1.00  0.00    -0.342 N 
HETATM   15  C   LIG     1      -0.522  -1.125  -4.545  1.00  0.00     0.032 A 
ATOM     16  HN  LIG     1      -2.016  -1.147  -2.031  1.00  0.00     0.167 HD
HETATM   17  C   LIG     1      -0.039  -0.691  -5.787  1.00  0.00     0.002 A 
HETATM   18  C   LIG     1      -0.456   0.519  -6.347  1.00  0.00     0.002 A 
ENDBRANCH   3   8
BRANCH   2  19
HETATM   19  C   LIG     1      -5.369  -2.279  -0.156  1.00  0.00     0.032 A 
HETATM   20  C   LIG     1      -6.349  -2.653  -1.079  1.00  0.00     0.017 A 
HETATM   21  C   LIG     1      -7.308  -3.612  -0.743  1.00  0.00     0.001 A 
HETATM   22  C   LIG     1      -7.259  -4.245   0.498  1.00  0.00     0.000 A 
HETATM   23  C   LIG     1      -6.242  -3.932   1.397  1.00  0.00     0.001 A 
HETATM   24  C   LIG     1      -5.301  -2.951   1.072  1.00  0.00     0.017 A 
ENDBRANCH   2  19
TORSDOF 2
