REMARK  2 active torsions:
REMARK  status: ('A' for Active; 'I' for Inactive)
REMARK    1  A    between atoms: N_3  and  C_11 
REMARK    2  A    between atoms: C_11  and  C_12 
ROOT
HETATM    1  N   LIG     1       5.678   3.605   1.326  1.00  0.00    -0.197 NA
HETATM    2  C   LIG     1       4.721   2.949   1.348  1.00  0.00     0.060 C 
HETATM    3  C   LIG     1       3.516   2.115   1.374  1.00  0.00     0.146 C 
ENDROOT
BRANCH   3   4
HETATM    4  C   LIG     1       3.079   1.770  -0.044  1.00  0.00     0.166 C 
BRANCH   4   5
HETATM    5  N   LIG     1       1.902   0.906  -0.049  1.00  0.00    -0.256 N 
HETATM    6  N   LIG     1       2.150  -0.442  -0.036  1.00  0.00    -0.299 N 
HETATM    7  C   LIG     1       1.150  -1.269  -0.021  1.00  0.00     0.033 A 
ATOM      8  HN  LIG     1       3.109  -0.791  -0.038  1.00  0.00     0.187 HD
HETATM    9  C   LIG     1      -0.262  -0.835  -0.004  1.00  0.00     0.003 A 
HETATM   10  C   LIG     1       1.466  -2.746  -0.019  1.00  0.00     0.070 C 
HETATM   11  C   LIG     1      -0.505   0.534   0.022  1.00  0.00     0.046 A 
HETATM   12  C   LIG     1      -1.336  -1.733  -0.006  1.00  0.00     0.014 A 
HETATM   13  C   LIG     1       0.632   1.471   0.026  1.00  0.00     0.273 A 
HETATM   14  C   LIG     1      -1.819   1.018   0.046  1.00  0.00     0.018 A 
HETATM   15  O   LIG     1       0.428   2.680   0.100  1.00  0.00    -0.266 OA
HETATM   16  C   LIG     1      -2.890   0.123   0.043  1.00  0.00     0.001 A 
HETATM   17  C   LIG     1      -2.648  -1.250   0.017  1.00  0.00     0.001 A 
ENDBRANCH   4   5
ENDBRANCH   3   4
TORSDOF 2
