REMARK  4 active torsions:
REMARK  status: ('A' for Active; 'I' for Inactive)
REMARK    1  A    between atoms: C_1  and  C_2 
REMARK    2  A    between atoms: C_1  and  O_3 
REMARK    3  A    between atoms: C_1  and  O_9 
REMARK    4  A    between atoms: C_2  and  N_5 
ROOT
HETATM    1 CL   LIG     2       1.179  -2.847  -1.553  1.00  0.00     0.000 Cl
ENDROOT
TORSDOF 4
