REMARK  3 active torsions:
REMARK  status: ('A' for Active; 'I' for Inactive)
REMARK    1  A    between atoms: N_3  and  C_11 
REMARK    2  A    between atoms: C_4  and  C_11 
REMARK       I    between atoms: C_4  and  N_5 
REMARK    3  A    between atoms: N_5  and  C_8 
ROOT
HETATM    1  C   LIG     1      -1.084  -7.754  -1.086  1.00  0.00     0.236 C 
HETATM    2  N   LIG     1      -0.474  -7.786  -2.320  1.00  0.00    -0.355 N 
ATOM      3  HN  LIG     1      -0.494  -8.659  -2.847  1.00  0.00     0.162 HD
HETATM    4  O   LIG     1      -1.301  -6.702  -0.481  1.00  0.00    -0.272 OA
ENDROOT
BRANCH   1   5
HETATM    5  C   LIG     1      -1.574  -9.087  -0.540  1.00  0.00     0.231 C 
BRANCH   5   6
HETATM    6  N   LIG     1      -0.711 -10.213  -0.854  1.00  0.00    -0.343 N 
HETATM    7  C   LIG     1       0.376 -10.612  -0.129  1.00  0.00     0.182 A 
HETATM    8  N   LIG     1       0.929 -11.682  -0.653  1.00  0.00    -0.361 N 
HETATM    9  C   LIG     1       0.167 -11.991  -1.748  1.00  0.00     0.106 A 
ATOM     10  HN  LIG     1       1.753 -12.179  -0.315  1.00  0.00     0.166 HD
HETATM   11  C   LIG     1      -0.853 -11.081  -1.902  1.00  0.00     0.109 A 
ENDBRANCH   5   6
ENDBRANCH   1   5
BRANCH   2  12
HETATM   12  C   LIG     1       0.202  -6.630  -2.914  1.00  0.00     0.088 C 
HETATM   13  C   LIG     1       0.285  -6.744  -4.453  1.00  0.00     0.004 C 
HETATM   14  C   LIG     1      -1.089  -6.719  -5.121  1.00  0.00     0.012 C 
HETATM   15  C   LIG     1       1.095  -7.980  -4.871  1.00  0.00     0.006 C 
HETATM   16  C   LIG     1       2.500  -7.952  -4.270  1.00  0.00     0.001 C 
HETATM   17  C   LIG     1       2.518  -7.678  -2.765  1.00  0.00     0.002 C 
HETATM   18  C   LIG     1       1.629  -6.501  -2.356  1.00  0.00     0.025 C 
ENDBRANCH   2  12
TORSDOF 3
