REMARK  2 active torsions:
REMARK  status: ('A' for Active; 'I' for Inactive)
REMARK    1  A    between atoms: C_1  and  C_8 
REMARK    2  A    between atoms: C_2  and  N_11 
REMARK       I    between atoms: C_8  and  N_11 
ROOT
HETATM    1  C   LIG     1       0.999  -2.295   0.168  1.00  0.00     0.258 C 
HETATM    2  N   LIG     1       2.171  -2.927   0.530  1.00  0.00    -0.319 N 
ATOM      3  HN  LIG     1       3.027  -2.373   0.545  1.00  0.00     0.169 HD
HETATM    4  O   LIG     1      -0.110  -2.827   0.190  1.00  0.00    -0.267 OA
ENDROOT
BRANCH   1   5
HETATM    5  C   LIG     1       1.159  -0.875  -0.168  1.00  0.00     0.060 A 
HETATM    6  C   LIG     1       2.344  -0.157  -0.235  1.00  0.00     0.108 A 
HETATM    7  N   LIG     1       2.056   1.134  -0.593  1.00  0.00    -0.359 N 
HETATM    8  C   LIG     1       0.700   1.294  -0.760  1.00  0.00     0.045 A 
HETATM    9  C   LIG     1       3.048   2.168  -0.787  1.00  0.00     0.156 C 
HETATM   10  C   LIG     1       0.112   0.048  -0.518  1.00  0.00     0.008 A 
HETATM   11  C   LIG     1      -0.057   2.424  -1.110  1.00  0.00     0.030 A 
HETATM   12  C   LIG     1      -1.290  -0.066  -0.652  1.00  0.00     0.015 A 
HETATM   13  C   LIG     1      -2.051   1.049  -1.015  1.00  0.00     0.001 A 
HETATM   14  C   LIG     1      -1.441   2.278  -1.236  1.00  0.00     0.002 A 
ENDBRANCH   1   5
BRANCH   2  15
HETATM   15  C   LIG     1       2.259  -4.264   0.874  1.00  0.00     0.083 A 
HETATM   16  C   LIG     1       3.057  -4.715   1.907  1.00  0.00     0.053 A 
HETATM   17  N   LIG     1       2.921  -6.079   1.902  1.00  0.00    -0.299 N 
HETATM   18  C   LIG     1       3.845  -3.983   2.931  1.00  0.00     0.072 C 
HETATM   19  N   LIG     1       2.080  -6.533   0.961  1.00  0.00    -0.301 N 
HETATM   20  C   LIG     1       3.556  -7.033   2.781  1.00  0.00     0.177 C 
HETATM   21  C   LIG     1       1.659  -5.429   0.324  1.00  0.00     0.051 A 
ATOM     22  HN  LIG     1       1.819  -7.501   0.772  1.00  0.00     0.187 HD
HETATM   23  C   LIG     1       0.782  -5.595  -0.863  1.00  0.00     0.072 C 
ENDBRANCH   2  15
TORSDOF 2
