REMARK  3 active torsions:
REMARK  status: ('A' for Active; 'I' for Inactive)
REMARK       I    between atoms: C_1  and  N_3 
REMARK    1  A    between atoms: C_1  and  C_11 
REMARK    2  A    between atoms: C_2  and  N_3 
REMARK    3  A    between atoms: C_10  and  C_11 
ROOT
HETATM    1  C   LIG     1       3.082   2.567   3.800  1.00  0.00    -0.025 A 
HETATM    2  C   LIG     1       2.615   2.133   2.548  1.00  0.00     0.020 A 
HETATM    3  C   LIG     1       2.503   0.767   2.247  1.00  0.00    -0.049 A 
HETATM    4  C   LIG     1       3.430   1.611   4.780  1.00  0.00    -0.026 A 
HETATM    5  C   LIG     1       3.304   0.246   4.478  1.00  0.00     0.013 A 
HETATM    6  C   LIG     1       2.854  -0.172   3.222  1.00  0.00     0.008 A 
HETATM    7  C   LIG     1       3.224   3.933   4.092  1.00  0.00     0.012 A 
HETATM    8  C   LIG     1       3.905   2.048   6.027  1.00  0.00     0.012 A 
HETATM    9  C   LIG     1       3.710   4.351   5.332  1.00  0.00     0.001 A 
HETATM   10  C   LIG     1       4.048   3.410   6.299  1.00  0.00     0.001 A 
ENDROOT
BRANCH   3  11
HETATM   11  C   LIG     1       2.037   0.322   0.881  1.00  0.00     0.141 C 
BRANCH  11  12
HETATM   12  C   LIG     1       0.645   0.808   0.522  1.00  0.00     0.222 C 
HETATM   13  N   LIG     1      -0.347   0.365   1.378  1.00  0.00    -0.356 N 
ATOM     14  HN  LIG     1      -0.089  -0.253   2.147  1.00  0.00     0.162 HD
HETATM   15  O   LIG     1       0.433   1.496  -0.475  1.00  0.00    -0.273 OA
BRANCH  13  16
HETATM   16  C   LIG     1      -1.717   0.738   1.228  1.00  0.00     0.084 A 
HETATM   17  C   LIG     1      -2.414   1.542   2.291  1.00  0.00     0.027 A 
HETATM   18  C   LIG     1      -2.776   0.100   2.085  1.00  0.00     0.027 A 
ENDBRANCH  13  16
ENDBRANCH  11  12
ENDBRANCH   3  11
TORSDOF 3
