REMARK  1 active torsions:
REMARK  status: ('A' for Active; 'I' for Inactive)
REMARK    1  A    between atoms: C_1  and  C_2 
ROOT
HETATM    1  C   LIG     1       0.903   0.588  -0.039  1.00  0.00     0.114 C 
HETATM    2  N   LIG     1       0.930  -0.683  -0.375  1.00  0.00    -0.374 N 
ATOM      3  HN  LIG     1       1.724  -1.215  -0.731  1.00  0.00     0.161 HD
HETATM    4  N   LIG     1      -0.320   1.048   0.398  1.00  0.00    -0.374 N 
ATOM      5  HN  LIG     1      -0.488   1.929   0.884  1.00  0.00     0.161 HD
HETATM    6  C   LIG     1      -0.452  -1.174  -0.121  1.00  0.00     0.141 C 
HETATM    7  C   LIG     1      -1.320   0.072   0.051  1.00  0.00     0.141 C 
ENDROOT
BRANCH   1   8
HETATM    8  C   LIG     1       2.108   1.380  -0.187  1.00  0.00     0.048 A 
HETATM    9  S   LIG     1       2.096   3.051   0.190  1.00  0.00    -0.098 SA
HETATM   10  C   LIG     1       3.748   3.224  -0.219  1.00  0.00     0.050 A 
HETATM   11  C   LIG     1       4.303   2.035  -0.638  1.00  0.00     0.009 A 
HETATM   12  C   LIG     1       3.355   0.972  -0.620  1.00  0.00     0.023 A 
ENDBRANCH   1   8
TORSDOF 1
