REMARK  3 active torsions:
REMARK  status: ('A' for Active; 'I' for Inactive)
REMARK    1  A    between atoms: N_1  and  C_2 
REMARK       I    between atoms: C_4  and  N_6 
REMARK    2  A    between atoms: C_4  and  C_11 
REMARK    3  A    between atoms: N_6  and  C_9 
ROOT
HETATM    1  C   LIG     1      -2.521  -0.848  -2.296  1.00  0.00     0.043 A 
HETATM    2  C   LIG     1      -3.132  -1.947  -2.927  1.00  0.00    -0.033 A 
HETATM    3  C   LIG     1      -2.142  -0.986  -0.951  1.00  0.00     0.032 A 
HETATM    4  C   LIG     1      -2.853  -3.309  -0.894  1.00  0.00     0.035 A 
HETATM    5  C   LIG     1      -3.285  -3.167  -2.218  1.00  0.00     0.038 A 
HETATM    6  C   LIG     1      -2.300  -2.198  -0.268  1.00  0.00     0.032 A 
HETATM    7  C   LIG     1      -3.717  -1.864  -4.312  1.00  0.00     0.050 C 
ENDROOT
BRANCH   4   8
HETATM    8  N   LIG     1      -2.988  -4.567  -0.265  1.00  0.00    -0.325 N 
HETATM    9  C   LIG     1      -2.674  -4.874   1.051  1.00  0.00     0.251 C 
HETATM   10  O   LIG     1      -2.223  -4.100   1.893  1.00  0.00    -0.270 OA
ATOM     11  HN  LIG     1      -3.354  -5.328  -0.837  1.00  0.00     0.169 HD
BRANCH   9  12
HETATM   12  C   LIG     1      -2.865  -6.360   1.387  1.00  0.00     0.213 C 
HETATM   13  O   LIG     1      -3.899  -7.022   0.649  1.00  0.00    -0.376 OA
HETATM   14  C   LIG     1      -4.494  -8.009   1.511  1.00  0.00     0.168 C 
HETATM   15  C   LIG     1      -3.776  -7.953   2.845  1.00  0.00     0.029 C 
HETATM   16  C   LIG     1      -3.212  -6.558   2.854  1.00  0.00     0.044 C 
ENDBRANCH   9  12
ENDBRANCH   4   8
BRANCH   1  17
HETATM   17  N   LIG     1      -2.292   0.396  -2.941  1.00  0.00    -0.318 N 
HETATM   18  C   LIG     1      -1.524   0.533  -4.110  1.00  0.00     0.224 C 
HETATM   19  O   LIG     1      -1.088  -0.323  -4.847  1.00  0.00    -0.273 OA
HETATM   20  C   LIG     1      -1.170   2.004  -4.255  1.00  0.00     0.105 C 
HETATM   21  C   LIG     1      -2.192   2.681  -3.362  1.00  0.00     0.029 C 
HETATM   22  C   LIG     1      -2.399   1.658  -2.257  1.00  0.00     0.133 C 
ENDBRANCH   1  17
TORSDOF 3
