REMARK  2 active torsions:
REMARK  status: ('A' for Active; 'I' for Inactive)
REMARK    1  A    between atoms: C_7  and  C_15 
REMARK    2  A    between atoms: N_10  and  C_15 
ROOT
HETATM    1  N   LIG     1      -0.601  -0.883   0.069  1.00  0.00    -0.275 N 
HETATM    2  C   LIG     1      -0.258   0.460  -0.023  1.00  0.00     0.114 A 
HETATM    3  C   LIG     1       0.396  -1.840   0.161  1.00  0.00     0.255 A 
HETATM    4  N   LIG     1       0.961   0.908  -0.036  1.00  0.00    -0.344 N 
ATOM      5  HN  LIG     1       1.154   1.907  -0.101  1.00  0.00     0.167 HD
HETATM    6  C   LIG     1       1.776  -1.326   0.150  1.00  0.00     0.101 A 
HETATM    7  C   LIG     1       1.981  -0.008   0.040  1.00  0.00     0.034 A 
HETATM    8  C   LIG     1      -1.933  -1.284   0.078  1.00  0.00     0.102 A 
HETATM    9  C   LIG     1      -1.380   1.439  -0.105  1.00  0.00     0.049 A 
HETATM   10  O   LIG     1       0.222  -3.054   0.260  1.00  0.00    -0.268 OA
HETATM   11  C   LIG     1      -2.936  -0.400   0.003  1.00  0.00     0.018 A 
HETATM   12  C   LIG     1      -2.646   1.007  -0.089  1.00  0.00     0.005 A 
ENDROOT
BRANCH   7  13
HETATM   13  C   LIG     1       3.382   0.562   0.044  1.00  0.00     0.186 C 
BRANCH  13  14
HETATM   14  N   LIG     1       3.929   0.695  -1.296  1.00  0.00    -0.346 N 
HETATM   15  C   LIG     1       3.506   1.576  -2.251  1.00  0.00     0.182 A 
HETATM   16  N   LIG     1       4.219   1.469  -3.350  1.00  0.00    -0.361 N 
HETATM   17  C   LIG     1       5.140   0.487  -3.091  1.00  0.00     0.106 A 
ATOM     18  HN  LIG     1       4.110   2.003  -4.212  1.00  0.00     0.166 HD
HETATM   19  C   LIG     1       4.984  -0.004  -1.815  1.00  0.00     0.109 A 
ENDBRANCH  13  14
ENDBRANCH   7  13
TORSDOF 2
