REMARK  2 active torsions:
REMARK  status: ('A' for Active; 'I' for Inactive)
REMARK       I    between atoms: N_1  and  C_2 
REMARK    1  A    between atoms: C_2  and  C_3 
REMARK    2  A    between atoms: C_4  and  C_10 
ROOT
HETATM    1  N   LIG     1      -0.565  -0.420  -0.233  1.00  0.00    -0.338 N 
HETATM    2  C   LIG     1      -1.424  -1.362  -0.791  1.00  0.00     0.272 C 
HETATM    3  C   LIG     1       0.678  -0.820   0.429  1.00  0.00     0.120 C 
HETATM    4  O   LIG     1      -1.157  -2.564  -0.776  1.00  0.00    -0.266 OA
HETATM    5  C   LIG     1      -0.661   1.034  -0.326  1.00  0.00     0.127 C 
HETATM    6  C   LIG     1       1.583   0.390   0.155  1.00  0.00     0.032 C 
HETATM    7  C   LIG     1       0.624   1.566   0.296  1.00  0.00     0.022 C 
ENDROOT
BRANCH   2   8
HETATM    8  C   LIG     1      -2.713  -0.938  -1.430  1.00  0.00     0.116 A 
HETATM    9  N   LIG     1      -3.077   0.373  -1.418  1.00  0.00    -0.359 N 
HETATM   10  C   LIG     1      -4.261   0.665  -2.002  1.00  0.00     0.105 A 
ATOM     11  HN  LIG     1      -2.492   1.093  -0.994  1.00  0.00     0.165 HD
HETATM   12  C   LIG     1      -5.064  -0.301  -2.579  1.00  0.00     0.104 A 
HETATM   13  N   LIG     1      -4.719  -1.608  -2.598  1.00  0.00    -0.372 N 
HETATM   14  C   LIG     1      -3.528  -1.904  -2.010  1.00  0.00     0.122 A 
ATOM     15  HN  LIG     1      -5.310  -2.322  -3.023  1.00  0.00     0.164 HD
ENDBRANCH   2   8
BRANCH   3  16
HETATM   16  C   LIG     1       0.509  -1.090   1.926  1.00  0.00    -0.035 A 
HETATM   17  C   LIG     1       1.614  -1.504   2.690  1.00  0.00     0.009 A 
HETATM   18  C   LIG     1       1.488  -1.752   4.061  1.00  0.00     0.001 A 
HETATM   19  C   LIG     1       0.256  -1.599   4.690  1.00  0.00     0.000 A 
HETATM   20  C   LIG     1      -0.851  -1.196   3.951  1.00  0.00     0.001 A 
HETATM   21  C   LIG     1      -0.725  -0.945   2.583  1.00  0.00     0.009 A 
ENDBRANCH   3  16
TORSDOF 2
