REMARK  1 active torsions:
REMARK  status: ('A' for Active; 'I' for Inactive)
REMARK       I    between atoms: N_1  and  C_2 
REMARK    1  A    between atoms: C_2  and  C_10 
ROOT
HETATM    1  N   LIG     1       0.398   1.380  -0.680  1.00  0.00    -0.307 N 
HETATM    2  C   LIG     1       0.283   2.397   0.301  1.00  0.00     0.258 C 
HETATM    3  C   LIG     1       1.723   0.908  -1.121  1.00  0.00     0.098 C 
HETATM    4  N   LIG     1       0.398  -1.593  -0.296  1.00  0.00    -0.325 N 
ATOM      5  HN  LIG     1       0.120  -2.550  -0.076  1.00  0.00     0.169 HD
HETATM    6  C   LIG     1      -0.659   0.549  -1.108  1.00  0.00     0.064 A 
HETATM    7  C   LIG     1       1.694  -1.336   0.024  1.00  0.00     0.224 C 
HETATM    8  C   LIG     1       2.338   0.021  -0.064  1.00  0.00     0.128 C 
HETATM    9  C   LIG     1      -0.651  -0.838  -0.863  1.00  0.00     0.061 A 
HETATM   10  O   LIG     1       1.279   2.954   0.756  1.00  0.00    -0.267 OA
HETATM   11  O   LIG     1       2.360  -2.293   0.441  1.00  0.00    -0.273 OA
HETATM   12  C   LIG     1       2.662   2.038  -1.559  1.00  0.00     0.033 C 
HETATM   13  C   LIG     1      -1.732   1.136  -1.799  1.00  0.00     0.032 A 
HETATM   14  C   LIG     1      -1.802  -1.574  -1.190  1.00  0.00     0.032 A 
HETATM   15  C   LIG     1      -2.847   0.378  -2.150  1.00  0.00     0.002 A 
HETATM   16  C   LIG     1      -2.894  -0.971  -1.818  1.00  0.00     0.002 A 
ENDROOT
BRANCH   2  17
HETATM   17  C   LIG     1      -1.036   2.895   0.831  1.00  0.00     0.032 C 
HETATM   18  C   LIG     1      -2.177   2.113   1.037  1.00  0.00     0.017 C 
HETATM   19  C   LIG     1      -3.391   2.700   1.419  1.00  0.00     0.007 C 
HETATM   20  C   LIG     1      -3.469   4.067   1.697  1.00  0.00    -0.062 C 
HETATM   21  C   LIG     1      -2.304   4.834   1.617  1.00  0.00     0.007 C 
HETATM   22  C   LIG     1      -4.778   4.680   2.098  1.00  0.00     0.048 C 
HETATM   23  C   LIG     1      -1.106   4.255   1.180  1.00  0.00     0.017 C 
ENDBRANCH   2  17
TORSDOF 1
