REMARK  1 active torsions:
REMARK  status: ('A' for Active; 'I' for Inactive)
REMARK       I    between atoms: N_1  and  C_2 
REMARK    1  A    between atoms: C_2  and  C_4 
ROOT
HETATM    1  N   LIG     1      -1.154   1.341  -0.126  1.00  0.00    -0.312 N 
HETATM    2  C   LIG     1      -1.084   2.747   0.005  1.00  0.00     0.258 C 
HETATM    3  C   LIG     1       0.021   0.542  -0.431  1.00  0.00     0.060 A 
HETATM    4  C   LIG     1       0.008  -0.859  -0.283  1.00  0.00     0.036 A 
HETATM    5  O   LIG     1      -0.073   3.434  -0.105  1.00  0.00    -0.267 OA
HETATM    6  N   LIG     1       1.091  -1.662  -0.486  1.00  0.00    -0.367 N 
ATOM      7  HN  LIG     1       1.030  -2.673  -0.366  1.00  0.00     0.165 HD
HETATM    8  C   LIG     1      -2.400   0.586   0.094  1.00  0.00     0.133 C 
HETATM    9  C   LIG     1       1.237   1.090  -0.856  1.00  0.00     0.033 A 
HETATM   10  C   LIG     1      -2.196  -0.708   0.858  1.00  0.00     0.026 C 
HETATM   11  C   LIG     1      -1.239  -1.599   0.100  1.00  0.00     0.061 C 
HETATM   12  C   LIG     1       2.243  -1.071  -0.850  1.00  0.00     0.088 A 
HETATM   13  C   LIG     1       2.360   0.286  -1.059  1.00  0.00     0.019 A 
ENDROOT
BRANCH   2  14
HETATM   14  C   LIG     1      -2.288   3.523   0.408  1.00  0.00     0.032 A 
HETATM   15  C   LIG     1      -3.500   3.473  -0.291  1.00  0.00     0.020 A 
HETATM   16  C   LIG     1      -4.589   4.225   0.161  1.00  0.00     0.043 A 
HETATM   17  C   LIG     1      -4.446   5.054   1.271  1.00  0.00     0.116 A 
HETATM   18  C   LIG     1      -3.232   5.155   1.939  1.00  0.00     0.043 A 
HETATM   19  F   LIG     1      -5.493   5.772   1.697  1.00  0.00    -0.206 F 
HETATM   20  C   LIG     1      -2.150   4.390   1.506  1.00  0.00     0.020 A 
ENDBRANCH   2  14
TORSDOF 1
