REMARK  1 active torsions:
REMARK  status: ('A' for Active; 'I' for Inactive)
REMARK    1  A    between atoms: C_3  and  C_7 
ROOT
HETATM    1  N   LIG     1      -1.175  -0.065   0.066  1.00  0.00    -0.338 N 
ATOM      2  HN  LIG     1      -2.184  -0.113  -0.077  1.00  0.00     0.168 HD
HETATM    3  C   LIG     1      -0.277  -1.109   0.137  1.00  0.00     0.066 A 
HETATM    4  C   LIG     1      -0.429   1.009   0.226  1.00  0.00     0.119 A 
HETATM    5  C   LIG     1       0.988  -0.605   0.338  1.00  0.00     0.174 A 
HETATM    6  O   LIG     1       0.903   0.754   0.396  1.00  0.00    -0.308 OA
HETATM    7  C   LIG     1      -0.834   2.427   0.243  1.00  0.00     0.098 C 
ENDROOT
BRANCH   3   8
HETATM    8  C   LIG     1      -0.655  -2.507   0.011  1.00  0.00    -0.007 A 
HETATM    9  C   LIG     1       0.280  -3.547   0.087  1.00  0.00     0.015 A 
HETATM   10  C   LIG     1      -0.126  -4.882  -0.040  1.00  0.00     0.027 A 
HETATM   11  C   LIG     1      -1.460  -5.206  -0.287  1.00  0.00     0.046 A 
HETATM   12  C   LIG     1      -2.402  -4.177  -0.298  1.00  0.00     0.027 A 
HETATM   13  N   LIG     1      -1.874  -6.543  -0.288  1.00  0.00    -0.102 NA
HETATM   14  C   LIG     1      -2.003  -2.841  -0.174  1.00  0.00     0.015 A 
ENDBRANCH   3   8
TORSDOF 1
