REMARK  1 active torsions:
REMARK  status: ('A' for Active; 'I' for Inactive)
REMARK    1  A    between atoms: C_2  and  C_8 
ROOT
HETATM    1  N   LIG     1      -0.061   0.652   0.159  1.00  0.00    -0.320 N 
HETATM    2  C   LIG     1       1.190   1.159   0.082  1.00  0.00     0.134 A 
HETATM    3  N   LIG     1       2.015   0.117   0.016  1.00  0.00    -0.283 N 
ATOM      4  HN  LIG     1       3.032   0.174  -0.045  1.00  0.00     0.188 HD
HETATM    5  N   LIG     1       1.277  -1.063   0.043  1.00  0.00    -0.287 N 
ATOM      6  HN  LIG     1       1.640  -2.016   0.009  1.00  0.00     0.188 HD
HETATM    7  C   LIG     1       0.027  -0.702   0.120  1.00  0.00     0.099 A 
HETATM    8  C   LIG     1      -1.424   1.126   0.119  1.00  0.00     0.132 C 
HETATM    9  C   LIG     1      -1.296  -1.341   0.098  1.00  0.00     0.080 C 
HETATM   10  C   LIG     1      -2.200  -0.142  -0.290  1.00  0.00     0.028 C 
ENDROOT
BRANCH   2  11
HETATM   11  C   LIG     1       1.570   2.569   0.029  1.00  0.00     0.010 A 
HETATM   12  C   LIG     1       2.720   2.939  -0.680  1.00  0.00     0.017 A 
HETATM   13  C   LIG     1       3.116   4.279  -0.759  1.00  0.00     0.027 A 
HETATM   14  C   LIG     1       2.404   5.272  -0.086  1.00  0.00     0.046 A 
HETATM   15  C   LIG     1       1.232   4.914   0.583  1.00  0.00     0.027 A 
HETATM   16  N   LIG     1       2.729   6.621  -0.268  1.00  0.00    -0.102 NA
HETATM   17  C   LIG     1       0.831   3.574   0.662  1.00  0.00     0.017 A 
ENDBRANCH   2  11
TORSDOF 1
