REMARK  2 active torsions:
REMARK  status: ('A' for Active; 'I' for Inactive)
REMARK    1  A    between atoms: C_3  and  C_7 
REMARK    2  A    between atoms: C_4  and  C_9 
ROOT
HETATM    1  N   LIG     1       1.028  -0.675   0.061  1.00  0.00    -0.331 N 
ATOM      2  HN  LIG     1       1.855  -1.266  -0.024  1.00  0.00     0.168 HD
HETATM    3  C   LIG     1      -0.275  -1.057   0.274  1.00  0.00     0.112 A 
HETATM    4  C   LIG     1       0.954   0.614  -0.006  1.00  0.00     0.162 A 
HETATM    5  O   LIG     1      -0.264   1.181   0.132  1.00  0.00    -0.255 OA
HETATM    6  C   LIG     1      -1.148   0.161   0.314  1.00  0.00     0.316 A 
HETATM    7  O   LIG     1      -2.348   0.271   0.454  1.00  0.00    -0.257 OA
ENDROOT
BRANCH   4   8
HETATM    8  C   LIG     1       2.068   1.551  -0.223  1.00  0.00     0.015 A 
HETATM    9  C   LIG     1       1.864   2.937  -0.243  1.00  0.00     0.016 A 
HETATM   10  C   LIG     1       2.943   3.798  -0.452  1.00  0.00     0.001 A 
HETATM   11  C   LIG     1       4.225   3.281  -0.642  1.00  0.00     0.000 A 
HETATM   12  C   LIG     1       4.432   1.902  -0.623  1.00  0.00     0.001 A 
HETATM   13  C   LIG     1       3.356   1.037  -0.414  1.00  0.00     0.016 A 
ENDBRANCH   4   8
BRANCH   3  14
HETATM   14  C   LIG     1      -0.671  -2.337   0.411  1.00  0.00    -0.055 C 
HETATM   15  C   LIG     1       0.306  -3.482   0.319  1.00  0.00     0.045 C 
HETATM   16  C   LIG     1      -2.087  -2.782   0.665  1.00  0.00     0.045 C 
ENDBRANCH   3  14
TORSDOF 2
