REMARK  2 active torsions:
REMARK  status: ('A' for Active; 'I' for Inactive)
REMARK       I    between atoms: N_1  and  C_3 
REMARK    1  A    between atoms: N_1  and  C_4 
REMARK    2  A    between atoms: C_3  and  C_5 
ROOT
HETATM    1  N   LIG     1       0.369   0.624   0.437  1.00  0.00    -0.322 N 
ATOM      2  HN  LIG     1       0.947   0.932  -0.344  1.00  0.00     0.169 HD
HETATM    3  C   LIG     1      -0.914   0.184   0.160  1.00  0.00     0.256 C 
HETATM    4  O   LIG     1      -1.745  -0.207   0.974  1.00  0.00    -0.267 OA
ENDROOT
BRANCH   3   5
HETATM    5  C   LIG     1      -1.310   0.301  -1.269  1.00  0.00     0.035 A 
HETATM    6  C   LIG     1      -0.371   0.115  -2.290  1.00  0.00     0.056 A 
HETATM    7  C   LIG     1      -0.767   0.224  -3.622  1.00  0.00     0.103 A 
HETATM    8  C   LIG     1      -2.092   0.536  -3.941  1.00  0.00     0.102 A 
HETATM    9  O   LIG     1       0.223   0.105  -4.558  1.00  0.00    -0.348 OA
HETATM   10  C   LIG     1      -3.024   0.739  -2.922  1.00  0.00     0.040 A 
HETATM   11  O   LIG     1      -2.519   0.755  -5.221  1.00  0.00    -0.348 OA
HETATM   12  C   LIG     1      -2.640   0.603  -1.586  1.00  0.00     0.020 A 
HETATM   13  C   LIG     1      -2.389  -0.407  -6.042  1.00  0.00     0.178 C 
HETATM   14  C   LIG     1      -0.973  -0.581  -6.571  1.00  0.00     0.053 C 
HETATM   15  C   LIG     1      -0.018  -0.977  -5.456  1.00  0.00     0.178 C 
ENDBRANCH   3   5
BRANCH   1  16
HETATM   16  C   LIG     1       0.928   0.673   1.734  1.00  0.00     0.046 A 
HETATM   17  C   LIG     1       0.931  -0.443   2.597  1.00  0.00    -0.035 A 
HETATM   18  C   LIG     1       1.488  -0.309   3.881  1.00  0.00     0.009 A 
HETATM   19  C   LIG     1       0.404  -1.799   2.210  1.00  0.00     0.050 C 
HETATM   20  C   LIG     1       2.080   0.884   4.285  1.00  0.00     0.001 A 
HETATM   21  C   LIG     1       2.128   1.964   3.411  1.00  0.00     0.009 A 
HETATM   22  C   LIG     1       1.557   1.876   2.132  1.00  0.00    -0.035 A 
HETATM   23  C   LIG     1       1.612   3.087   1.239  1.00  0.00     0.050 C 
ENDBRANCH   1  16
TORSDOF 2
