REMARK  2 active torsions:
REMARK  status: ('A' for Active; 'I' for Inactive)
REMARK    1  A    between atoms: C_4  and  C_12 
REMARK    2  A    between atoms: C_12  and  N_13 
ROOT
HETATM    1  N   LIG     1      -0.740   0.539   0.056  1.00  0.00    -0.286 N 
HETATM    2  N   LIG     1      -2.819   1.270   0.025  1.00  0.00    -0.286 N 
ATOM      3  HN  LIG     1      -3.629   1.889  -0.008  1.00  0.00     0.188 HD
HETATM    4  C   LIG     1      -1.555   1.649  -0.075  1.00  0.00     0.130 A 
HETATM    5  N   LIG     1      -2.860  -0.088   0.180  1.00  0.00    -0.287 N 
ATOM      6  HN  LIG     1      -3.699  -0.660   0.276  1.00  0.00     0.188 HD
HETATM    7  C   LIG     1      -1.621  -0.518   0.182  1.00  0.00     0.104 A 
HETATM    8  C   LIG     1       0.667   0.352   0.058  1.00  0.00     0.048 A 
HETATM    9  C   LIG     1       1.146  -0.968  -0.114  1.00  0.00    -0.030 A 
HETATM   10  C   LIG     1      -1.136  -1.906   0.373  1.00  0.00     0.083 C 
HETATM   11  C   LIG     1       0.187  -2.113  -0.362  1.00  0.00     0.048 C 
HETATM   12  C   LIG     1       1.571   1.399   0.249  1.00  0.00     0.030 A 
HETATM   13  C   LIG     1       2.527  -1.203  -0.143  1.00  0.00     0.009 A 
HETATM   14  C   LIG     1       2.945   1.144   0.235  1.00  0.00     0.002 A 
HETATM   15  C   LIG     1       3.422  -0.150   0.033  1.00  0.00     0.001 A 
ENDROOT
BRANCH   4  16
HETATM   16  C   LIG     1      -1.143   3.041  -0.392  1.00  0.00     0.307 C 
BRANCH  16  17
HETATM   17  N   LIG     1      -0.888   3.813   0.823  1.00  0.00    -0.073 N 
ATOM     18  HN3 LIG     1      -1.691   3.795   1.452  1.00  0.00     0.274 HD
ATOM     19  HN2 LIG     1      -0.206   3.349   1.424  1.00  0.00     0.274 HD
ATOM     20  HN1 LIG     1      -0.605   4.769   0.605  1.00  0.00     0.274 HD
ENDBRANCH  16  17
ENDBRANCH   4  16
TORSDOF 2
