REMARK  3 active torsions:
REMARK  status: ('A' for Active; 'I' for Inactive)
REMARK    1  A    between atoms: C_1  and  C_12 
REMARK    2  A    between atoms: C_8  and  C_12 
REMARK       I    between atoms: C_8  and  N_10 
REMARK    3  A    between atoms: C_9  and  N_10 
ROOT
HETATM    1  C   LIG     1      -1.064  -3.515  -1.269  1.00  0.00     0.222 C 
HETATM    2  N   LIG     1      -2.116  -3.406  -0.375  1.00  0.00    -0.352 N 
ATOM      3  HN  LIG     1      -2.681  -2.557  -0.384  1.00  0.00     0.163 HD
HETATM    4  O   LIG     1      -0.376  -4.533  -1.335  1.00  0.00    -0.273 OA
ENDROOT
BRANCH   1   5
HETATM    5  C   LIG     1      -0.859  -2.361  -2.241  1.00  0.00     0.145 C 
BRANCH   5   6
HETATM    6  C   LIG     1      -1.301  -1.027  -1.730  1.00  0.00    -0.002 A 
HETATM    7  C   LIG     1      -0.568  -0.102  -1.001  1.00  0.00     0.033 A 
HETATM    8  N   LIG     1      -1.431   0.929  -0.732  1.00  0.00    -0.300 N 
HETATM    9  C   LIG     1       0.846  -0.105  -0.543  1.00  0.00     0.070 C 
HETATM   10  N   LIG     1      -2.656   0.747  -1.245  1.00  0.00    -0.303 N 
HETATM   11  C   LIG     1      -1.159   2.126   0.030  1.00  0.00     0.177 C 
HETATM   12  C   LIG     1      -2.587  -0.427  -1.875  1.00  0.00     0.030 A 
ATOM     13  HN  LIG     1      -3.462   1.368  -1.170  1.00  0.00     0.186 HD
HETATM   14  C   LIG     1      -3.796  -0.960  -2.553  1.00  0.00     0.070 C 
ENDBRANCH   5   6
ENDBRANCH   1   5
BRANCH   2  15
HETATM   15  C   LIG     1      -2.446  -4.454   0.575  1.00  0.00     0.122 C 
HETATM   16  C   LIG     1      -3.117  -3.879   1.795  1.00  0.00    -0.002 A 
HETATM   17  C   LIG     1      -4.489  -4.042   2.009  1.00  0.00     0.077 A 
HETATM   18  C   LIG     1      -2.357  -3.193   2.758  1.00  0.00     0.012 A 
HETATM   19  O   LIG     1      -5.316  -4.740   1.174  1.00  0.00    -0.350 OA
HETATM   20  C   LIG     1      -5.089  -3.533   3.163  1.00  0.00     0.037 A 
HETATM   21  C   LIG     1      -4.775  -5.075  -0.104  1.00  0.00     0.178 C 
HETATM   22  C   LIG     1      -3.327  -5.533  -0.050  1.00  0.00     0.057 C 
HETATM   23  C   LIG     1      -4.326  -2.860   4.116  1.00  0.00     0.003 A 
HETATM   24  C   LIG     1      -2.958  -2.694   3.915  1.00  0.00     0.001 A 
ENDBRANCH   2  15
TORSDOF 3
