REMARK  2 active torsions:
REMARK  status: ('A' for Active; 'I' for Inactive)
REMARK    1  A    between atoms: C_1  and  C_8 
REMARK    2  A    between atoms: N_7  and  C_8 
ROOT
HETATM    1  C   LIG     1       0.953   1.042  -1.253  1.00  0.00    -0.011 A 
HETATM    2  C   LIG     1       3.048   0.148  -2.206  1.00  0.00     0.090 A 
HETATM    3  O   LIG     1       2.443  -1.115  -2.360  1.00  0.00    -0.275 OA
HETATM    4  C   LIG     1       2.344   1.238  -1.691  1.00  0.00     0.006 A 
HETATM    5  C   LIG     1       1.117  -1.308  -2.030  1.00  0.00     0.288 A 
HETATM    6  C   LIG     1       0.408  -0.173  -1.425  1.00  0.00     0.092 A 
HETATM    7  C   LIG     1       3.017   2.463  -1.627  1.00  0.00     0.015 A 
HETATM    8  C   LIG     1       4.382   0.242  -2.611  1.00  0.00     0.045 A 
HETATM    9  O   LIG     1       0.541  -2.378  -2.207  1.00  0.00    -0.260 OA
HETATM   10  C   LIG     1       5.050   1.464  -2.513  1.00  0.00    -0.059 A 
HETATM   11  C   LIG     1       4.350   2.579  -2.042  1.00  0.00     0.007 A 
HETATM   12  C   LIG     1       6.474   1.595  -2.965  1.00  0.00     0.048 C 
ENDROOT
BRANCH   1  13
HETATM   13  C   LIG     1       0.166   2.149  -0.580  1.00  0.00     0.312 C 
BRANCH  13  14
HETATM   14  N   LIG     1      -0.058   3.349  -1.388  1.00  0.00     0.097 N 
HETATM   15  C   LIG     1      -0.795   4.404  -0.662  1.00  0.00     0.304 C 
HETATM   16  C   LIG     1      -2.346   4.330  -0.681  1.00  0.00     0.145 C 
HETATM   17  O   LIG     1      -2.864   4.027  -1.985  1.00  0.00    -0.383 OA
HETATM   18  C   LIG     1      -2.962   3.400   0.361  1.00  0.00     0.041 C 
HETATM   19  C   LIG     1      -2.221   2.902  -2.592  1.00  0.00     0.198 C 
HETATM   20  C   LIG     1      -0.709   3.119  -2.689  1.00  0.00     0.299 C 
ENDBRANCH  13  14
ENDBRANCH   1  13
TORSDOF 2
