REMARK  1 active torsions:
REMARK  status: ('A' for Active; 'I' for Inactive)
REMARK       I    between atoms: C_1  and  N_2 
REMARK       I    between atoms: C_1  and  N_3 
REMARK    1  A    between atoms: N_3  and  C_5 
ROOT
HETATM    1  C   LIG     1       0.395   0.126   0.592  1.00  0.00     0.322 C 
HETATM    2  N   LIG     1      -0.206   1.355   0.864  1.00  0.00    -0.332 N 
HETATM    3  N   LIG     1      -0.168  -0.582  -0.451  1.00  0.00    -0.308 N 
ATOM      4  HN  LIG     1      -0.965  -0.181  -0.946  1.00  0.00     0.170 HD
HETATM    5  N   LIG     1       0.582   4.542   0.753  1.00  0.00     0.085 N 
HETATM    6  O   LIG     1       1.377  -0.260   1.216  1.00  0.00    -0.247 OA
HETATM    7  C   LIG     1       0.471   2.230   1.828  1.00  0.00     0.157 C 
HETATM    8  C   LIG     1       1.304   3.309   1.114  1.00  0.00     0.291 C 
HETATM    9  C   LIG     1      -1.104   3.161  -0.606  1.00  0.00     0.050 C 
HETATM   10  C   LIG     1      -1.396   1.909   0.226  1.00  0.00     0.129 C 
HETATM   11  C   LIG     1      -0.789   4.385   0.263  1.00  0.00     0.273 C 
HETATM   12  C   LIG     1       1.394   5.365  -0.142  1.00  0.00     0.309 C 
ENDROOT
BRANCH   3  13
HETATM   13  C   LIG     1       0.325  -1.851  -0.859  1.00  0.00     0.047 A 
HETATM   14  C   LIG     1       0.533  -2.131  -2.240  1.00  0.00     0.001 A 
HETATM   15  C   LIG     1       1.097  -3.385  -2.590  1.00  0.00    -0.024 A 
HETATM   16  C   LIG     1       0.273  -1.218  -3.293  1.00  0.00     0.014 A 
HETATM   17  C   LIG     1       1.378  -4.334  -1.594  1.00  0.00     0.012 A 
HETATM   18  C   LIG     1       1.397  -3.671  -3.932  1.00  0.00     0.012 A 
HETATM   19  C   LIG     1       1.127  -4.060  -0.253  1.00  0.00     0.003 A 
HETATM   20  C   LIG     1       0.610  -2.821   0.112  1.00  0.00     0.030 A 
HETATM   21  C   LIG     1       1.146  -2.742  -4.940  1.00  0.00     0.001 A 
HETATM   22  C   LIG     1       0.575  -1.519  -4.622  1.00  0.00     0.001 A 
ENDBRANCH   3  13
TORSDOF 1
