REMARK  2 active torsions:
REMARK  status: ('A' for Active; 'I' for Inactive)
REMARK    1  A    between atoms: C_1  and  C_2 
REMARK    2  A    between atoms: C_3  and  C_8 
ROOT
HETATM    1  C   LIG     1       1.815   0.507  -0.242  1.00  0.00     0.104 A 
HETATM    2  N   LIG     1       0.579   0.770  -0.703  1.00  0.00    -0.352 N 
ATOM      3  HN  LIG     1      -0.121   0.037  -0.818  1.00  0.00     0.166 HD
HETATM    4  N   LIG     1       2.785   1.423  -0.066  1.00  0.00    -0.352 N 
ATOM      5  HN  LIG     1       3.708   1.170   0.288  1.00  0.00     0.166 HD
HETATM    6  C   LIG     1       1.236   3.070  -0.862  1.00  0.00     0.034 A 
HETATM    7  C   LIG     1       0.319   2.056  -1.004  1.00  0.00     0.091 A 
HETATM    8  C   LIG     1       2.468   2.692  -0.384  1.00  0.00     0.091 A 
ENDROOT
BRANCH   1   9
HETATM    9  C   LIG     1       2.097  -0.893   0.084  1.00  0.00     0.049 C 
HETATM   10  C   LIG     1       3.267  -1.339   0.571  1.00  0.00     0.015 C 
BRANCH  10  11
HETATM   11  C   LIG     1       3.554  -2.746   0.890  1.00  0.00    -0.036 A 
HETATM   12  C   LIG     1       2.580  -3.620   1.391  1.00  0.00     0.011 A 
HETATM   13  C   LIG     1       2.905  -4.941   1.711  1.00  0.00     0.001 A 
HETATM   14  C   LIG     1       4.210  -5.399   1.544  1.00  0.00     0.000 A 
HETATM   15  C   LIG     1       5.192  -4.536   1.063  1.00  0.00     0.001 A 
HETATM   16  C   LIG     1       4.866  -3.215   0.743  1.00  0.00     0.011 A 
ENDBRANCH  10  11
ENDBRANCH   1   9
TORSDOF 2
