REMARK  2 active torsions:
REMARK  status: ('A' for Active; 'I' for Inactive)
REMARK    1  A    between atoms: C_4  and  C_8 
REMARK    2  A    between atoms: N_7  and  C_8 
ROOT
HETATM    1  C   LIG     1       4.631   0.413  -0.132  1.00  0.00     0.330 C 
ENDROOT
BRANCH   1   2
HETATM    2  C   LIG     1       5.431  -0.871   0.088  1.00  0.00     0.049 A 
HETATM    3  N   LIG     1       5.066  -2.067  -0.528  1.00  0.00    -0.306 N 
HETATM    4  C   LIG     1       5.703  -3.282  -0.251  1.00  0.00     0.331 A 
HETATM    5  C   LIG     1       3.999  -2.086  -1.524  1.00  0.00     0.161 C 
HETATM    6  N   LIG     1       6.730  -3.239   0.685  1.00  0.00    -0.271 N 
HETATM    7  O   LIG     1       5.378  -4.341  -0.794  1.00  0.00    -0.246 OA
HETATM    8  C   LIG     1       7.205  -2.083   1.261  1.00  0.00     0.253 A 
HETATM    9  C   LIG     1       7.356  -4.500   1.035  1.00  0.00     0.164 C 
HETATM   10  C   LIG     1       6.465  -0.854   0.940  1.00  0.00     0.101 A 
HETATM   11  O   LIG     1       8.163  -2.007   2.022  1.00  0.00    -0.268 OA
ENDBRANCH   1   2
BRANCH   1  12
HETATM   12  N   LIG     1       4.530   0.925  -1.511  1.00  0.00     0.098 N 
HETATM   13  C   LIG     1       3.672   2.136  -1.521  1.00  0.00     0.312 C 
HETATM   14  C   LIG     1       3.825   3.054  -2.719  1.00  0.00    -0.024 A 
HETATM   15  C   LIG     1       4.821   2.834  -3.684  1.00  0.00    -0.049 A 
HETATM   16  C   LIG     1       3.014   4.194  -2.827  1.00  0.00     0.009 A 
HETATM   17  C   LIG     1       5.701   1.622  -3.562  1.00  0.00     0.069 C 
HETATM   18  C   LIG     1       4.975   3.727  -4.752  1.00  0.00     0.007 A 
HETATM   19  C   LIG     1       5.848   1.209  -2.094  1.00  0.00     0.278 C 
HETATM   20  C   LIG     1       4.169   4.861  -4.842  1.00  0.00     0.001 A 
HETATM   21  C   LIG     1       3.190   5.095  -3.879  1.00  0.00     0.001 A 
ENDBRANCH   1  12
TORSDOF 2
