REMARK  2 active torsions:
REMARK  status: ('A' for Active; 'I' for Inactive)
REMARK    1  A    between atoms: C_7  and  C_12 
REMARK    2  A    between atoms: N_8  and  C_12 
ROOT
HETATM    1  N   LIG     1      -0.295   0.836   0.201  1.00  0.00    -0.275 N 
HETATM    2  C   LIG     1      -0.037  -0.507  -0.038  1.00  0.00     0.115 A 
HETATM    3  C   LIG     1       0.760   1.723   0.349  1.00  0.00     0.255 A 
HETATM    4  N   LIG     1       1.150  -1.022  -0.138  1.00  0.00    -0.344 N 
ATOM      5  HN  LIG     1       1.280  -2.019  -0.312  1.00  0.00     0.167 HD
HETATM    6  C   LIG     1       2.104   1.134   0.240  1.00  0.00     0.101 A 
HETATM    7  C   LIG     1       2.226  -0.177  -0.001  1.00  0.00     0.034 A 
HETATM    8  C   LIG     1      -1.599   1.305   0.304  1.00  0.00     0.102 A 
HETATM    9  C   LIG     1      -1.217  -1.407  -0.178  1.00  0.00     0.056 A 
HETATM   10  C   LIG     1      -2.655   0.491   0.182  1.00  0.00     0.024 A 
HETATM   11  C   LIG     1      -2.463  -0.921  -0.066  1.00  0.00    -0.057 A 
HETATM   12  O   LIG     1       0.655   2.928   0.571  1.00  0.00    -0.268 OA
HETATM   13  C   LIG     1      -3.686  -1.777  -0.182  1.00  0.00     0.048 C 
ENDROOT
BRANCH   7  14
HETATM   14  C   LIG     1       3.597  -0.820  -0.089  1.00  0.00     0.188 C 
BRANCH  14  15
HETATM   15  N   LIG     1       4.063  -0.830  -1.474  1.00  0.00    -0.319 N 
HETATM   16  C   LIG     1       4.905   0.197  -1.896  1.00  0.00     0.247 A 
HETATM   17  C   LIG     1       5.343   0.139  -3.317  1.00  0.00     0.074 A 
HETATM   18  O   LIG     1       5.296   1.120  -1.184  1.00  0.00    -0.268 OA
HETATM   19  C   LIG     1       4.915  -0.847  -4.116  1.00  0.00     0.007 A 
HETATM   20  C   LIG     1       4.024  -1.861  -3.611  1.00  0.00     0.017 A 
HETATM   21  C   LIG     1       3.630  -1.828  -2.333  1.00  0.00     0.094 A 
ENDBRANCH  14  15
ENDBRANCH   7  14
TORSDOF 2
