REMARK  3 active torsions:
REMARK  status: ('A' for Active; 'I' for Inactive)
REMARK    1  A    between atoms: C_1  and  N_3 
REMARK    2  A    between atoms: N_2  and  C_16 
REMARK       I    between atoms: N_3  and  C_5 
REMARK    3  A    between atoms: C_5  and  C_11 
ROOT
HETATM    1  N   LIG     1       0.270  -3.031   1.013  1.00  0.00    -0.306 N 
ATOM      2  HN  LIG     1      -0.366  -3.191   1.794  1.00  0.00     0.170 HD
HETATM    3  C   LIG     1       1.327  -3.906   0.821  1.00  0.00     0.273 C 
HETATM    4  O   LIG     1       2.130  -3.891  -0.114  1.00  0.00    -0.266 OA
ENDROOT
BRANCH   3   5
HETATM    5  C   LIG     1       1.502  -4.888   1.934  1.00  0.00     0.101 A 
HETATM    6  N   LIG     1       0.619  -4.773   2.963  1.00  0.00    -0.351 N 
HETATM    7  C   LIG     1       0.804  -5.572   4.026  1.00  0.00     0.043 A 
ATOM      8  HN  LIG     1      -0.152  -4.107   2.928  1.00  0.00     0.166 HD
HETATM    9  C   LIG     1       1.857  -6.512   4.100  1.00  0.00    -0.009 A 
HETATM   10  C   LIG     1      -0.051  -5.454   5.110  1.00  0.00     0.030 A 
HETATM   11  C   LIG     1       2.731  -6.616   3.009  1.00  0.00     0.016 A 
HETATM   12  C   LIG     1       2.022  -7.298   5.252  1.00  0.00     0.013 A 
HETATM   13  C   LIG     1       2.554  -5.791   1.906  1.00  0.00     0.036 A 
HETATM   14  C   LIG     1       1.154  -7.151   6.332  1.00  0.00     0.001 A 
HETATM   15  C   LIG     1       0.118  -6.227   6.261  1.00  0.00     0.002 A 
ENDBRANCH   3   5
BRANCH   1  16
HETATM   16  C   LIG     1       0.047  -1.948   0.182  1.00  0.00     0.126 A 
HETATM   17  N   LIG     1       0.008  -1.965  -1.200  1.00  0.00    -0.273 N 
HETATM   18  N   LIG     1      -0.266  -0.743  -1.726  1.00  0.00    -0.308 N 
HETATM   19  C   LIG     1      -0.394   0.047  -0.660  1.00  0.00     0.111 A 
ATOM     20  HN  LIG     1      -0.354  -0.489  -2.710  1.00  0.00     0.186 HD
HETATM   21  C   LIG     1      -0.257  -0.656   0.549  1.00  0.00     0.068 A 
BRANCH  17  22
HETATM   22  C   LIG     1      -0.017  -3.130  -2.078  1.00  0.00     0.102 C 
HETATM   23  C   LIG     1      -1.445  -3.531  -2.448  1.00  0.00     0.034 C 
HETATM   24  C   LIG     1       0.875  -2.946  -3.304  1.00  0.00     0.034 C 
ENDBRANCH  17  22
ENDBRANCH   1  16
TORSDOF 3
