REMARK  2 active torsions:
REMARK  status: ('A' for Active; 'I' for Inactive)
REMARK    1  A    between atoms: C_2  and  C_3 
REMARK       I    between atoms: C_2  and  N_5 
REMARK    2  A    between atoms: N_5  and  C_12 
ROOT
HETATM    1  C   LIG     1      -3.053  -0.915  -1.198  1.00  0.00     0.252 C 
HETATM    2  N   LIG     1      -3.368   0.145  -2.041  1.00  0.00    -0.324 N 
ATOM      3  HN  LIG     1      -3.175   1.100  -1.741  1.00  0.00     0.169 HD
HETATM    4  O   LIG     1      -3.216  -2.090  -1.485  1.00  0.00    -0.270 OA
ENDROOT
BRANCH   1   5
HETATM    5  C   LIG     1      -2.519  -0.472   0.175  1.00  0.00     0.225 C 
HETATM    6  O   LIG     1      -1.883   0.826   0.113  1.00  0.00    -0.336 OA
HETATM    7  C   LIG     1      -0.551   0.561   0.281  1.00  0.00     0.076 A 
HETATM    8  C   LIG     1      -0.275  -0.756   0.603  1.00  0.00    -0.022 A 
HETATM    9  C   LIG     1       0.447   1.503   0.147  1.00  0.00     0.037 A 
HETATM   10  C   LIG     1      -1.540  -1.513   0.739  1.00  0.00     0.083 C 
HETATM   11  C   LIG     1       1.026  -1.188   0.787  1.00  0.00     0.010 A 
HETATM   12  C   LIG     1       2.055  -0.254   0.642  1.00  0.00     0.001 A 
HETATM   13  C   LIG     1       1.767   1.085   0.328  1.00  0.00     0.003 A 
ENDBRANCH   1   5
BRANCH   2  14
HETATM   14  C   LIG     1      -3.949  -0.081  -3.301  1.00  0.00     0.050 A 
HETATM   15  C   LIG     1      -5.031  -0.940  -3.482  1.00  0.00     0.117 A 
HETATM   16  N   LIG     1      -5.630  -1.168  -4.675  1.00  0.00    -0.373 N 
HETATM   17  C   LIG     1      -5.093  -0.542  -5.743  1.00  0.00     0.088 A 
ATOM     18  HN  LIG     1      -6.442  -1.779  -4.761  1.00  0.00     0.164 HD
HETATM   19  C   LIG     1      -4.007   0.319  -5.668  1.00  0.00     0.019 A 
HETATM   20  C   LIG     1      -3.444   0.576  -4.419  1.00  0.00     0.032 A 
ENDBRANCH   2  14
TORSDOF 2
