REMARK  0 active torsions:
REMARK  status: ('A' for Active; 'I' for Inactive)
ROOT
HETATM    1  N   LIG     1       1.083   0.052  -0.022  1.00  0.00    -0.197 NA
HETATM    2  C   LIG     1       2.234   0.052  -0.022  1.00  0.00     0.068 C 
HETATM    3  C   LIG     1       4.215  -0.712  -1.224  1.00  0.00    -0.034 A 
HETATM    4  C   LIG     1       3.678   0.052  -0.022  1.00  0.00     0.126 C 
HETATM    5  C   LIG     1       4.681  -0.043  -2.376  1.00  0.00    -0.051 A 
HETATM    6  C   LIG     1       3.986   2.180  -1.359  1.00  0.00     0.006 C 
HETATM    7  C   LIG     1       4.188  -2.118  -1.214  1.00  0.00     0.009 A 
HETATM    8  C   LIG     1       4.778   1.462  -2.447  1.00  0.00     0.039 C 
HETATM    9  C   LIG     1       4.196   1.503  -0.005  1.00  0.00     0.024 C 
HETATM   10  C   LIG     1       5.122  -0.794  -3.477  1.00  0.00     0.007 A 
HETATM   11  C   LIG     1       4.619  -2.849  -2.320  1.00  0.00     0.001 A 
HETATM   12  C   LIG     1       5.086  -2.187  -3.452  1.00  0.00     0.001 A 
ENDROOT
TORSDOF 0
