REMARK  3 active torsions:
REMARK  status: ('A' for Active; 'I' for Inactive)
REMARK    1  A    between atoms: C_1  and  C_3 
REMARK       I    between atoms: C_3  and  N_9 
REMARK    2  A    between atoms: N_8  and  C_11 
REMARK    3  A    between atoms: N_9  and  C_13 
ROOT
HETATM    1  C   LIG     1       0.222   7.697   0.142  1.00  0.00     0.010 A 
HETATM    2  C   LIG     1      -0.111   4.906  -0.354  1.00  0.00     0.035 A 
HETATM    3  C   LIG     1      -0.291   7.228  -1.071  1.00  0.00     0.026 A 
HETATM    4  C   LIG     1       0.593   6.733   1.091  1.00  0.00     0.026 A 
HETATM    5  C   LIG     1      -0.459   5.855  -1.315  1.00  0.00     0.031 A 
HETATM    6  C   LIG     1       0.430   5.360   0.851  1.00  0.00     0.031 A 
ENDROOT
BRANCH   2   7
HETATM    7  N   LIG     1      -0.271   3.509  -0.515  1.00  0.00    -0.323 N 
HETATM    8  C   LIG     1      -0.855   2.866  -1.590  1.00  0.00     0.259 C 
HETATM    9  O   LIG     1      -1.334   3.426  -2.575  1.00  0.00    -0.267 OA
ATOM     10  HN  LIG     1       0.080   2.917   0.238  1.00  0.00     0.169 HD
BRANCH   8  11
HETATM   11  C   LIG     1      -0.901   1.412  -1.493  1.00  0.00     0.072 A 
HETATM   12  C   LIG     1      -1.837   0.589  -2.112  1.00  0.00     0.041 A 
HETATM   13  N   LIG     1      -1.435  -0.697  -1.860  1.00  0.00    -0.300 N 
HETATM   14  C   LIG     1      -3.036   0.923  -2.926  1.00  0.00     0.071 C 
HETATM   15  N   LIG     1      -0.371  -0.769  -1.039  1.00  0.00    -0.309 N 
HETATM   16  C   LIG     1      -2.003  -1.908  -2.407  1.00  0.00     0.177 C 
HETATM   17  C   LIG     1      -0.039   0.508  -0.836  1.00  0.00     0.126 A 
ATOM     18  HN  LIG     1       0.077  -1.604  -0.661  1.00  0.00     0.186 HD
ENDBRANCH   8  11
ENDBRANCH   2   7
BRANCH   1  19
HETATM   19  N   LIG     1       0.343   9.093   0.352  1.00  0.00    -0.283 NA
HETATM   20  C   LIG     1       0.204   9.512   1.758  1.00  0.00     0.095 C 
HETATM   21  C   LIG     1       0.271  11.028   1.897  1.00  0.00     0.015 C 
HETATM   22  C   LIG     1       1.562  11.555   1.285  1.00  0.00     0.002 C 
HETATM   23  C   LIG     1       1.624  11.155  -0.184  1.00  0.00     0.015 C 
HETATM   24  C   LIG     1       1.518   9.637  -0.360  1.00  0.00     0.095 C 
ENDBRANCH   1  19
TORSDOF 3
