REMARK  2 active torsions:
REMARK  status: ('A' for Active; 'I' for Inactive)
REMARK    1  A    between atoms: N_2  and  C_10 
REMARK    2  A    between atoms: C_10  and  C_11 
ROOT
HETATM    1  C   LIG     1       1.006   0.803  -1.810  1.00  0.00     0.121 A 
HETATM    2  N   LIG     1      -0.086  -1.373  -1.617  1.00  0.00    -0.252 N 
HETATM    3  C   LIG     1       0.267  -0.194  -0.979  1.00  0.00     0.283 A 
HETATM    4  N   LIG     1       0.104  -1.582  -2.954  1.00  0.00    -0.299 N 
ATOM      5  HN  LIG     1      -0.222  -2.445  -3.389  1.00  0.00     0.187 HD
HETATM    6  C   LIG     1       1.228   0.591  -3.122  1.00  0.00    -0.012 A 
HETATM    7  C   LIG     1       0.696  -0.684  -3.662  1.00  0.00     0.029 A 
HETATM    8  C   LIG     1       1.474   1.971  -1.154  1.00  0.00     0.105 C 
HETATM    9  N   LIG     1       1.901   2.949  -0.682  1.00  0.00    -0.191 NA
HETATM   10  O   LIG     1       0.011   0.039   0.200  1.00  0.00    -0.265 OA
HETATM   11  C   LIG     1       1.959   1.501  -4.062  1.00  0.00     0.052 C 
HETATM   12  C   LIG     1       0.821  -0.984  -5.139  1.00  0.00     0.070 C 
ENDROOT
BRANCH   2  13
HETATM   13  C   LIG     1      -0.786  -2.426  -0.863  1.00  0.00     0.191 C 
BRANCH  13  14
HETATM   14  C   LIG     1      -1.096  -3.678  -1.662  1.00  0.00    -0.037 A 
HETATM   15  C   LIG     1      -2.417  -4.084  -1.894  1.00  0.00     0.015 A 
HETATM   16  C   LIG     1      -2.690  -5.210  -2.684  1.00  0.00    -0.061 A 
HETATM   17  C   LIG     1      -1.628  -5.917  -3.268  1.00  0.00     0.013 A 
HETATM   18  C   LIG     1      -4.100  -5.670  -2.909  1.00  0.00     0.048 C 
HETATM   19  C   LIG     1      -0.304  -5.523  -3.055  1.00  0.00    -0.061 A 
HETATM   20  C   LIG     1      -0.049  -4.425  -2.227  1.00  0.00     0.015 A 
HETATM   21  C   LIG     1       0.843  -6.243  -3.696  1.00  0.00     0.048 C 
ENDBRANCH  13  14
ENDBRANCH   2  13
TORSDOF 2
