REMARK  1 active torsions:
REMARK  status: ('A' for Active; 'I' for Inactive)
REMARK    1  A    between atoms: C_5  and  C_11 
ROOT
HETATM    1  N   LIG     1       4.800  -1.341  -2.421  1.00  0.00    -0.197 NA
HETATM    2  C   LIG     1       4.280  -1.297  -1.384  1.00  0.00     0.065 C 
HETATM    3  C   LIG     1       3.662  -1.218  -0.056  1.00  0.00     0.182 C 
ENDROOT
BRANCH   3   4
HETATM    4  C   LIG     1       2.355  -0.472  -0.074  1.00  0.00     0.045 A 
HETATM    5  N   LIG     1       1.233  -1.238  -0.007  1.00  0.00    -0.355 N 
HETATM    6  C   LIG     1       0.044  -0.605  -0.027  1.00  0.00     0.059 A 
ATOM      7  HN  LIG     1       1.290  -2.254   0.056  1.00  0.00     0.166 HD
HETATM    8  C   LIG     1      -0.033   0.803  -0.105  1.00  0.00     0.059 A 
HETATM    9  C   LIG     1      -1.132  -1.344   0.031  1.00  0.00     0.032 A 
HETATM   10  N   LIG     1       1.080   1.559  -0.163  1.00  0.00    -0.356 N 
HETATM   11  C   LIG     1      -1.282   1.412  -0.121  1.00  0.00     0.032 A 
HETATM   12  C   LIG     1       2.277   0.920  -0.152  1.00  0.00     0.029 A 
ATOM     13  HN  LIG     1       1.025   2.576  -0.213  1.00  0.00     0.166 HD
HETATM   14  C   LIG     1       3.488   1.801  -0.219  1.00  0.00     0.070 C 
HETATM   15  C   LIG     1      -2.457   0.661  -0.062  1.00  0.00     0.002 A 
HETATM   16  C   LIG     1      -2.382  -0.723   0.014  1.00  0.00     0.002 A 
ENDBRANCH   3   4
TORSDOF 1
