REMARK  2 active torsions:
REMARK  status: ('A' for Active; 'I' for Inactive)
REMARK    1  A    between atoms: N_7  and  C_12 
REMARK    2  A    between atoms: C_11  and  C_12 
ROOT
HETATM    1  C   LIG     1       2.245  -0.250   0.160  1.00  0.00     0.225 A 
HETATM    2  N   LIG     1       1.486  -1.261   0.528  1.00  0.00    -0.320 N 
ATOM      3  HN  LIG     1       1.777  -2.183   0.854  1.00  0.00     0.169 HD
HETATM    4  O   LIG     1       1.566   0.867  -0.237  1.00  0.00    -0.277 OA
HETATM    5  C   LIG     1       0.211  -0.781   0.369  1.00  0.00     0.069 A 
HETATM    6  C   LIG     1       0.255   0.521  -0.098  1.00  0.00     0.106 A 
HETATM    7  N   LIG     1       3.581  -0.147   0.122  1.00  0.00    -0.350 N 
ATOM      8  HN  LIG     1       4.035   0.766   0.133  1.00  0.00     0.163 HD
HETATM    9  C   LIG     1      -1.038  -1.377   0.593  1.00  0.00     0.032 A 
HETATM   10  C   LIG     1      -0.858   1.308  -0.365  1.00  0.00     0.040 A 
HETATM   11  C   LIG     1      -2.190  -0.617   0.333  1.00  0.00     0.002 A 
HETATM   12  C   LIG     1      -2.099   0.701  -0.135  1.00  0.00     0.003 A 
ENDROOT
BRANCH   7  13
HETATM   13  C   LIG     1       4.366  -1.368   0.065  1.00  0.00     0.180 C 
BRANCH  13  14
HETATM   14  C   LIG     1       4.601  -1.800  -1.371  1.00  0.00     0.026 A 
HETATM   15  N   LIG     1       5.241  -0.921  -2.190  1.00  0.00    -0.368 N 
HETATM   16  C   LIG     1       5.465  -1.314  -3.464  1.00  0.00     0.088 A 
ATOM     17  HN  LIG     1       5.539  -0.004  -1.856  1.00  0.00     0.165 HD
HETATM   18  C   LIG     1       5.084  -2.545  -3.970  1.00  0.00     0.017 A 
HETATM   19  C   LIG     1       4.428  -3.429  -3.122  1.00  0.00     0.003 A 
HETATM   20  C   LIG     1       4.179  -3.055  -1.805  1.00  0.00     0.027 A 
ENDBRANCH  13  14
ENDBRANCH   7  13
TORSDOF 2
