REMARK  3 active torsions:
REMARK  status: ('A' for Active; 'I' for Inactive)
REMARK       I    between atoms: N_1  and  C_3 
REMARK    1  A    between atoms: C_3  and  C_8 
REMARK    2  A    between atoms: O_7  and  C_8 
REMARK    3  A    between atoms: O_7  and  C_10 
ROOT
HETATM    1  N   LIG     1      -0.466   0.051   0.807  1.00  0.00    -0.314 N 
HETATM    2  C   LIG     1      -1.133  -1.233   0.735  1.00  0.00     0.059 A 
HETATM    3  C   LIG     1      -0.883   1.154   0.034  1.00  0.00     0.248 C 
HETATM    4  C   LIG     1      -0.992  -2.181   1.764  1.00  0.00     0.036 A 
HETATM    5  N   LIG     1      -1.603  -3.397   1.780  1.00  0.00    -0.367 N 
ATOM      6  HN  LIG     1      -1.482  -4.042   2.561  1.00  0.00     0.165 HD
HETATM    7  O   LIG     1      -1.785   1.125  -0.801  1.00  0.00    -0.271 OA
HETATM    8  C   LIG     1       0.543   0.227   1.866  1.00  0.00     0.133 C 
HETATM    9  C   LIG     1      -1.929  -1.627  -0.346  1.00  0.00     0.033 A 
HETATM   10  C   LIG     1       1.053  -1.062   2.496  1.00  0.00     0.026 C 
HETATM   11  C   LIG     1      -0.135  -1.878   2.958  1.00  0.00     0.061 C 
HETATM   12  C   LIG     1      -2.373  -3.712   0.722  1.00  0.00     0.088 A 
HETATM   13  C   LIG     1      -2.558  -2.873  -0.357  1.00  0.00     0.019 A 
ENDROOT
BRANCH   3  14
HETATM   14  C   LIG     1      -0.153   2.497   0.238  1.00  0.00     0.278 C 
BRANCH  14  15
HETATM   15  O   LIG     1      -0.194   3.082   1.531  1.00  0.00    -0.342 OA
BRANCH  15  16
HETATM   16  C   LIG     1      -1.218   3.959   1.785  1.00  0.00     0.075 A 
HETATM   17  C   LIG     1      -0.935   5.024   2.662  1.00  0.00    -0.029 A 
HETATM   18  C   LIG     1       0.442   5.216   3.234  1.00  0.00     0.051 C 
HETATM   19  C   LIG     1      -1.949   5.939   2.989  1.00  0.00     0.009 A 
HETATM   20  C   LIG     1      -3.235   5.786   2.475  1.00  0.00     0.001 A 
HETATM   21  C   LIG     1      -3.518   4.719   1.629  1.00  0.00     0.003 A 
HETATM   22  C   LIG     1      -2.514   3.808   1.284  1.00  0.00     0.037 A 
ENDBRANCH  15  16
ENDBRANCH  14  15
ENDBRANCH   3  14
TORSDOF 3
