REMARK  3 active torsions:
REMARK  status: ('A' for Active; 'I' for Inactive)
REMARK       I    between atoms: C_1  and  N_2 
REMARK    1  A    between atoms: C_1  and  C_7 
REMARK    2  A    between atoms: N_2  and  C_4 
REMARK    3  A    between atoms: N_6  and  C_7 
ROOT
HETATM    1  C   LIG     1       0.497  -1.236   0.420  1.00  0.00     0.246 C 
HETATM    2  N   LIG     1      -0.216  -1.211  -0.761  1.00  0.00    -0.351 N 
ATOM      3  HN  LIG     1       0.294  -1.114  -1.639  1.00  0.00     0.163 HD
HETATM    4  O   LIG     1      -0.046  -1.306   1.523  1.00  0.00    -0.272 OA
ENDROOT
BRANCH   2   5
HETATM    5  C   LIG     1      -1.660  -1.317  -0.805  1.00  0.00     0.118 C 
HETATM    6  C   LIG     1      -2.202  -0.623  -2.038  1.00  0.00    -0.029 A 
HETATM    7  C   LIG     1      -2.658  -1.349  -3.156  1.00  0.00    -0.050 A 
HETATM    8  C   LIG     1      -2.258   0.782  -2.066  1.00  0.00     0.010 A 
HETATM    9  C   LIG     1      -2.699  -2.857  -3.164  1.00  0.00     0.039 C 
HETATM   10  C   LIG     1      -3.175  -0.657  -4.264  1.00  0.00     0.007 A 
HETATM   11  C   LIG     1      -1.878  -3.504  -2.051  1.00  0.00     0.007 C 
HETATM   12  C   LIG     1      -2.101  -2.786  -0.724  1.00  0.00     0.030 C 
HETATM   13  C   LIG     1      -3.230   0.736  -4.273  1.00  0.00     0.001 A 
HETATM   14  C   LIG     1      -2.773   1.455  -3.174  1.00  0.00     0.001 A 
ENDBRANCH   2   5
BRANCH   1  15
HETATM   15  C   LIG     1       2.020  -1.231   0.279  1.00  0.00     0.374 C 
BRANCH  15  16
HETATM   16  N   LIG     1       2.512  -0.601  -0.976  1.00  0.00     0.101 N 
HETATM   17  C   LIG     1       3.999  -0.678  -1.029  1.00  0.00     0.299 C 
HETATM   18  C   LIG     1       4.730   0.303  -0.088  1.00  0.00     0.198 C 
HETATM   19  O   LIG     1       4.291   1.653  -0.278  1.00  0.00    -0.388 OA
HETATM   20  C   LIG     1       2.874   1.758  -0.117  1.00  0.00     0.198 C 
HETATM   21  C   LIG     1       2.147   0.831  -1.099  1.00  0.00     0.299 C 
ENDBRANCH  15  16
ENDBRANCH   1  15
TORSDOF 3
