REMARK  2 active torsions:
REMARK  status: ('A' for Active; 'I' for Inactive)
REMARK    1  A    between atoms: N_7  and  C_9 
REMARK    2  A    between atoms: C_10  and  O_15 
ROOT
HETATM    1  C   LIG     1       2.982   0.624  -0.078  1.00  0.00     0.225 A 
HETATM    2  N   LIG     1       1.725   0.331  -0.331  1.00  0.00    -0.320 N 
ATOM      3  HN  LIG     1       1.278  -0.586  -0.324  1.00  0.00     0.169 HD
HETATM    4  O   LIG     1       3.298   1.949  -0.180  1.00  0.00    -0.277 OA
HETATM    5  C   LIG     1       1.158   1.548  -0.606  1.00  0.00     0.069 A 
HETATM    6  C   LIG     1       2.119   2.541  -0.525  1.00  0.00     0.106 A 
HETATM    7  N   LIG     1       4.002  -0.184   0.248  1.00  0.00    -0.351 N 
ATOM      8  HN  LIG     1       4.819   0.186   0.733  1.00  0.00     0.163 HD
HETATM    9  C   LIG     1      -0.157   1.901  -0.936  1.00  0.00     0.032 A 
HETATM   10  C   LIG     1       1.886   3.890  -0.762  1.00  0.00     0.040 A 
HETATM   11  C   LIG     1       0.569   4.228  -1.096  1.00  0.00     0.003 A 
HETATM   12  C   LIG     1      -0.436   3.255  -1.179  1.00  0.00     0.002 A 
ENDROOT
BRANCH   7  13
HETATM   13  C   LIG     1       3.927  -1.593  -0.099  1.00  0.00     0.085 C 
HETATM   14  C   LIG     1       4.502  -1.814  -1.506  1.00  0.00     0.028 C 
HETATM   15  C   LIG     1       4.553  -3.295  -1.867  1.00  0.00     0.034 C 
HETATM   16  C   LIG     1       5.315  -4.104  -0.819  1.00  0.00     0.118 C 
HETATM   17  C   LIG     1       4.750  -3.885   0.583  1.00  0.00     0.034 C 
HETATM   18  C   LIG     1       4.710  -2.403   0.944  1.00  0.00     0.028 C 
BRANCH  16  19
HETATM   19  O   LIG     1       5.256  -5.486  -1.148  1.00  0.00    -0.396 OA
ATOM     20  HO  LIG     1       5.607  -5.622  -2.020  1.00  0.00     0.210 HD
ENDBRANCH  16  19
ENDBRANCH   7  13
TORSDOF 2
