REMARK  2 active torsions:
REMARK  status: ('A' for Active; 'I' for Inactive)
REMARK       I    between atoms: C_1  and  N_2 
REMARK       I    between atoms: C_1  and  N_4 
REMARK    1  A    between atoms: C_3  and  C_6 
REMARK    2  A    between atoms: N_4  and  C_11 
ROOT
HETATM    1  C   LIG     1       0.366  -0.398   0.305  1.00  0.00     0.323 C 
HETATM    2  N   LIG     1      -0.100  -1.598  -0.197  1.00  0.00    -0.325 N 
HETATM    3  C   LIG     1      -1.003  -1.881  -1.321  1.00  0.00     0.123 C 
HETATM    4  N   LIG     1      -0.113   0.744  -0.290  1.00  0.00    -0.309 N 
ATOM      5  HN  LIG     1      -0.758   0.616  -1.069  1.00  0.00     0.170 HD
HETATM    6  O   LIG     1       1.171  -0.407   1.239  1.00  0.00    -0.247 OA
HETATM    7  C   LIG     1       0.465  -2.831   0.326  1.00  0.00     0.128 C 
HETATM    8  C   LIG     1      -0.930  -3.413  -1.498  1.00  0.00     0.032 C 
HETATM    9  C   LIG     1       0.382  -3.803  -0.833  1.00  0.00     0.022 C 
ENDROOT
BRANCH   3  10
HETATM   10  C   LIG     1      -2.432  -1.438  -1.117  1.00  0.00    -0.020 A 
HETATM   11  C   LIG     1      -3.227  -1.122  -2.217  1.00  0.00     0.096 A 
HETATM   12  N   LIG     1      -4.512  -0.707  -2.139  1.00  0.00    -0.375 N 
HETATM   13  C   LIG     1      -5.048  -0.616  -0.904  1.00  0.00     0.087 A 
ATOM     14  HN  LIG     1      -5.050  -0.474  -2.974  1.00  0.00     0.164 HD
HETATM   15  C   LIG     1      -4.362  -0.936   0.254  1.00  0.00     0.018 A 
HETATM   16  C   LIG     1      -3.040  -1.362   0.142  1.00  0.00     0.012 A 
ENDBRANCH   3  10
BRANCH   4  17
HETATM   17  C   LIG     1       0.196   2.083   0.066  1.00  0.00     0.036 A 
HETATM   18  C   LIG     1       1.050   2.444   1.115  1.00  0.00     0.029 A 
HETATM   19  C   LIG     1       1.308   3.789   1.408  1.00  0.00     0.002 A 
HETATM   20  C   LIG     1       0.710   4.796   0.660  1.00  0.00     0.000 A 
HETATM   21  C   LIG     1      -0.148   4.456  -0.383  1.00  0.00     0.002 A 
HETATM   22  C   LIG     1      -0.400   3.109  -0.680  1.00  0.00     0.029 A 
ENDBRANCH   4  17
TORSDOF 2
