REMARK  3 active torsions:
REMARK  status: ('A' for Active; 'I' for Inactive)
REMARK    1  A    between atoms: C_1  and  C_4 
REMARK       I    between atoms: C_4  and  N_8 
REMARK    2  A    between atoms: N_8  and  C_13 
REMARK    3  A    between atoms: C_13  and  C_15 
ROOT
HETATM    1  C   LIG     1      -1.369  -0.951   0.321  1.00  0.00     0.128 A 
HETATM    2  N   LIG     1      -2.189   0.064   0.679  1.00  0.00    -0.294 N 
ATOM      3  HN  LIG     1      -3.180   0.019   0.918  1.00  0.00     0.187 HD
HETATM    4  C   LIG     1      -0.046  -0.483   0.067  1.00  0.00     0.026 A 
HETATM    5  N   LIG     1      -1.391   1.146   0.646  1.00  0.00    -0.299 N 
ATOM      6  HN  LIG     1      -1.724   2.083   0.871  1.00  0.00     0.187 HD
HETATM    7  C   LIG     1      -0.098   0.888   0.286  1.00  0.00     0.060 A 
HETATM    8  C   LIG     1       1.177  -1.061  -0.326  1.00  0.00     0.016 A 
HETATM    9  C   LIG     1       1.008   1.730   0.133  1.00  0.00     0.032 A 
HETATM   10  C   LIG     1       2.297  -0.238  -0.490  1.00  0.00     0.001 A 
HETATM   11  C   LIG     1       2.211   1.136  -0.264  1.00  0.00     0.002 A 
ENDROOT
BRANCH   1  12
HETATM   12  C   LIG     1      -1.860  -2.334   0.220  1.00  0.00     0.270 C 
HETATM   13  N   LIG     1      -3.202  -2.455   0.508  1.00  0.00    -0.351 N 
ATOM     14  HN  LIG     1      -3.718  -1.611   0.755  1.00  0.00     0.163 HD
HETATM   15  O   LIG     1      -1.143  -3.283  -0.089  1.00  0.00    -0.266 OA
BRANCH  13  16
HETATM   16  C   LIG     1      -3.923  -3.713   0.481  1.00  0.00     0.080 C 
HETATM   17  C   LIG     1      -4.977  -3.674  -0.624  1.00  0.00     0.032 C 
BRANCH  16  18
HETATM   18  C   LIG     1      -4.572  -3.997   1.843  1.00  0.00     0.020 C 
HETATM   19  C   LIG     1      -3.553  -4.124   2.969  1.00  0.00     0.007 C 
ENDBRANCH  16  18
ENDBRANCH  13  16
ENDBRANCH   1  12
TORSDOF 3
