REMARK  2 active torsions:
REMARK  status: ('A' for Active; 'I' for Inactive)
REMARK    1  A    between atoms: C_1  and  C_3 
REMARK       I    between atoms: C_3  and  N_7 
REMARK    2  A    between atoms: N_7  and  C_9 
ROOT
HETATM    1  C   LIG     1       1.820  -1.467  -0.452  1.00  0.00     0.103 A 
HETATM    2  N   LIG     1       2.512  -0.288  -0.206  1.00  0.00    -0.355 N 
HETATM    3  C   LIG     1       2.731  -2.319  -1.074  1.00  0.00     0.056 A 
HETATM    4  C   LIG     1       3.817  -0.405  -0.614  1.00  0.00     0.110 A 
HETATM    5  C   LIG     1       3.963  -1.650  -1.160  1.00  0.00     0.028 A 
HETATM    6 BR   LIG     1       5.512  -2.387  -1.908  1.00  0.00    -0.050 Br
HETATM    7  C   LIG     1       1.957   0.911   0.391  1.00  0.00     0.156 C 
ENDROOT
BRANCH   1   8
HETATM    8  C   LIG     1       0.422  -1.690  -0.104  1.00  0.00     0.268 C 
HETATM    9  N   LIG     1      -0.058  -2.945  -0.424  1.00  0.00    -0.351 N 
ATOM     10  HN  LIG     1       0.567  -3.602  -0.891  1.00  0.00     0.163 HD
HETATM   11  O   LIG     1      -0.283  -0.841   0.438  1.00  0.00    -0.266 OA
BRANCH   9  12
HETATM   12  C   LIG     1      -1.389  -3.361  -0.130  1.00  0.00     0.085 A 
HETATM   13  C   LIG     1      -2.078  -4.375  -1.002  1.00  0.00     0.027 A 
HETATM   14  C   LIG     1      -2.537  -2.947  -1.007  1.00  0.00     0.027 A 
ENDBRANCH   9  12
ENDBRANCH   1   8
TORSDOF 2
