REMARK  1 active torsions:
REMARK  status: ('A' for Active; 'I' for Inactive)
REMARK    1  A    between atoms: N_1  and  C_8 
ROOT
HETATM    1  N   LIG     1      -2.525   4.214  -1.702  1.00  0.00    -0.196 NA
HETATM    2  C   LIG     1      -2.603   3.318  -0.965  1.00  0.00     0.073 C 
HETATM    3  C   LIG     1      -2.720   2.214   0.012  1.00  0.00     0.219 C 
ENDROOT
BRANCH   3   4
HETATM    4  N   LIG     1      -2.107   0.961  -0.442  1.00  0.00    -0.270 NA
HETATM    5  C   LIG     1      -0.723   0.776  -0.252  1.00  0.00     0.017 A 
HETATM    6  C   LIG     1      -0.394  -0.572  -0.059  1.00  0.00    -0.036 A 
HETATM    7  C   LIG     1       0.286   1.725  -0.278  1.00  0.00     0.024 A 
HETATM    8  C   LIG     1      -1.632  -1.399  -0.127  1.00  0.00     0.055 C 
HETATM    9  C   LIG     1       0.913  -0.998   0.118  1.00  0.00     0.009 A 
HETATM   10  C   LIG     1      -2.696  -0.303   0.038  1.00  0.00     0.101 C 
HETATM   11  C   LIG     1       1.922  -0.037   0.109  1.00  0.00     0.001 A 
HETATM   12  C   LIG     1       1.611   1.315  -0.090  1.00  0.00     0.002 A 
ENDBRANCH   3   4
TORSDOF 1
