REMARK  2 active torsions:
REMARK  status: ('A' for Active; 'I' for Inactive)
REMARK    1  A    between atoms: C_1  and  C_3 
REMARK       I    between atoms: C_3  and  N_9 
REMARK    2  A    between atoms: C_6  and  N_9 
ROOT
HETATM    1  C   LIG     1       1.846  -1.656   0.079  1.00  0.00     0.259 C 
HETATM    2  N   LIG     1       3.175  -1.632   0.447  1.00  0.00    -0.308 N 
ATOM      3  HN  LIG     1       3.585  -0.721   0.650  1.00  0.00     0.170 HD
HETATM    4  O   LIG     1       1.178  -2.643  -0.197  1.00  0.00    -0.267 OA
ENDROOT
BRANCH   1   5
HETATM    5  C   LIG     1       1.238  -0.319   0.079  1.00  0.00     0.060 A 
HETATM    6  C   LIG     1       1.884   0.888  -0.152  1.00  0.00     0.108 A 
HETATM    7  N   LIG     1       0.964   1.899  -0.064  1.00  0.00    -0.359 N 
HETATM    8  C   LIG     1      -0.284   1.388   0.213  1.00  0.00     0.045 A 
HETATM    9  C   LIG     1       1.275   3.301  -0.234  1.00  0.00     0.156 C 
HETATM   10  C   LIG     1      -0.145  -0.002   0.292  1.00  0.00     0.008 A 
HETATM   11  C   LIG     1      -1.522   2.026   0.399  1.00  0.00     0.030 A 
HETATM   12  C   LIG     1      -1.291  -0.777   0.572  1.00  0.00     0.015 A 
HETATM   13  C   LIG     1      -2.528  -0.152   0.761  1.00  0.00     0.001 A 
HETATM   14  C   LIG     1      -2.639   1.232   0.674  1.00  0.00     0.002 A 
ENDBRANCH   1   5
BRANCH   2  15
HETATM   15  C   LIG     1       3.995  -2.730   0.564  1.00  0.00     0.124 A 
HETATM   16  N   LIG     1       3.656  -3.989   0.297  1.00  0.00    -0.284 N 
HETATM   17  N   LIG     1       4.748  -4.709   0.583  1.00  0.00    -0.306 N 
ATOM     18  HN  LIG     1       2.760  -4.331  -0.050  1.00  0.00     0.188 HD
HETATM   19  C   LIG     1       5.802  -3.952   0.998  1.00  0.00     0.113 A 
HETATM   20  C   LIG     1       4.708  -6.143   0.436  1.00  0.00     0.177 C 
HETATM   21  C   LIG     1       5.344  -2.655   0.997  1.00  0.00     0.068 A 
ENDBRANCH   2  15
TORSDOF 2
