REMARK  2 active torsions:
REMARK  status: ('A' for Active; 'I' for Inactive)
REMARK       I    between atoms: N_1  and  C_4 
REMARK    1  A    between atoms: N_1  and  C_6 
REMARK    2  A    between atoms: C_4  and  C_5 
ROOT
HETATM    1  N   LIG     1      -0.539   0.567  -0.039  1.00  0.00    -0.325 N 
ATOM      2  HN  LIG     1      -0.751  -0.329   0.400  1.00  0.00     0.169 HD
HETATM    3  C   LIG     1      -0.319   1.669   0.781  1.00  0.00     0.236 C 
HETATM    4  O   LIG     1      -0.065   2.801   0.383  1.00  0.00    -0.272 OA
ENDROOT
BRANCH   3   5
HETATM    5  C   LIG     1      -0.383   1.381   2.284  1.00  0.00     0.149 C 
HETATM    6  S   LIG     1      -1.976   0.607   2.743  1.00  0.00    -0.115 SA
HETATM    7  C   LIG     1      -1.264  -1.012   2.724  1.00  0.00     0.007 A 
HETATM    8  C   LIG     1       0.132  -0.975   2.654  1.00  0.00    -0.040 A 
HETATM    9  C   LIG     1      -1.958  -2.208   2.663  1.00  0.00     0.019 A 
HETATM   10  C   LIG     1       0.723   0.406   2.715  1.00  0.00     0.065 C 
HETATM   11  C   LIG     1       0.859  -2.153   2.538  1.00  0.00     0.008 A 
HETATM   12  C   LIG     1       0.168  -3.364   2.466  1.00  0.00     0.001 A 
HETATM   13  C   LIG     1      -1.232  -3.392   2.528  1.00  0.00     0.001 A 
ENDBRANCH   3   5
BRANCH   1  14
HETATM   14  C   LIG     1      -0.483   0.626  -1.449  1.00  0.00     0.046 A 
HETATM   15  C   LIG     1      -1.572   0.123  -2.194  1.00  0.00    -0.035 A 
HETATM   16  C   LIG     1      -1.528   0.189  -3.596  1.00  0.00     0.009 A 
HETATM   17  C   LIG     1      -2.804  -0.480  -1.571  1.00  0.00     0.050 C 
HETATM   18  C   LIG     1      -0.434   0.746  -4.251  1.00  0.00     0.001 A 
HETATM   19  C   LIG     1       0.653   1.206  -3.515  1.00  0.00     0.009 A 
HETATM   20  C   LIG     1       0.660   1.124  -2.113  1.00  0.00    -0.035 A 
HETATM   21  C   LIG     1       1.916   1.550  -1.401  1.00  0.00     0.050 C 
ENDBRANCH   1  14
TORSDOF 2
