REMARK  1 active torsions:
REMARK  status: ('A' for Active; 'I' for Inactive)
REMARK    1  A    between atoms: C_8  and  C_11 
REMARK       I    between atoms: C_8  and  N_15 
ROOT
HETATM    1  C   LIG     1       2.458   0.187   2.072  1.00  0.00     0.227 A 
HETATM    2  N   LIG     1       1.919   1.271   2.595  1.00  0.00    -0.320 N 
ATOM      3  HN  LIG     1       2.144   2.245   2.393  1.00  0.00     0.169 HD
HETATM    4  O   LIG     1       1.934  -0.985   2.551  1.00  0.00    -0.277 OA
HETATM    5  N   LIG     1       3.431   0.067   1.134  1.00  0.00    -0.347 N 
HETATM    6  C   LIG     1       0.984   0.782   3.476  1.00  0.00     0.069 A 
HETATM    7  C   LIG     1       0.994  -0.600   3.445  1.00  0.00     0.106 A 
HETATM    8  C   LIG     1       4.344   1.197   0.970  1.00  0.00     0.127 C 
HETATM    9  C   LIG     1       4.044  -1.249   0.965  1.00  0.00     0.127 C 
HETATM   10  C   LIG     1       5.586  -0.208  -0.733  1.00  0.00     0.081 C 
HETATM   11  C   LIG     1       4.944   1.153  -0.436  1.00  0.00     0.034 C 
HETATM   12  C   LIG     1       4.626  -1.363  -0.436  1.00  0.00     0.034 C 
HETATM   13  C   LIG     1       0.089   1.423   4.341  1.00  0.00     0.032 A 
HETATM   14  C   LIG     1       0.179  -1.431   4.200  1.00  0.00     0.040 A 
HETATM   15  C   LIG     1      -0.710  -0.778   5.057  1.00  0.00     0.003 A 
HETATM   16  C   LIG     1      -0.753   0.621   5.132  1.00  0.00     0.002 A 
ENDROOT
BRANCH  10  17
HETATM   17  C   LIG     1       6.103  -0.286  -2.165  1.00  0.00     0.221 C 
HETATM   18  O   LIG     1       7.297  -0.403  -2.406  1.00  0.00    -0.273 OA
HETATM   19  N   LIG     1       5.140  -0.228  -3.149  1.00  0.00    -0.365 N 
HETATM   20  C   LIG     1       5.495  -0.278  -4.545  1.00  0.00     0.149 C 
ATOM     21  HN  LIG     1       4.158  -0.148  -2.885  1.00  0.00     0.161 HD
ENDBRANCH  10  17
TORSDOF 1
