REMARK  2 active torsions:
REMARK  status: ('A' for Active; 'I' for Inactive)
REMARK       I    between atoms: N_1  and  C_2 
REMARK    1  A    between atoms: C_2  and  C_4 
REMARK    2  A    between atoms: C_10  and  O_18 
ROOT
HETATM    1  N   LIG     1      -1.197   1.326  -0.156  1.00  0.00    -0.313 N 
HETATM    2  C   LIG     1      -1.126   2.712   0.107  1.00  0.00     0.259 C 
HETATM    3  C   LIG     1       0.010   0.547  -0.364  1.00  0.00     0.043 A 
HETATM    4  C   LIG     1       0.014  -0.845  -0.138  1.00  0.00    -0.031 A 
HETATM    5  C   LIG     1       1.222   1.140  -0.754  1.00  0.00     0.031 A 
HETATM    6  O   LIG     1      -0.071   3.341   0.277  1.00  0.00    -0.267 OA
HETATM    7  C   LIG     1       1.221  -1.572  -0.192  1.00  0.00     0.016 A 
HETATM    8  C   LIG     1      -2.444   0.551  -0.065  1.00  0.00     0.133 C 
HETATM    9  C   LIG     1       2.416   0.412  -0.806  1.00  0.00     0.009 A 
HETATM   10  C   LIG     1       2.430  -0.945  -0.495  1.00  0.00    -0.061 A 
HETATM   11  C   LIG     1      -1.246  -1.609   0.160  1.00  0.00     0.042 C 
HETATM   12  C   LIG     1      -2.303  -0.712   0.763  1.00  0.00     0.025 C 
HETATM   13  C   LIG     1       3.730  -1.687  -0.413  1.00  0.00     0.048 C 
ENDROOT
BRANCH   2  14
HETATM   14  C   LIG     1      -2.337   3.548   0.289  1.00  0.00     0.048 A 
HETATM   15  C   LIG     1      -2.269   4.583   1.225  1.00  0.00     0.107 A 
HETATM   16  N   LIG     1      -3.281   5.444   1.500  1.00  0.00    -0.346 N 
HETATM   17  C   LIG     1      -4.402   5.257   0.793  1.00  0.00     0.139 A 
ATOM     18  HN  LIG     1      -3.193   6.183   2.198  1.00  0.00     0.167 HD
HETATM   19  C   LIG     1      -4.583   4.291  -0.175  1.00  0.00     0.057 A 
HETATM   20  C   LIG     1      -3.515   3.436  -0.455  1.00  0.00     0.022 A 
BRANCH  17  21
HETATM   21  O   LIG     1      -5.389   6.136   1.088  1.00  0.00    -0.346 OA
ATOM     22  HO  LIG     1      -6.185   6.003   0.586  1.00  0.00     0.219 HD
ENDBRANCH  17  21
ENDBRANCH   2  14
TORSDOF 2
