REMARK  3 active torsions:
REMARK  status: ('A' for Active; 'I' for Inactive)
REMARK       I    between atoms: C_1  and  N_4 
REMARK    1  A    between atoms: C_1  and  C_5 
REMARK    2  A    between atoms: N_4  and  C_11 
REMARK    3  A    between atoms: C_11  and  C_17 
ROOT
HETATM    1  N   LIG     1       0.032  -7.837   2.611  1.00  0.00    -0.323 N 
ATOM      2  HN  LIG     1       0.358  -8.492   1.900  1.00  0.00     0.169 HD
HETATM    3  C   LIG     1      -0.438  -3.791   1.614  1.00  0.00     0.035 C 
HETATM    4  C   LIG     1      -0.506  -5.565   3.254  1.00  0.00     0.097 C 
HETATM    5  C   LIG     1       0.040  -6.464   2.333  1.00  0.00     0.068 C 
HETATM    6  C   LIG     1      -0.403  -8.320   3.816  1.00  0.00     0.246 C 
HETATM    7  O   LIG     1      -1.205  -5.984   4.367  1.00  0.00    -0.340 OA
HETATM    8  C   LIG     1      -0.685  -4.214   2.918  1.00  0.00     0.056 C 
HETATM    9  C   LIG     1       0.233  -4.654   0.733  1.00  0.00     0.019 C 
HETATM   10  C   LIG     1       0.477  -5.993   1.096  1.00  0.00     0.033 C 
HETATM   11  O   LIG     1      -0.415  -9.529   4.067  1.00  0.00    -0.271 OA
HETATM   12  C   LIG     1      -0.786  -7.252   4.837  1.00  0.00     0.278 C 
ENDROOT
BRANCH   3  13
HETATM   13  C   LIG     1      -0.922  -2.465   1.094  1.00  0.00     0.253 C 
HETATM   14  N   LIG     1      -2.271  -2.066   1.315  1.00  0.00    -0.348 N 
HETATM   15  C   LIG     1      -2.550  -0.635   1.158  1.00  0.00     0.153 C 
HETATM   16  O   LIG     1      -0.127  -1.795   0.493  1.00  0.00    -0.267 OA
BRANCH  14  17
HETATM   17  C   LIG     1      -3.347  -2.840   1.948  1.00  0.00     0.164 C 
BRANCH  17  18
HETATM   18  C   LIG     1      -3.752  -4.137   1.273  1.00  0.00    -0.040 C 
HETATM   19  C   LIG     1      -3.223  -5.358   1.692  1.00  0.00     0.009 C 
HETATM   20  C   LIG     1      -3.493  -6.596   1.129  1.00  0.00     0.001 C 
HETATM   21  C   LIG     1      -4.477  -6.655   0.176  1.00  0.00     0.000 C 
HETATM   22  C   LIG     1      -5.100  -5.468  -0.228  1.00  0.00     0.001 C 
HETATM   23  C   LIG     1      -4.724  -4.214   0.292  1.00  0.00     0.009 C 
ENDBRANCH  17  18
ENDBRANCH  14  17
ENDBRANCH   3  13
TORSDOF 3
