REMARK  3 active torsions:
REMARK  status: ('A' for Active; 'I' for Inactive)
REMARK    1  A    between atoms: C_1  and  C_3 
REMARK    2  A    between atoms: C_2  and  C_3 
REMARK    3  A    between atoms: C_6  and  C_14 
ROOT
HETATM    1  C   LIG     1      -1.029  -1.498   0.987  1.00  0.00     0.182 C 
HETATM    2  O   LIG     1      -0.267  -0.593   1.312  1.00  0.00    -0.288 OA
ENDROOT
BRANCH   1   3
HETATM    3  C   LIG     1      -0.528  -2.864   0.662  1.00  0.00     0.056 C 
HETATM    4  C   LIG     1       0.761  -3.180   0.868  1.00  0.00     0.017 C 
BRANCH   4   5
HETATM    5  C   LIG     1       1.346  -4.496   0.569  1.00  0.00    -0.021 A 
HETATM    6  C   LIG     1       2.438  -4.963   1.299  1.00  0.00     0.099 A 
HETATM    7  N   LIG     1       3.056  -6.152   1.092  1.00  0.00    -0.374 N 
HETATM    8  C   LIG     1       2.573  -6.918   0.092  1.00  0.00     0.087 A 
ATOM      9  HN  LIG     1       3.846  -6.452   1.663  1.00  0.00     0.164 HD
HETATM   10  C   LIG     1       1.508  -6.545  -0.711  1.00  0.00     0.018 A 
HETATM   11  C   LIG     1       0.894  -5.316  -0.471  1.00  0.00     0.014 A 
ENDBRANCH   4   5
ENDBRANCH   1   3
BRANCH   1  12
HETATM   12  C   LIG     1      -2.493  -1.235   0.865  1.00  0.00     0.015 A 
HETATM   13  C   LIG     1      -2.907   0.082   0.598  1.00  0.00     0.025 A 
HETATM   14  C   LIG     1      -4.266   0.347   0.522  1.00  0.00    -0.022 A 
HETATM   15  C   LIG     1      -5.196  -0.666   0.680  1.00  0.00     0.075 A 
HETATM   16  C   LIG     1      -4.972   1.618   0.241  1.00  0.00     0.068 C 
HETATM   17  C   LIG     1      -4.821  -1.969   0.934  1.00  0.00     0.038 A 
HETATM   18  O   LIG     1      -6.494  -0.249   0.561  1.00  0.00    -0.350 OA
HETATM   19  C   LIG     1      -3.456  -2.252   1.045  1.00  0.00     0.018 A 
HETATM   20  C   LIG     1      -6.397   1.194   0.607  1.00  0.00     0.180 C 
ENDBRANCH   1  12
TORSDOF 3
