REMARK  2 active torsions:
REMARK  status: ('A' for Active; 'I' for Inactive)
REMARK    1  A    between atoms: C_1  and  N_4 
REMARK       I    between atoms: N_4  and  C_7 
REMARK    2  A    between atoms: C_7  and  C_11 
ROOT
HETATM    1  N   LIG     1       0.443  -3.211   1.152  1.00  0.00    -0.312 N 
ATOM      2  HN  LIG     1       1.301  -3.097   1.691  1.00  0.00     0.170 HD
HETATM    3  C   LIG     1       0.540  -3.225  -0.215  1.00  0.00     0.227 C 
HETATM    4  O   LIG     1      -0.412  -3.299  -0.986  1.00  0.00    -0.273 OA
ENDROOT
BRANCH   1   5
HETATM    5  C   LIG     1      -0.742  -3.341   1.843  1.00  0.00     0.123 C 
HETATM    6  N   LIG     1      -0.876  -2.728   3.019  1.00  0.00    -0.284 N 
HETATM    7  N   LIG     1      -2.150  -2.980   3.368  1.00  0.00    -0.306 N 
ATOM      8  HN  LIG     1      -0.176  -2.193   3.534  1.00  0.00     0.188 HD
HETATM    9  C   LIG     1      -2.767  -3.882   2.552  1.00  0.00     0.113 C 
HETATM   10  C   LIG     1      -2.731  -2.326   4.515  1.00  0.00     0.177 C 
HETATM   11  C   LIG     1      -1.886  -4.106   1.519  1.00  0.00     0.068 C 
ENDBRANCH   1   5
BRANCH   3  12
HETATM   12  C   LIG     1       1.971  -3.107  -0.726  1.00  0.00     0.082 C 
HETATM   13  C   LIG     1       2.223  -4.219  -1.753  1.00  0.00     0.041 C 
HETATM   14  C   LIG     1       3.526  -4.051  -2.482  1.00  0.00    -0.030 C 
HETATM   15  C   LIG     1       4.203  -2.893  -2.499  1.00  0.00    -0.031 C 
HETATM   16  C   LIG     1       3.711  -1.641  -1.826  1.00  0.00     0.027 C 
HETATM   17  C   LIG     1       2.254  -1.733  -1.357  1.00  0.00     0.018 C 
ENDBRANCH   3  12
TORSDOF 2
