REMARK  3 active torsions:
REMARK  status: ('A' for Active; 'I' for Inactive)
REMARK    1  A    between atoms: C_2  and  C_3 
REMARK       I    between atoms: C_3  and  N_7 
REMARK    2  A    between atoms: N_7  and  C_10 
REMARK    3  A    between atoms: C_10  and  C_11 
ROOT
HETATM    1  C   LIG     1      -2.393  -1.232  -0.826  1.00  0.00     0.247 C 
HETATM    2  N   LIG     1      -3.666  -1.730  -0.977  1.00  0.00    -0.355 N 
ATOM      3  HN  LIG     1      -4.363  -1.533  -0.259  1.00  0.00     0.162 HD
HETATM    4  O   LIG     1      -1.507  -1.410  -1.663  1.00  0.00    -0.271 OA
ENDROOT
BRANCH   1   5
HETATM    5  C   LIG     1      -2.136  -0.524   0.517  1.00  0.00     0.225 C 
HETATM    6  O   LIG     1      -3.353   0.018   1.085  1.00  0.00    -0.336 OA
HETATM    7  C   LIG     1      -3.283   1.353   0.780  1.00  0.00     0.076 A 
HETATM    8  C   LIG     1      -2.040   1.752   0.314  1.00  0.00    -0.022 A 
HETATM    9  C   LIG     1      -4.333   2.237   0.909  1.00  0.00     0.037 A 
HETATM   10  C   LIG     1      -1.106   0.604   0.371  1.00  0.00     0.083 C 
HETATM   11  C   LIG     1      -1.810   3.060  -0.072  1.00  0.00     0.010 A 
HETATM   12  C   LIG     1      -2.869   3.967   0.023  1.00  0.00     0.001 A 
HETATM   13  C   LIG     1      -4.120   3.561   0.519  1.00  0.00     0.003 A 
ENDBRANCH   1   5
BRANCH   2  14
HETATM   14  C   LIG     1      -4.044  -2.523  -2.122  1.00  0.00     0.161 C 
BRANCH  14  15
HETATM   15  C   LIG     1      -5.510  -2.394  -2.442  1.00  0.00    -0.041 A 
HETATM   16  C   LIG     1      -6.332  -3.529  -2.467  1.00  0.00     0.009 A 
HETATM   17  C   LIG     1      -7.689  -3.416  -2.774  1.00  0.00     0.001 A 
HETATM   18  C   LIG     1      -8.239  -2.169  -3.063  1.00  0.00     0.000 A 
HETATM   19  C   LIG     1      -7.429  -1.035  -3.056  1.00  0.00     0.001 A 
HETATM   20  C   LIG     1      -6.070  -1.146  -2.753  1.00  0.00     0.009 A 
ENDBRANCH  14  15
ENDBRANCH   2  14
TORSDOF 3
