REMARK  2 active torsions:
REMARK  status: ('A' for Active; 'I' for Inactive)
REMARK    1  A    between atoms: N_5  and  C_15 
REMARK    2  A    between atoms: N_8  and  C_14 
ROOT
HETATM    1  C   LIG     1       2.989   0.208  -1.488  1.00  0.00     0.225 A 
HETATM    2  N   LIG     1       1.754  -0.227  -1.640  1.00  0.00    -0.320 N 
ATOM      3  HN  LIG     1       1.274  -0.957  -1.114  1.00  0.00     0.169 HD
HETATM    4  O   LIG     1       3.359   1.198  -2.354  1.00  0.00    -0.277 OA
HETATM    5  C   LIG     1       1.266   0.534  -2.672  1.00  0.00     0.069 A 
HETATM    6  C   LIG     1       2.249   1.401  -3.119  1.00  0.00     0.106 A 
HETATM    7  N   LIG     1       3.939  -0.181  -0.626  1.00  0.00    -0.351 N 
ATOM      8  HN  LIG     1       4.713   0.444  -0.400  1.00  0.00     0.163 HD
HETATM    9  C   LIG     1       0.011   0.554  -3.296  1.00  0.00     0.032 A 
HETATM   10  C   LIG     1       2.096   2.301  -4.167  1.00  0.00     0.040 A 
HETATM   11  C   LIG     1       0.840   2.304  -4.786  1.00  0.00     0.003 A 
HETATM   12  C   LIG     1      -0.185   1.450  -4.359  1.00  0.00     0.002 A 
ENDROOT
BRANCH   7  13
HETATM   13  C   LIG     1       3.860  -1.501  -0.013  1.00  0.00     0.088 C 
HETATM   14  C   LIG     1       4.485  -1.455   1.383  1.00  0.00     0.055 C 
HETATM   15  C   LIG     1       4.490  -2.855   1.999  1.00  0.00     0.275 C 
HETATM   16  N   LIG     1       5.199  -3.861   1.189  1.00  0.00     0.092 N 
HETATM   17  C   LIG     1       4.616  -3.894  -0.166  1.00  0.00     0.275 C 
HETATM   18  C   LIG     1       4.592  -2.535  -0.872  1.00  0.00     0.055 C 
BRANCH  16  19
HETATM   19  C   LIG     1       6.678  -3.763   1.222  1.00  0.00     0.215 C 
HETATM   20  C   LIG     1       7.232  -3.729   2.659  1.00  0.00     0.042 C 
HETATM   21  C   LIG     1       7.342  -4.965   0.524  1.00  0.00     0.042 C 
ENDBRANCH  16  19
ENDBRANCH   7  13
TORSDOF 2
