REMARK  3 active torsions:
REMARK  status: ('A' for Active; 'I' for Inactive)
REMARK    1  A    between atoms: C_1  and  C_2 
REMARK    2  A    between atoms: C_1  and  C_7 
REMARK       I    between atoms: C_2  and  N_5 
REMARK    3  A    between atoms: N_5  and  C_11 
ROOT
HETATM    1  C   LIG     1      -0.105   1.639   0.135  1.00  0.00     0.235 C 
HETATM    2  N   LIG     1      -1.421   1.253   0.328  1.00  0.00    -0.325 N 
ATOM      3  HN  LIG     1      -1.795   0.552  -0.311  1.00  0.00     0.169 HD
HETATM    4  O   LIG     1       0.523   2.430   0.821  1.00  0.00    -0.272 OA
ENDROOT
BRANCH   1   5
HETATM    5  C   LIG     1       0.587   0.956  -1.035  1.00  0.00     0.068 A 
HETATM    6  C   LIG     1       2.108   0.793  -0.917  1.00  0.00     0.026 A 
HETATM    7  C   LIG     1       1.231  -0.408  -0.783  1.00  0.00     0.026 A 
BRANCH   5   8
HETATM    8  C   LIG     1       0.022   1.220  -2.434  1.00  0.00    -0.040 A 
HETATM    9  C   LIG     1       0.408   2.346  -3.184  1.00  0.00     0.008 A 
HETATM   10  C   LIG     1      -0.103   2.580  -4.465  1.00  0.00     0.001 A 
HETATM   11  C   LIG     1      -1.016   1.692  -5.026  1.00  0.00     0.000 A 
HETATM   12  C   LIG     1      -1.414   0.569  -4.309  1.00  0.00     0.001 A 
HETATM   13  C   LIG     1      -0.899   0.338  -3.030  1.00  0.00     0.008 A 
ENDBRANCH   5   8
ENDBRANCH   1   5
BRANCH   2  14
HETATM   14  C   LIG     1      -2.295   1.739   1.328  1.00  0.00     0.050 A 
HETATM   15  C   LIG     1      -1.960   2.687   2.293  1.00  0.00     0.117 A 
HETATM   16  N   LIG     1      -2.815   3.154   3.241  1.00  0.00    -0.373 N 
HETATM   17  C   LIG     1      -4.067   2.656   3.232  1.00  0.00     0.088 A 
ATOM     18  HN  LIG     1      -2.522   3.849   3.927  1.00  0.00     0.164 HD
HETATM   19  C   LIG     1      -4.502   1.708   2.323  1.00  0.00     0.019 A 
HETATM   20  C   LIG     1      -3.603   1.245   1.361  1.00  0.00     0.032 A 
ENDBRANCH   2  14
TORSDOF 3
