REMARK  4 active torsions:
REMARK  status: ('A' for Active; 'I' for Inactive)
REMARK    1  A    between atoms: N_1  and  C_4 
REMARK    2  A    between atoms: C_2  and  C_4 
REMARK    3  A    between atoms: C_3  and  C_5 
REMARK       I    between atoms: C_3  and  N_8 
REMARK    4  A    between atoms: C_7  and  O_14 
ROOT
HETATM    1  C   LIG     1       0.766  -3.462   0.326  1.00  0.00     0.014 A 
HETATM    2  C   LIG     1       0.066  -4.288   1.261  1.00  0.00    -0.015 A 
HETATM    3  C   LIG     1       2.134  -3.712   0.097  1.00  0.00     0.074 A 
HETATM    4  C   LIG     1       0.769  -5.347   1.899  1.00  0.00    -0.025 A 
HETATM    5  C   LIG     1       2.814  -4.731   0.750  1.00  0.00     0.038 A 
HETATM    6  C   LIG     1       2.129  -5.549   1.639  1.00  0.00     0.015 A 
HETATM    7  C   LIG     1      -1.304  -4.141   1.592  1.00  0.00     0.013 A 
HETATM    8  C   LIG     1       0.106  -6.213   2.785  1.00  0.00     0.012 A 
HETATM    9  C   LIG     1      -1.951  -5.012   2.477  1.00  0.00     0.001 A 
HETATM   10  C   LIG     1      -1.247  -6.052   3.067  1.00  0.00     0.001 A 
ENDROOT
BRANCH   1  11
HETATM   11  C   LIG     1       0.073  -2.378  -0.493  1.00  0.00     0.315 C 
BRANCH  11  12
HETATM   12  N   LIG     1      -0.058  -1.040   0.133  1.00  0.00     0.106 N 
HETATM   13  C   LIG     1       1.256  -0.418   0.468  1.00  0.00     0.314 C 
HETATM   14  C   LIG     1       1.728   0.179  -0.861  1.00  0.00     0.047 C 
HETATM   15  C   LIG     1       0.449   0.662  -1.525  1.00  0.00     0.033 C 
HETATM   16  C   LIG     1      -0.674  -0.112  -0.842  1.00  0.00     0.274 C 
BRANCH  13  17
HETATM   17  C   LIG     1       1.108   0.686   1.566  1.00  0.00     0.252 C 
HETATM   18  N   LIG     1       0.653   0.319   2.836  1.00  0.00    -0.359 N 
HETATM   19  C   LIG     1       0.606   1.322   3.886  1.00  0.00     0.152 C 
HETATM   20  C   LIG     1       0.350  -1.039   3.252  1.00  0.00     0.152 C 
HETATM   21  O   LIG     1       1.452   1.846   1.333  1.00  0.00    -0.271 OA
ENDBRANCH  13  17
ENDBRANCH  11  12
ENDBRANCH   1  11
BRANCH   3  22
HETATM   22  O   LIG     1       2.815  -2.940  -0.804  1.00  0.00    -0.360 OA
ATOM     23  HO  LIG     1       3.737  -3.109  -0.958  1.00  0.00     0.217 HD
ENDBRANCH   3  22
TORSDOF 4
