REMARK  2 active torsions:
REMARK  status: ('A' for Active; 'I' for Inactive)
REMARK       I    between atoms: N_1  and  C_2 
REMARK    1  A    between atoms: C_2  and  C_6 
REMARK    2  A    between atoms: N_3  and  C_6 
ROOT
HETATM    1  N   LIG     1      -1.581   0.707  -0.041  1.00  0.00    -0.316 N 
HETATM    2  C   LIG     1      -2.063   2.011  -0.169  1.00  0.00     0.242 C 
HETATM    3  C   LIG     1      -0.228   0.300  -0.093  1.00  0.00     0.043 A 
HETATM    4  C   LIG     1      -2.413  -0.501   0.108  1.00  0.00     0.137 A 
HETATM    5  C   LIG     1      -0.136  -1.088   0.046  1.00  0.00    -0.030 A 
HETATM    6  O   LIG     1      -1.340   2.996  -0.322  1.00  0.00    -0.271 OA
HETATM    7  C   LIG     1      -1.480  -1.711   0.226  1.00  0.00     0.061 A 
HETATM    8  C   LIG     1       0.921   1.056  -0.261  1.00  0.00     0.030 A 
HETATM    9  C   LIG     1       1.084  -1.750   0.016  1.00  0.00     0.009 A 
HETATM   10  C   LIG     1       2.159   0.397  -0.307  1.00  0.00     0.002 A 
HETATM   11  C   LIG     1       2.240  -0.997  -0.171  1.00  0.00     0.001 A 
ENDROOT
BRANCH   2  12
HETATM   12  C   LIG     1      -3.605   2.150  -0.064  1.00  0.00     0.234 C 
BRANCH  12  13
HETATM   13  N   LIG     1      -4.104   3.522  -0.211  1.00  0.00    -0.316 N 
HETATM   14  C   LIG     1      -4.448   3.961  -1.490  1.00  0.00     0.247 A 
HETATM   15  C   LIG     1      -4.869   5.389  -1.600  1.00  0.00     0.074 A 
HETATM   16  O   LIG     1      -4.445   3.258  -2.493  1.00  0.00    -0.268 OA
HETATM   17  C   LIG     1      -4.925   6.162  -0.510  1.00  0.00     0.007 A 
HETATM   18  C   LIG     1      -4.590   5.625   0.784  1.00  0.00     0.017 A 
HETATM   19  C   LIG     1      -4.187   4.351   0.897  1.00  0.00     0.095 A 
ENDBRANCH  12  13
ENDBRANCH   2  12
TORSDOF 2
