REMARK  2 active torsions:
REMARK  status: ('A' for Active; 'I' for Inactive)
REMARK       I    between atoms: N_1  and  C_3 
REMARK    1  A    between atoms: N_1  and  C_5 
REMARK    2  A    between atoms: C_3  and  C_4 
ROOT
HETATM    1  N   LIG     1       0.151  -0.102   0.821  1.00  0.00    -0.312 N 
ATOM      2  HN  LIG     1       1.024  -0.404   1.253  1.00  0.00     0.170 HD
HETATM    3  C   LIG     1      -0.861   0.182   1.708  1.00  0.00     0.229 C 
HETATM    4  O   LIG     1      -0.606   0.039   2.902  1.00  0.00    -0.273 OA
ENDROOT
BRANCH   3   5
HETATM    5  C   LIG     1      -2.272   0.573   1.249  1.00  0.00     0.107 C 
HETATM    6  C   LIG     1      -3.052  -0.682   0.849  1.00  0.00     0.057 C 
HETATM    7  C   LIG     1      -4.541  -0.534   0.991  1.00  0.00    -0.024 A 
HETATM    8  C   LIG     1      -5.109   0.648   1.466  1.00  0.00     0.075 A 
HETATM    9  C   LIG     1      -5.379  -1.581   0.579  1.00  0.00     0.010 A 
HETATM   10  O   LIG     1      -4.356   1.694   1.930  1.00  0.00    -0.350 OA
HETATM   11  C   LIG     1      -6.495   0.820   1.435  1.00  0.00     0.037 A 
HETATM   12  C   LIG     1      -3.035   1.306   2.354  1.00  0.00     0.190 C 
HETATM   13  C   LIG     1      -7.322  -0.210   0.977  1.00  0.00     0.003 A 
HETATM   14  C   LIG     1      -6.763  -1.419   0.568  1.00  0.00     0.001 A 
ENDBRANCH   3   5
BRANCH   1  15
HETATM   15  C   LIG     1       0.179  -0.045  -0.581  1.00  0.00     0.113 A 
HETATM   16  N   LIG     1      -0.940   0.336  -1.216  1.00  0.00    -0.352 N 
HETATM   17  C   LIG     1      -0.970   0.326  -2.563  1.00  0.00     0.089 A 
ATOM     18  HN  LIG     1      -1.759   0.630  -0.684  1.00  0.00     0.166 HD
HETATM   19  C   LIG     1       0.096  -0.059  -3.341  1.00  0.00     0.018 A 
HETATM   20  C   LIG     1       1.268  -0.419  -2.693  1.00  0.00     0.012 A 
HETATM   21  C   LIG     1       1.340  -0.401  -1.288  1.00  0.00    -0.018 A 
HETATM   22  C   LIG     1       2.636  -0.809  -0.648  1.00  0.00     0.052 C 
ENDBRANCH   1  15
TORSDOF 2
