REMARK  3 active torsions:
REMARK  status: ('A' for Active; 'I' for Inactive)
REMARK       I    between atoms: N_1  and  C_2 
REMARK    1  A    between atoms: C_2  and  C_7 
REMARK       I    between atoms: C_3  and  N_5 
REMARK    2  A    between atoms: C_3  and  C_6 
REMARK    3  A    between atoms: N_5  and  C_7 
ROOT
HETATM    1  N   LIG     1      -0.590   1.005  -2.359  1.00  0.00    -0.316 N 
HETATM    2  C   LIG     1      -1.181   1.166  -1.108  1.00  0.00     0.242 C 
HETATM    3  C   LIG     1      -0.571  -0.187  -3.113  1.00  0.00     0.043 A 
HETATM    4  C   LIG     1       0.117   2.043  -3.133  1.00  0.00     0.137 A 
HETATM    5  C   LIG     1       0.187  -0.015  -4.274  1.00  0.00    -0.030 A 
HETATM    6  O   LIG     1      -1.755   0.265  -0.494  1.00  0.00    -0.271 OA
HETATM    7  C   LIG     1       0.743   1.368  -4.362  1.00  0.00     0.061 A 
HETATM    8  C   LIG     1      -1.166  -1.406  -2.839  1.00  0.00     0.030 A 
HETATM    9  C   LIG     1       0.390  -1.058  -5.168  1.00  0.00     0.009 A 
HETATM   10  C   LIG     1      -0.979  -2.462  -3.738  1.00  0.00     0.002 A 
HETATM   11  C   LIG     1      -0.201  -2.291  -4.891  1.00  0.00     0.001 A 
ENDROOT
BRANCH   2  12
HETATM   12  C   LIG     1      -1.019   2.569  -0.484  1.00  0.00     0.228 C 
BRANCH  12  13
HETATM   13  N   LIG     1      -1.622   2.710   0.845  1.00  0.00    -0.342 N 
HETATM   14  C   LIG     1      -2.939   3.200   0.933  1.00  0.00     0.277 C 
HETATM   15  O   LIG     1      -3.544   3.510  -0.091  1.00  0.00    -0.265 OA
HETATM   16  C   LIG     1      -0.888   2.136   1.964  1.00  0.00     0.153 C 
BRANCH  14  17
HETATM   17  C   LIG     1      -3.565   3.369   2.248  1.00  0.00     0.142 A 
HETATM   18  O   LIG     1      -2.890   3.104   3.413  1.00  0.00    -0.317 OA
HETATM   19  C   LIG     1      -3.731   3.334   4.449  1.00  0.00     0.143 A 
HETATM   20  C   LIG     1      -4.944   3.782   3.989  1.00  0.00     0.027 A 
HETATM   21  C   LIG     1      -4.836   3.815   2.576  1.00  0.00     0.045 A 
ENDBRANCH  14  17
ENDBRANCH  12  13
ENDBRANCH   2  12
TORSDOF 3
