REMARK  3 active torsions:
REMARK  status: ('A' for Active; 'I' for Inactive)
REMARK    1  A    between atoms: C_1  and  C_5 
REMARK       I    between atoms: C_5  and  N_6 
REMARK    2  A    between atoms: N_8  and  C_11 
REMARK    3  A    between atoms: C_11  and  C_13 
ROOT
HETATM    1  C   LIG     1       0.096  -0.550  -0.635  1.00  0.00     0.131 A 
HETATM    2  N   LIG     1       0.358   0.528  -1.449  1.00  0.00    -0.278 N 
ATOM      3  HN  LIG     1       0.822   0.488  -2.356  1.00  0.00     0.184 HD
HETATM    4  N   LIG     1      -0.092   1.627  -0.861  1.00  0.00    -0.020 NA
HETATM    5  C   LIG     1      -0.498  -0.077   0.523  1.00  0.00     0.144 A 
HETATM    6  N   LIG     1      -0.599   1.269   0.332  1.00  0.00    -0.280 N 
ENDROOT
BRANCH   1   7
HETATM    7  C   LIG     1       0.477  -1.939  -0.901  1.00  0.00     0.272 C 
HETATM    8  N   LIG     1       0.609  -2.401  -2.219  1.00  0.00    -0.346 N 
HETATM    9  C   LIG     1       0.333  -1.643  -3.442  1.00  0.00     0.130 C 
HETATM   10  C   LIG     1       1.117  -3.753  -2.442  1.00  0.00     0.126 C 
HETATM   11  C   LIG     1      -0.631  -2.395  -4.376  1.00  0.00    -0.001 C 
HETATM   12  C   LIG     1      -0.143  -3.829  -4.626  1.00  0.00     0.007 C 
HETATM   13  C   LIG     1      -2.059  -2.368  -3.821  1.00  0.00     0.011 C 
HETATM   14  C   LIG     1       0.175  -4.567  -3.326  1.00  0.00     0.020 C 
HETATM   15  O   LIG     1       0.667  -2.698   0.055  1.00  0.00    -0.266 OA
ENDBRANCH   1   7
BRANCH   6  16
HETATM   16  C   LIG     1      -1.050   2.290   1.263  1.00  0.00     0.184 C 
BRANCH  16  17
HETATM   17  C   LIG     1      -2.472   2.085   1.725  1.00  0.00    -0.039 A 
HETATM   18  C   LIG     1      -3.528   2.040   0.802  1.00  0.00     0.009 A 
HETATM   19  C   LIG     1      -4.844   1.874   1.237  1.00  0.00     0.001 A 
HETATM   20  C   LIG     1      -5.121   1.764   2.597  1.00  0.00     0.000 A 
HETATM   21  C   LIG     1      -4.084   1.823   3.526  1.00  0.00     0.001 A 
HETATM   22  C   LIG     1      -2.766   1.985   3.094  1.00  0.00     0.009 A 
ENDBRANCH  16  17
ENDBRANCH   6  16
TORSDOF 3
