REMARK  2 active torsions:
REMARK  status: ('A' for Active; 'I' for Inactive)
REMARK    1  A    between atoms: N_1  and  C_5 
REMARK    2  A    between atoms: C_4  and  C_6 
REMARK       I    between atoms: C_6  and  N_9 
ROOT
HETATM    1  N   LIG     1      -0.645   1.374  -0.287  1.00  0.00    -0.223 N 
HETATM    2  N   LIG     1      -1.293   0.156  -0.176  1.00  0.00    -0.290 N 
ATOM      3  HN  LIG     1      -2.307   0.116  -0.069  1.00  0.00     0.187 HD
HETATM    4  C   LIG     1      -0.589  -0.934  -0.210  1.00  0.00     0.094 C 
HETATM    5  C   LIG     1       0.747   1.512  -0.336  1.00  0.00     0.243 C 
HETATM    6  C   LIG     1       0.887  -0.959  -0.462  1.00  0.00     0.073 C 
HETATM    7  C   LIG     1       1.503   0.288   0.113  1.00  0.00     0.111 C 
HETATM    8  O   LIG     1       1.366   2.522  -0.663  1.00  0.00    -0.271 OA
ENDROOT
BRANCH   1   9
HETATM    9  C   LIG     1      -1.532   2.482  -0.455  1.00  0.00     0.066 A 
HETATM   10  C   LIG     1      -1.374   3.708   0.225  1.00  0.00    -0.033 A 
HETATM   11  C   LIG     1      -2.265   4.762  -0.053  1.00  0.00     0.009 A 
HETATM   12  C   LIG     1      -0.331   3.946   1.283  1.00  0.00     0.050 C 
HETATM   13  C   LIG     1      -3.318   4.601  -0.954  1.00  0.00     0.007 A 
HETATM   14  C   LIG     1      -3.518   3.375  -1.589  1.00  0.00    -0.060 A 
HETATM   15  C   LIG     1      -2.627   2.325  -1.328  1.00  0.00     0.039 A 
HETATM   16  C   LIG     1      -4.620   3.215  -2.593  1.00  0.00     0.048 C 
ENDBRANCH   1   9
BRANCH   4  17
HETATM   17  C   LIG     1      -1.272  -2.288  -0.113  1.00  0.00     0.266 C 
HETATM   18  N   LIG     1      -2.240  -2.495   0.863  1.00  0.00    -0.356 N 
HETATM   19  C   LIG     1      -2.870  -3.799   0.968  1.00  0.00     0.152 C 
HETATM   20  C   LIG     1      -2.679  -1.474   1.802  1.00  0.00     0.152 C 
HETATM   21  O   LIG     1      -0.879  -3.152  -0.898  1.00  0.00    -0.266 OA
ENDBRANCH   4  17
TORSDOF 2
