REMARK  2 active torsions:
REMARK  status: ('A' for Active; 'I' for Inactive)
REMARK       I    between atoms: N_1  and  C_2 
REMARK       I    between atoms: C_2  and  N_4 
REMARK    1  A    between atoms: N_4  and  C_14 
REMARK    2  A    between atoms: C_13  and  C_14 
ROOT
HETATM    1  N   LIG     1      -1.457  -0.365   1.798  1.00  0.00    -0.330 N 
HETATM    2  C   LIG     1      -2.092   0.631   1.073  1.00  0.00     0.318 C 
HETATM    3  C   LIG     1      -0.183  -0.039   2.435  1.00  0.00     0.166 C 
HETATM    4  N   LIG     1      -3.256   0.243   0.457  1.00  0.00    -0.339 N 
ATOM      5  HN  LIG     1      -3.583  -0.720   0.540  1.00  0.00     0.164 HD
HETATM    6  C   LIG     1       0.987  -0.713   1.746  1.00  0.00    -0.034 A 
HETATM    7  C   LIG     1      -1.642  -1.799   1.582  1.00  0.00     0.132 C 
HETATM    8  O   LIG     1      -1.661   1.773   0.977  1.00  0.00    -0.247 OA
HETATM    9  C   LIG     1       0.793  -1.831   0.907  1.00  0.00    -0.049 A 
HETATM   10  C   LIG     1      -0.602  -2.318   0.585  1.00  0.00     0.059 C 
HETATM   11  C   LIG     1       2.291  -0.254   1.988  1.00  0.00     0.009 A 
HETATM   12  C   LIG     1       1.900  -2.447   0.306  1.00  0.00     0.008 A 
HETATM   13  C   LIG     1       3.384  -0.879   1.388  1.00  0.00     0.001 A 
HETATM   14  C   LIG     1       3.189  -1.973   0.549  1.00  0.00     0.001 A 
ENDROOT
BRANCH   4  15
HETATM   15  C   LIG     1      -4.019   1.206  -0.311  1.00  0.00     0.164 C 
BRANCH  15  16
HETATM   16  C   LIG     1      -4.837   0.544  -1.382  1.00  0.00    -0.025 A 
HETATM   17  C   LIG     1      -6.217   0.709  -1.435  1.00  0.00     0.096 A 
HETATM   18  N   LIG     1      -7.014   0.176  -2.389  1.00  0.00    -0.375 N 
HETATM   19  C   LIG     1      -6.407  -0.551  -3.350  1.00  0.00     0.087 A 
ATOM     20  HN  LIG     1      -8.024   0.317  -2.382  1.00  0.00     0.164 HD
HETATM   21  C   LIG     1      -5.041  -0.772  -3.399  1.00  0.00     0.018 A 
HETATM   22  C   LIG     1      -4.246  -0.213  -2.400  1.00  0.00     0.011 A 
ENDBRANCH  15  16
ENDBRANCH   4  15
TORSDOF 2
