REMARK  3 active torsions:
REMARK  status: ('A' for Active; 'I' for Inactive)
REMARK    1  A    between atoms: N_1  and  C_6 
REMARK    2  A    between atoms: C_3  and  C_4 
REMARK       I    between atoms: C_4  and  N_10 
REMARK    3  A    between atoms: N_10  and  C_14 
ROOT
HETATM    1  C   LIG     1       0.649   1.052   0.618  1.00  0.00     0.228 C 
HETATM    2  N   LIG     1       1.323   2.261   0.535  1.00  0.00    -0.327 N 
ATOM      3  HN  LIG     1       1.202   2.790  -0.329  1.00  0.00     0.169 HD
HETATM    4  O   LIG     1       0.681   0.277   1.568  1.00  0.00    -0.273 OA
ENDROOT
BRANCH   1   5
HETATM    5  C   LIG     1      -0.155   0.723  -0.632  1.00  0.00     0.105 C 
HETATM    6  C   LIG     1      -1.343  -0.169  -0.297  1.00  0.00     0.141 C 
HETATM    7  N   LIG     1      -1.528  -0.985  -1.467  1.00  0.00    -0.347 N 
HETATM    8  C   LIG     1      -0.354  -1.078  -2.207  1.00  0.00     0.221 C 
HETATM    9  C   LIG     1       0.650  -0.102  -1.637  1.00  0.00     0.118 C 
HETATM   10  O   LIG     1      -0.132  -1.833  -3.146  1.00  0.00    -0.273 OA
BRANCH   7  11
HETATM   11  C   LIG     1      -2.581  -1.953  -1.536  1.00  0.00     0.087 A 
HETATM   12  C   LIG     1      -3.722  -1.786  -2.505  1.00  0.00     0.027 A 
HETATM   13  C   LIG     1      -3.971  -1.655  -1.034  1.00  0.00     0.027 A 
ENDBRANCH   7  11
ENDBRANCH   1   5
BRANCH   2  14
HETATM   14  C   LIG     1       2.161   2.842   1.519  1.00  0.00     0.034 A 
HETATM   15  C   LIG     1       2.516   2.213   2.716  1.00  0.00     0.029 A 
HETATM   16  C   LIG     1       3.392   2.830   3.617  1.00  0.00     0.002 A 
HETATM   17  C   LIG     1       3.909   4.092   3.342  1.00  0.00     0.000 A 
HETATM   18  C   LIG     1       3.541   4.744   2.169  1.00  0.00     0.002 A 
HETATM   19  C   LIG     1       2.674   4.121   1.262  1.00  0.00     0.029 A 
ENDBRANCH   2  14
TORSDOF 3
