REMARK  2 active torsions:
REMARK  status: ('A' for Active; 'I' for Inactive)
REMARK    1  A    between atoms: C_1  and  N_7 
REMARK       I    between atoms: N_7  and  C_9 
REMARK    2  A    between atoms: C_9  and  C_10 
ROOT
HETATM    1  N   LIG     1      -0.624  -3.085   0.295  1.00  0.00    -0.320 N 
ATOM      2  HN  LIG     1      -1.443  -2.480   0.350  1.00  0.00     0.169 HD
HETATM    3  C   LIG     1      -0.840  -4.427   0.028  1.00  0.00     0.256 C 
HETATM    4  O   LIG     1       0.002  -5.309  -0.033  1.00  0.00    -0.267 OA
ENDROOT
BRANCH   1   5
HETATM    5  C   LIG     1       0.613  -2.501   0.493  1.00  0.00     0.083 A 
HETATM    6  C   LIG     1       1.829  -2.792  -0.091  1.00  0.00     0.053 A 
HETATM    7  N   LIG     1       2.730  -1.962   0.528  1.00  0.00    -0.299 N 
HETATM    8  C   LIG     1       2.206  -3.727  -1.182  1.00  0.00     0.072 C 
HETATM    9  N   LIG     1       2.161  -1.060   1.350  1.00  0.00    -0.301 N 
HETATM   10  C   LIG     1       4.166  -1.939   0.370  1.00  0.00     0.177 C 
HETATM   11  C   LIG     1       0.867  -1.389   1.341  1.00  0.00     0.051 A 
ATOM     12  HN  LIG     1       2.613  -0.302   1.861  1.00  0.00     0.187 HD
HETATM   13  C   LIG     1      -0.098  -0.653   2.194  1.00  0.00     0.072 C 
ENDBRANCH   1   5
BRANCH   3  14
HETATM   14  C   LIG     1      -2.285  -4.789  -0.083  1.00  0.00     0.032 A 
HETATM   15  C   LIG     1      -3.216  -3.862  -0.573  1.00  0.00     0.024 A 
HETATM   16  C   LIG     1      -4.552  -4.217  -0.587  1.00  0.00    -0.051 A 
HETATM   17  C   LIG     1      -4.970  -5.480  -0.158  1.00  0.00    -0.052 A 
HETATM   18  C   LIG     1      -5.711  -3.399  -1.061  1.00  0.00     0.039 C 
HETATM   19  C   LIG     1      -4.059  -6.425   0.285  1.00  0.00     0.009 A 
HETATM   20  C   LIG     1      -6.456  -5.615  -0.293  1.00  0.00     0.039 C 
HETATM   21  C   LIG     1      -2.706  -6.071   0.329  1.00  0.00     0.017 A 
HETATM   22  C   LIG     1      -6.875  -4.140  -0.390  1.00  0.00     0.009 C 
ENDBRANCH   3  14
TORSDOF 2
