REMARK  3 active torsions:
REMARK  status: ('A' for Active; 'I' for Inactive)
REMARK       I    between atoms: C_1  and  N_2 
REMARK    1  A    between atoms: C_1  and  C_5 
REMARK    2  A    between atoms: N_2  and  C_4 
REMARK    3  A    between atoms: C_4  and  C_9 
ROOT
HETATM    1  C   LIG     1      -1.470  -0.861  -0.948  1.00  0.00     0.060 C 
HETATM    2  C   LIG     1      -2.507  -1.187   0.198  1.00  0.00     0.036 C 
HETATM    3  C   LIG     1      -1.722  -2.362  -1.382  1.00  0.00     0.036 C 
HETATM    4  C   LIG     1      -3.113  -2.250  -0.734  1.00  0.00     0.006 C 
ENDROOT
BRANCH   1   5
HETATM    5  N   LIG     1      -0.079  -0.695  -0.455  1.00  0.00    -0.342 N 
HETATM    6  C   LIG     1       0.277   0.073   0.637  1.00  0.00     0.276 C 
HETATM    7  O   LIG     1      -0.536   0.700   1.308  1.00  0.00    -0.265 OA
ATOM      8  HN  LIG     1       0.664  -1.181  -0.957  1.00  0.00     0.164 HD
BRANCH   6   9
HETATM    9  C   LIG     1       1.698   0.051   0.928  1.00  0.00     0.142 A 
HETATM   10  O   LIG     1       2.545  -0.671   0.123  1.00  0.00    -0.317 OA
HETATM   11  C   LIG     1       3.798  -0.519   0.625  1.00  0.00     0.143 A 
HETATM   12  C   LIG     1       3.779   0.284   1.740  1.00  0.00     0.027 A 
HETATM   13  C   LIG     1       2.427   0.651   1.937  1.00  0.00     0.045 A 
ENDBRANCH   6   9
ENDBRANCH   1   5
BRANCH   1  14
HETATM   14  C   LIG     1      -1.887   0.271  -2.023  1.00  0.00    -0.030 A 
HETATM   15  C   LIG     1      -1.687   0.104  -3.410  1.00  0.00     0.010 A 
HETATM   16  C   LIG     1      -2.106   1.055  -4.345  1.00  0.00     0.001 A 
HETATM   17  C   LIG     1      -2.727   2.223  -3.918  1.00  0.00     0.000 A 
HETATM   18  C   LIG     1      -2.908   2.444  -2.558  1.00  0.00     0.001 A 
HETATM   19  C   LIG     1      -2.486   1.485  -1.630  1.00  0.00     0.010 A 
ENDBRANCH   1  14
TORSDOF 3
