REMARK  3 active torsions:
REMARK  status: ('A' for Active; 'I' for Inactive)
REMARK    1  A    between atoms: C_1  and  C_2 
REMARK       I    between atoms: C_1  and  N_4 
REMARK    2  A    between atoms: N_4  and  C_9 
REMARK    3  A    between atoms: C_9  and  C_10 
ROOT
HETATM    1  C   LIG     1       0.272  -0.818   1.344  1.00  0.00     0.043 A 
HETATM    2  C   LIG     1       0.886  -1.738   2.249  1.00  0.00    -0.010 A 
HETATM    3  C   LIG     1       0.069  -2.324   3.254  1.00  0.00    -0.025 A 
HETATM    4  C   LIG     1      -1.109  -0.555   1.429  1.00  0.00     0.018 A 
HETATM    5  C   LIG     1       2.249  -2.135   2.225  1.00  0.00     0.013 A 
HETATM    6  C   LIG     1      -1.893  -1.176   2.392  1.00  0.00     0.002 A 
HETATM    7  C   LIG     1      -1.303  -2.038   3.307  1.00  0.00     0.012 A 
HETATM    8  C   LIG     1       0.624  -3.202   4.201  1.00  0.00     0.012 A 
HETATM    9  C   LIG     1       2.784  -3.019   3.169  1.00  0.00     0.001 A 
HETATM   10  C   LIG     1       1.973  -3.542   4.166  1.00  0.00     0.001 A 
ENDROOT
BRANCH   1  11
HETATM   11  C   LIG     1       1.052  -0.053   0.316  1.00  0.00     0.252 C 
HETATM   12  N   LIG     1       0.368   0.274  -0.838  1.00  0.00    -0.354 N 
ATOM     13  HN  LIG     1      -0.627   0.055  -0.894  1.00  0.00     0.162 HD
HETATM   14  O   LIG     1       2.229   0.253   0.493  1.00  0.00    -0.268 OA
BRANCH  12  15
HETATM   15  C   LIG     1       1.004   0.916  -1.975  1.00  0.00     0.155 C 
BRANCH  15  16
HETATM   16  C   LIG     1       1.470  -0.085  -3.044  1.00  0.00     0.139 C 
HETATM   17  O   LIG     1       0.333  -0.862  -3.485  1.00  0.00    -0.384 OA
HETATM   18  C   LIG     1       0.607  -2.250  -3.249  1.00  0.00     0.168 C 
HETATM   19  C   LIG     1       1.729  -2.309  -2.238  1.00  0.00     0.029 C 
HETATM   20  C   LIG     1       2.528  -1.078  -2.583  1.00  0.00     0.035 C 
ENDBRANCH  15  16
ENDBRANCH  12  15
ENDBRANCH   1  11
TORSDOF 3
