REMARK  3 active torsions:
REMARK  status: ('A' for Active; 'I' for Inactive)
REMARK    1  A    between atoms: N_1  and  C_7 
REMARK    2  A    between atoms: C_7  and  C_10 
REMARK    3  A    between atoms: N_9  and  C_15 
ROOT
HETATM    1  N   LIG     1       1.068  -2.454   4.125  1.00  0.00    -0.263 N 
HETATM    2  C   LIG     1       1.957  -1.711   4.896  1.00  0.00     0.330 C 
HETATM    3  C   LIG     1      -0.305  -2.434   4.357  1.00  0.00     0.264 C 
HETATM    4  C   LIG     1      -0.716  -2.105   5.728  1.00  0.00     0.059 A 
HETATM    5  N   LIG     1       1.488  -1.242   6.098  1.00  0.00    -0.307 N 
ATOM      6  HN  LIG     1       2.123  -0.701   6.685  1.00  0.00     0.170 HD
HETATM    7  C   LIG     1       0.192  -1.464   6.560  1.00  0.00     0.052 A 
HETATM    8  O   LIG     1       3.116  -1.466   4.581  1.00  0.00    -0.246 OA
HETATM    9  O   LIG     1      -1.164  -2.599   3.494  1.00  0.00    -0.267 OA
HETATM   10  C   LIG     1      -2.018  -2.367   6.170  1.00  0.00     0.019 A 
HETATM   11  C   LIG     1      -0.201  -1.027   7.826  1.00  0.00     0.030 A 
HETATM   12  C   LIG     1      -2.413  -1.947   7.440  1.00  0.00     0.001 A 
HETATM   13  C   LIG     1      -1.512  -1.261   8.258  1.00  0.00     0.002 A 
ENDROOT
BRANCH   1  14
HETATM   14  C   LIG     1       1.545  -3.071   2.884  1.00  0.00     0.173 C 
BRANCH  14  15
HETATM   15  C   LIG     1       2.121  -4.525   3.012  1.00  0.00     0.241 C 
HETATM   16  N   LIG     1       1.151  -5.528   3.545  1.00  0.00     0.094 N 
HETATM   17  C   LIG     1       1.573  -5.865   4.923  1.00  0.00     0.273 C 
HETATM   18  C   LIG     1       2.701  -4.924   5.290  1.00  0.00     0.032 C 
HETATM   19  C   LIG     1       3.323  -4.611   3.948  1.00  0.00     0.039 C 
BRANCH  16  20
HETATM   20  C   LIG     1       1.124  -6.749   2.708  1.00  0.00     0.268 C 
HETATM   21  C   LIG     1       0.107  -7.797   3.170  1.00  0.00     0.037 C 
ENDBRANCH  16  20
ENDBRANCH  14  15
ENDBRANCH   1  14
TORSDOF 3
