REMARK  2 active torsions:
REMARK  status: ('A' for Active; 'I' for Inactive)
REMARK    1  A    between atoms: C_1  and  C_2 
REMARK       I    between atoms: C_2  and  N_5 
REMARK    2  A    between atoms: N_5  and  C_9 
ROOT
HETATM    1  N   LIG     1      -0.454   4.639   2.695  1.00  0.00    -0.342 N 
ATOM      2  HN  LIG     1      -0.973   3.874   3.127  1.00  0.00     0.167 HD
HETATM    3  C   LIG     1       0.394   4.414   1.675  1.00  0.00     0.108 A 
HETATM    4  C   LIG     1      -0.596   5.905   3.127  1.00  0.00     0.043 A 
HETATM    5  C   LIG     1       0.199   6.967   2.643  1.00  0.00    -0.009 A 
HETATM    6  C   LIG     1       1.128   6.683   1.639  1.00  0.00     0.017 A 
HETATM    7  C   LIG     1       1.207   5.395   1.124  1.00  0.00     0.049 A 
HETATM    8  C   LIG     1      -1.573   6.197   4.068  1.00  0.00     0.030 A 
HETATM    9  C   LIG     1       0.036   8.266   3.152  1.00  0.00     0.013 A 
HETATM   10  C   LIG     1      -1.761   7.495   4.553  1.00  0.00     0.002 A 
HETATM   11  C   LIG     1      -0.945   8.528   4.106  1.00  0.00     0.001 A 
ENDROOT
BRANCH   3  12
HETATM   12  N   LIG     1       0.441   3.094   1.227  1.00  0.00    -0.313 N 
HETATM   13  C   LIG     1       0.468   2.761  -0.103  1.00  0.00     0.227 C 
HETATM   14  O   LIG     1       0.415   3.559  -1.037  1.00  0.00    -0.273 OA
ATOM     15  HN  LIG     1       0.456   2.344   1.918  1.00  0.00     0.170 HD
BRANCH  13  16
HETATM   16  C   LIG     1       0.541   1.292  -0.359  1.00  0.00     0.082 A 
HETATM   17  C   LIG     1       0.089   0.695  -1.674  1.00  0.00     0.019 A 
HETATM   18  C   LIG     1       1.556   0.733  -1.341  1.00  0.00    -0.005 A 
HETATM   19  C   LIG     1       2.473   1.609  -2.131  1.00  0.00     0.011 C 
ENDBRANCH  13  16
ENDBRANCH   3  12
TORSDOF 2
