REMARK  2 active torsions:
REMARK  status: ('A' for Active; 'I' for Inactive)
REMARK       I    between atoms: N_1  and  C_3 
REMARK    1  A    between atoms: C_2  and  C_7 
REMARK       I    between atoms: C_2  and  N_4 
REMARK    2  A    between atoms: N_4  and  C_8 
ROOT
HETATM    1  C   LIG     1      -1.899  -1.946   0.281  1.00  0.00     0.226 C 
HETATM    2  N   LIG     1      -1.562  -3.280   0.419  1.00  0.00    -0.327 N 
ATOM      3  HN  LIG     1      -0.613  -3.481   0.734  1.00  0.00     0.169 HD
HETATM    4  O   LIG     1      -3.005  -1.507  -0.050  1.00  0.00    -0.273 OA
ENDROOT
BRANCH   1   5
HETATM    5  C   LIG     1      -0.768  -1.003   0.673  1.00  0.00     0.081 C 
HETATM    6  C   LIG     1      -0.839  -0.715   2.180  1.00  0.00     0.034 C 
HETATM    7  C   LIG     1       0.194   0.329   2.597  1.00  0.00     0.126 C 
HETATM    8  N   LIG     1       0.095   1.529   1.770  1.00  0.00    -0.352 N 
HETATM    9  C   LIG     1      -0.005   2.770   2.382  1.00  0.00     0.215 C 
HETATM   10  C   LIG     1       0.197   1.306   0.330  1.00  0.00     0.126 C 
HETATM   11  O   LIG     1      -0.069   2.908   3.604  1.00  0.00    -0.274 OA
HETATM   12  C   LIG     1      -0.023   3.983   1.486  1.00  0.00     0.117 C 
HETATM   13  C   LIG     1      -0.853   0.303  -0.131  1.00  0.00     0.034 C 
ENDBRANCH   1   5
BRANCH   2  14
HETATM   14  C   LIG     1      -2.396  -4.394   0.169  1.00  0.00     0.035 A 
HETATM   15  C   LIG     1      -3.611  -4.299  -0.517  1.00  0.00     0.037 A 
HETATM   16  C   LIG     1      -4.355  -5.452  -0.727  1.00  0.00    -0.050 A 
HETATM   17  C   LIG     1      -3.921  -6.691  -0.262  1.00  0.00    -0.052 A 
HETATM   18  C   LIG     1      -5.624  -5.572  -1.507  1.00  0.00     0.039 C 
HETATM   19  C   LIG     1      -2.724  -6.806   0.422  1.00  0.00     0.010 A 
HETATM   20  C   LIG     1      -4.857  -7.781  -0.673  1.00  0.00     0.039 C 
HETATM   21  C   LIG     1      -1.958  -5.651   0.626  1.00  0.00     0.030 A 
HETATM   22  C   LIG     1      -6.084  -6.995  -1.161  1.00  0.00     0.009 C 
ENDBRANCH   2  14
TORSDOF 2
