REMARK  3 active torsions:
REMARK  status: ('A' for Active; 'I' for Inactive)
REMARK    1  A    between atoms: C_1  and  N_7 
REMARK    2  A    between atoms: N_2  and  C_10 
REMARK       I    between atoms: N_7  and  C_9 
REMARK    3  A    between atoms: C_9  and  C_12 
ROOT
HETATM    1  C   LIG     1      -0.816   1.116  -0.760  1.00  0.00     0.083 C 
HETATM    2  N   LIG     1       0.962   2.317  -0.181  1.00  0.00    -0.259 N 
HETATM    3  N   LIG     1       0.831   1.399   0.808  1.00  0.00    -0.296 N 
ATOM      4  HN  LIG     1       1.447   1.254   1.608  1.00  0.00     0.187 HD
HETATM    5  C   LIG     1       0.100   2.039  -1.239  1.00  0.00     0.059 C 
HETATM    6  C   LIG     1      -0.282   0.727   0.503  1.00  0.00     0.051 C 
HETATM    7  C   LIG     1       0.331   2.590  -2.603  1.00  0.00     0.073 C 
HETATM    8  C   LIG     1      -0.770  -0.315   1.443  1.00  0.00     0.072 C 
ENDROOT
BRANCH   1   9
HETATM    9  N   LIG     1      -1.953   0.573  -1.358  1.00  0.00    -0.323 N 
HETATM   10  C   LIG     1      -2.592   1.017  -2.504  1.00  0.00     0.226 C 
HETATM   11  O   LIG     1      -2.292   2.022  -3.151  1.00  0.00    -0.273 OA
ATOM     12  HN  LIG     1      -2.360  -0.243  -0.900  1.00  0.00     0.169 HD
BRANCH  10  13
HETATM   13  C   LIG     1      -3.784   0.144  -2.927  1.00  0.00     0.078 C 
HETATM   14  C   LIG     1      -4.284   0.491  -4.346  1.00  0.00     0.014 C 
HETATM   15  C   LIG     1      -5.092   1.791  -4.416  1.00  0.00     0.001 C 
HETATM   16  C   LIG     1      -6.205   1.829  -3.376  1.00  0.00     0.000 C 
HETATM   17  C   LIG     1      -5.665   1.563  -1.976  1.00  0.00     0.001 C 
HETATM   18  C   LIG     1      -4.931   0.224  -1.911  1.00  0.00     0.014 C 
ENDBRANCH  10  13
ENDBRANCH   1   9
BRANCH   2  19
HETATM   19  C   LIG     1       1.926   3.361  -0.056  1.00  0.00     0.056 A 
HETATM   20  C   LIG     1       1.744   4.595  -0.695  1.00  0.00     0.031 A 
HETATM   21  C   LIG     1       2.711   5.597  -0.583  1.00  0.00     0.002 A 
HETATM   22  C   LIG     1       3.862   5.377   0.170  1.00  0.00     0.000 A 
HETATM   23  C   LIG     1       4.035   4.164   0.837  1.00  0.00     0.002 A 
HETATM   24  C   LIG     1       3.063   3.163   0.740  1.00  0.00     0.031 A 
ENDBRANCH   2  19
TORSDOF 3
