REMARK  3 active torsions:
REMARK  status: ('A' for Active; 'I' for Inactive)
REMARK    1  A    between atoms: C_2  and  C_14 
REMARK       I    between atoms: C_8  and  N_10 
REMARK    2  A    between atoms: C_8  and  C_9 
REMARK    3  A    between atoms: N_10  and  C_14 
ROOT
HETATM    1  C   LIG     1      -1.417   2.108  -0.269  1.00  0.00     0.201 C 
ENDROOT
BRANCH   1   2
HETATM    2  C   LIG     1      -1.382   0.847  -1.056  1.00  0.00     0.117 A 
HETATM    3  N   LIG     1      -0.307   0.371  -1.771  1.00  0.00    -0.323 N 
HETATM    4  C   LIG     1      -0.727  -0.798  -2.363  1.00  0.00     0.099 A 
HETATM    5  C   LIG     1       1.001   0.986  -1.881  1.00  0.00     0.132 C 
HETATM    6  N   LIG     1      -1.977  -1.019  -2.010  1.00  0.00    -0.287 N 
HETATM    7  C   LIG     1       0.089  -1.707  -3.223  1.00  0.00     0.078 C 
HETATM    8  N   LIG     1      -2.384   0.001  -1.192  1.00  0.00    -0.286 N 
ATOM      9  HN  LIG     1      -2.546  -1.815  -2.298  1.00  0.00     0.188 HD
ATOM     10  HN  LIG     1      -3.304   0.091  -0.762  1.00  0.00     0.188 HD
HETATM   11  C   LIG     1       1.171  -1.011  -4.041  1.00  0.00     0.007 C 
HETATM   12  C   LIG     1       2.417  -0.647  -3.230  1.00  0.00     0.002 C 
HETATM   13  C   LIG     1       2.149  -0.017  -1.864  1.00  0.00     0.020 C 
ENDBRANCH   1   2
BRANCH   1  14
HETATM   14  N   LIG     1      -0.980   1.834   1.082  1.00  0.00    -0.350 N 
HETATM   15  C   LIG     1       0.131   2.427   1.636  1.00  0.00     0.252 C 
HETATM   16  O   LIG     1       0.856   3.207   1.021  1.00  0.00    -0.268 OA
ATOM     17  HN  LIG     1      -1.517   1.175   1.646  1.00  0.00     0.163 HD
BRANCH  15  18
HETATM   18  C   LIG     1       0.461   2.043   3.035  1.00  0.00     0.032 A 
HETATM   19  C   LIG     1      -0.535   1.653   3.938  1.00  0.00     0.024 A 
HETATM   20  C   LIG     1      -0.210   1.266   5.248  1.00  0.00    -0.055 A 
HETATM   21  C   LIG     1       1.136   1.291   5.664  1.00  0.00    -0.056 A 
HETATM   22  C   LIG     1      -1.315   0.826   6.169  1.00  0.00     0.049 C 
HETATM   23  C   LIG     1       2.126   1.712   4.761  1.00  0.00     0.008 A 
HETATM   24  C   LIG     1       1.528   0.902   7.064  1.00  0.00     0.049 C 
HETATM   25  C   LIG     1       1.793   2.085   3.457  1.00  0.00     0.017 A 
ENDBRANCH  15  18
ENDBRANCH   1  14
TORSDOF 3
