REMARK  3 active torsions:
REMARK  status: ('A' for Active; 'I' for Inactive)
REMARK    1  A    between atoms: C_1  and  C_2 
REMARK       I    between atoms: C_1  and  N_3 
REMARK    2  A    between atoms: N_3  and  C_15 
REMARK       I    between atoms: C_7  and  N_8 
REMARK    3  A    between atoms: N_8  and  C_16 
ROOT
HETATM    1  C   LIG     1       1.146   0.228  -0.379  1.00  0.00     0.256 C 
HETATM    2  N   LIG     1       0.264  -0.166   0.612  1.00  0.00    -0.323 N 
ATOM      3  HN  LIG     1      -0.712  -0.263   0.332  1.00  0.00     0.169 HD
HETATM    4  O   LIG     1       2.348   0.435  -0.255  1.00  0.00    -0.267 OA
ENDROOT
BRANCH   2   5
HETATM    5  C   LIG     1       0.552  -0.448   1.958  1.00  0.00     0.035 A 
HETATM    6  C   LIG     1       1.825  -0.380   2.511  1.00  0.00     0.032 A 
HETATM    7  C   LIG     1       2.011  -0.592   3.881  1.00  0.00     0.032 A 
HETATM    8  C   LIG     1       0.927  -0.894   4.711  1.00  0.00     0.034 A 
HETATM    9  C   LIG     1      -0.337  -1.025   4.138  1.00  0.00     0.032 A 
HETATM   10  C   LIG     1      -0.525  -0.803   2.773  1.00  0.00     0.032 A 
BRANCH   8  11
HETATM   11  N   LIG     1       1.169  -1.038   6.092  1.00  0.00    -0.328 N 
HETATM   12  C   LIG     1       0.240  -1.376   7.060  1.00  0.00     0.218 C 
HETATM   13  O   LIG     1      -0.953  -1.608   6.891  1.00  0.00    -0.274 OA
HETATM   14  C   LIG     1       0.844  -1.505   8.432  1.00  0.00     0.117 C 
ATOM     15  HN  LIG     1       2.125  -0.877   6.410  1.00  0.00     0.169 HD
ENDBRANCH   8  11
ENDBRANCH   2   5
BRANCH   1  16
HETATM   16  C   LIG     1       0.526   0.423  -1.719  1.00  0.00     0.032 A 
HETATM   17  C   LIG     1      -0.596  -0.321  -2.089  1.00  0.00     0.024 A 
HETATM   18  C   LIG     1      -1.149  -0.107  -3.334  1.00  0.00    -0.051 A 
HETATM   19  C   LIG     1      -0.586   0.806  -4.231  1.00  0.00    -0.052 A 
HETATM   20  C   LIG     1      -2.320  -0.813  -3.933  1.00  0.00     0.039 C 
HETATM   21  C   LIG     1       0.546   1.531  -3.897  1.00  0.00     0.009 A 
HETATM   22  C   LIG     1      -1.327   0.783  -5.530  1.00  0.00     0.039 C 
HETATM   23  C   LIG     1       1.106   1.337  -2.627  1.00  0.00     0.017 A 
HETATM   24  C   LIG     1      -2.644   0.103  -5.117  1.00  0.00     0.009 C 
ENDBRANCH   1  16
TORSDOF 3
