REMARK  2 active torsions:
REMARK  status: ('A' for Active; 'I' for Inactive)
REMARK    1  A    between atoms: C_1  and  C_2 
REMARK       I    between atoms: C_1  and  N_3 
REMARK    2  A    between atoms: N_3  and  C_5 
ROOT
HETATM    1  C   LIG     1       0.451  -0.628  -0.089  1.00  0.00     0.253 C 
HETATM    2  N   LIG     1       0.017  -1.367   0.984  1.00  0.00    -0.348 N 
ATOM      3  HN  LIG     1      -0.923  -1.763   0.961  1.00  0.00     0.163 HD
HETATM    4  O   LIG     1       1.568  -0.125  -0.134  1.00  0.00    -0.268 OA
ENDROOT
BRANCH   2   5
HETATM    5  C   LIG     1       0.850  -1.606   2.153  1.00  0.00     0.122 C 
HETATM    6  C   LIG     1      -0.022  -1.874   3.351  1.00  0.00    -0.002 A 
HETATM    7  C   LIG     1      -0.178  -3.171   3.849  1.00  0.00     0.077 A 
HETATM    8  C   LIG     1      -0.703  -0.815   3.974  1.00  0.00     0.012 A 
HETATM    9  O   LIG     1       0.450  -4.269   3.327  1.00  0.00    -0.350 OA
HETATM   10  C   LIG     1      -0.982  -3.403   4.966  1.00  0.00     0.037 A 
HETATM   11  C   LIG     1       1.037  -4.080   2.036  1.00  0.00     0.178 C 
HETATM   12  C   LIG     1       1.808  -2.775   1.932  1.00  0.00     0.057 C 
HETATM   13  C   LIG     1      -1.650  -2.345   5.583  1.00  0.00     0.003 A 
HETATM   14  C   LIG     1      -1.511  -1.051   5.087  1.00  0.00     0.001 A 
ENDBRANCH   2   5
BRANCH   1  15
HETATM   15  C   LIG     1      -0.465  -0.506  -1.261  1.00  0.00     0.053 A 
HETATM   16  C   LIG     1      -1.866  -0.533  -1.211  1.00  0.00     0.049 A 
HETATM   17 CL   LIG     1      -2.775  -0.653   0.255  1.00  0.00    -0.083 Cl
HETATM   18  C   LIG     1      -2.612  -0.427  -2.395  1.00  0.00     0.025 A 
HETATM   19  C   LIG     1      -1.973  -0.286  -3.627  1.00  0.00     0.002 A 
HETATM   20  C   LIG     1      -0.585  -0.242  -3.686  1.00  0.00     0.001 A 
HETATM   21  C   LIG     1       0.163  -0.347  -2.512  1.00  0.00     0.019 A 
ENDBRANCH   1  15
TORSDOF 2
