REMARK  3 active torsions:
REMARK  status: ('A' for Active; 'I' for Inactive)
REMARK    1  A    between atoms: N_1  and  C_2 
REMARK    2  A    between atoms: C_7  and  C_14 
REMARK    3  A    between atoms: O_9  and  C_14 
ROOT
HETATM    1  C   LIG     1       1.158   2.476  -0.596  1.00  0.00     0.031 A 
HETATM    2  N   LIG     1      -0.798   2.856  -3.560  1.00  0.00    -0.191 NA
HETATM    3  C   LIG     1      -0.060   3.069  -2.686  1.00  0.00     0.101 C 
HETATM    4  C   LIG     1       0.846   3.399  -1.623  1.00  0.00     0.066 A 
HETATM    5  C   LIG     1       2.091   2.887   0.375  1.00  0.00     0.025 A 
HETATM    6  C   LIG     1       1.445   4.672  -1.651  1.00  0.00     0.024 A 
HETATM    7  C   LIG     1       2.688   4.151   0.337  1.00  0.00     0.002 A 
HETATM    8  C   LIG     1       2.364   5.046  -0.674  1.00  0.00     0.002 A 
ENDROOT
BRANCH   1   9
HETATM    9  N   LIG     1       0.551   1.195  -0.552  1.00  0.00    -0.282 NA
HETATM   10  C   LIG     1       1.368   0.116   0.039  1.00  0.00     0.102 C 
HETATM   11  C   LIG     1       0.721  -1.251  -0.225  1.00  0.00     0.023 C 
HETATM   12  C   LIG     1      -0.713  -1.256   0.322  1.00  0.00     0.009 C 
HETATM   13  C   LIG     1      -1.533  -0.081  -0.209  1.00  0.00     0.015 C 
HETATM   14  C   LIG     1      -0.819   1.257   0.004  1.00  0.00     0.096 C 
BRANCH  11  15
HETATM   15  C   LIG     1       0.770  -1.642  -1.706  1.00  0.00     0.169 C 
BRANCH  15  16
HETATM   16  O   LIG     1       2.120  -1.762  -2.143  1.00  0.00    -0.400 OA
ATOM     17  HO  LIG     1       2.150  -2.004  -3.061  1.00  0.00     0.209 HD
ENDBRANCH  15  16
ENDBRANCH  11  15
ENDBRANCH   1   9
TORSDOF 3
