REMARK  3 active torsions:
REMARK  status: ('A' for Active; 'I' for Inactive)
REMARK       I    between atoms: C_1  and  N_3 
REMARK    1  A    between atoms: C_1  and  C_4 
REMARK    2  A    between atoms: N_2  and  C_5 
REMARK    3  A    between atoms: N_3  and  C_17 
ROOT
HETATM    1  C   LIG     1       1.465  -1.157  -0.313  1.00  0.00     0.047 A 
HETATM    2  C   LIG     1       3.569  -2.509  -1.503  1.00  0.00     0.126 A 
HETATM    3  N   LIG     1       3.476  -1.163  -1.685  1.00  0.00    -0.350 N 
ATOM      4  HN  LIG     1       4.188  -0.640  -2.195  1.00  0.00     0.166 HD
HETATM    5  C   LIG     1       2.382  -0.550  -1.150  1.00  0.00     0.106 A 
HETATM    6  C   LIG     1       1.610  -2.536  -0.116  1.00  0.00     0.022 A 
HETATM    7  C   LIG     1       2.653  -3.228  -0.744  1.00  0.00     0.051 A 
ENDROOT
BRANCH   1   8
HETATM    8  C   LIG     1       0.283  -0.476   0.302  1.00  0.00     0.255 C 
HETATM    9  N   LIG     1       0.292   0.874   0.685  1.00  0.00    -0.348 N 
HETATM   10  C   LIG     1       1.485   1.691   0.746  1.00  0.00     0.153 C 
HETATM   11  O   LIG     1      -0.734  -1.188   0.468  1.00  0.00    -0.267 OA
BRANCH   9  12
HETATM   12  C   LIG     1      -1.003   1.444   1.189  1.00  0.00     0.087 C 
HETATM   13  C   LIG     1      -1.249   2.937   0.891  1.00  0.00     0.025 C 
HETATM   14  C   LIG     1      -0.494   3.906   1.798  1.00  0.00     0.002 C 
HETATM   15  C   LIG     1      -0.629   3.574   3.281  1.00  0.00     0.000 C 
HETATM   16  C   LIG     1      -0.465   2.094   3.620  1.00  0.00     0.002 C 
HETATM   17  C   LIG     1      -1.240   1.169   2.685  1.00  0.00     0.025 C 
ENDBRANCH   9  12
ENDBRANCH   1   8
BRANCH   2  18
HETATM   18  N   LIG     1       4.627  -3.216  -2.146  1.00  0.00    -0.252 N 
HETATM   19  N   LIG     1       4.502  -4.524  -2.506  1.00  0.00    -0.304 N 
HETATM   20  C   LIG     1       5.619  -4.783  -3.189  1.00  0.00     0.109 A 
ATOM     21  HN  LIG     1       3.731  -5.160  -2.301  1.00  0.00     0.186 HD
HETATM   22  C   LIG     1       6.527  -3.713  -3.164  1.00  0.00     0.038 A 
HETATM   23  C   LIG     1       5.857  -2.709  -2.507  1.00  0.00     0.119 A 
ENDBRANCH   2  18
TORSDOF 3
