REMARK  2 active torsions:
REMARK  status: ('A' for Active; 'I' for Inactive)
REMARK    1  A    between atoms: N_1  and  C_17 
REMARK    2  A    between atoms: C_6  and  C_7 
REMARK       I    between atoms: C_7  and  N_10 
ROOT
HETATM    1  N   LIG     1      -2.772  -1.919   0.184  1.00  0.00    -0.272 N 
HETATM    2  C   LIG     1      -1.561  -1.283   0.063  1.00  0.00     0.134 A 
HETATM    3  N   LIG     1      -3.693  -1.190   0.862  1.00  0.00    -0.307 N 
ATOM      4  HN  LIG     1      -4.661  -1.434   1.072  1.00  0.00     0.186 HD
HETATM    5  C   LIG     1      -1.688  -0.087   0.758  1.00  0.00     0.027 A 
HETATM    6  C   LIG     1       0.620   0.294   0.250  1.00  0.00     0.048 A 
HETATM    7  N   LIG     1      -0.465  -1.737  -0.583  1.00  0.00    -0.349 N 
ATOM      8  HN  LIG     1      -0.433  -2.622  -1.090  1.00  0.00     0.167 HD
HETATM    9  C   LIG     1      -3.031  -0.076   1.189  1.00  0.00     0.122 A 
HETATM   10  C   LIG     1      -0.560   0.742   0.859  1.00  0.00     0.035 A 
HETATM   11  C   LIG     1       0.589  -0.887  -0.484  1.00  0.00     0.106 A 
ENDROOT
BRANCH   6  12
HETATM   12  C   LIG     1       1.844   1.124   0.325  1.00  0.00     0.255 C 
HETATM   13  N   LIG     1       3.107   0.510   0.423  1.00  0.00    -0.348 N 
HETATM   14  C   LIG     1       4.249   1.428   0.442  1.00  0.00     0.126 C 
HETATM   15  C   LIG     1       3.310  -0.744   1.161  1.00  0.00     0.126 C 
HETATM   16  C   LIG     1       5.568   0.749   0.076  1.00  0.00     0.024 C 
HETATM   17  C   LIG     1       5.798  -0.516   0.910  1.00  0.00    -0.015 C 
HETATM   18  C   LIG     1       4.596  -1.450   0.740  1.00  0.00     0.024 C 
HETATM   19  C   LIG     1       7.099  -1.210   0.519  1.00  0.00     0.010 C 
HETATM   20  O   LIG     1       1.697   2.342   0.281  1.00  0.00    -0.267 OA
ENDBRANCH   6  12
BRANCH   1  21
HETATM   21  C   LIG     1      -3.078  -3.269  -0.278  1.00  0.00     0.102 C 
HETATM   22  C   LIG     1      -2.801  -4.295   0.822  1.00  0.00     0.034 C 
HETATM   23  C   LIG     1      -4.510  -3.403  -0.798  1.00  0.00     0.034 C 
ENDBRANCH   1  21
TORSDOF 2
