REMARK  2 active torsions:
REMARK  status: ('A' for Active; 'I' for Inactive)
REMARK    1  A    between atoms: C_1  and  C_2 
REMARK       I    between atoms: C_2  and  N_7 
REMARK    2  A    between atoms: C_3  and  N_7 
ROOT
HETATM    1  C   LIG     1       2.610  -1.124   0.256  1.00  0.00     0.255 C 
HETATM    2  N   LIG     1       2.412  -2.444  -0.102  1.00  0.00    -0.308 N 
ATOM      3  HN  LIG     1       1.496  -2.713  -0.461  1.00  0.00     0.170 HD
HETATM    4  O   LIG     1       3.663  -0.623   0.588  1.00  0.00    -0.268 OA
ENDROOT
BRANCH   1   5
HETATM    5  C   LIG     1       1.385  -0.276   0.088  1.00  0.00     0.035 C 
HETATM    6  C   LIG     1       0.164  -0.812   0.181  1.00  0.00     0.029 C 
HETATM    7  C   LIG     1      -0.988   0.058   0.030  1.00  0.00    -0.002 A 
HETATM    8  C   LIG     1      -0.807   1.411  -0.257  1.00  0.00     0.079 A 
HETATM    9  C   LIG     1      -2.278  -0.469   0.144  1.00  0.00     0.014 A 
HETATM   10  O   LIG     1       0.420   1.995  -0.402  1.00  0.00    -0.346 OA
HETATM   11  C   LIG     1      -1.920   2.232  -0.441  1.00  0.00     0.037 A 
HETATM   12  C   LIG     1       1.593   1.205  -0.102  1.00  0.00     0.220 C 
HETATM   13  C   LIG     1      -3.209   1.704  -0.330  1.00  0.00     0.003 A 
HETATM   14  C   LIG     1      -3.388   0.354  -0.035  1.00  0.00     0.001 A 
ENDBRANCH   1   5
BRANCH   2  15
HETATM   15  C   LIG     1       3.378  -3.412  -0.001  1.00  0.00     0.124 C 
HETATM   16  N   LIG     1       3.531  -4.315  -0.976  1.00  0.00    -0.284 N 
HETATM   17  N   LIG     1       4.544  -5.088  -0.540  1.00  0.00    -0.306 N 
ATOM     18  HN  LIG     1       3.004  -4.398  -1.845  1.00  0.00     0.188 HD
HETATM   19  C   LIG     1       4.902  -4.827   0.751  1.00  0.00     0.113 C 
HETATM   20  C   LIG     1       5.080  -6.135  -1.376  1.00  0.00     0.177 C 
HETATM   21  C   LIG     1       4.182  -3.714   1.118  1.00  0.00     0.068 C 
ENDBRANCH   2  15
TORSDOF 2
