REMARK  1 active torsions:
REMARK  status: ('A' for Active; 'I' for Inactive)
REMARK    1  A    between atoms: N_1  and  C_2 
ROOT
HETATM    1  C   LIG     1      -0.820   2.342   0.195  1.00  0.00     0.133 A 
HETATM    2  C   LIG     1      -2.061   2.793   0.652  1.00  0.00     0.089 A 
HETATM    3  C   LIG     1      -3.134   1.971   1.114  1.00  0.00     0.103 C 
HETATM    4  N   LIG     1      -4.031   1.343   1.499  1.00  0.00    -0.191 NA
HETATM    5  N   LIG     1       0.155   3.222  -0.193  1.00  0.00    -0.351 N 
ATOM      6  HN  LIG     1       1.060   2.880  -0.515  1.00  0.00     0.166 HD
HETATM    7  C   LIG     1      -2.283   4.182   0.689  1.00  0.00     0.028 A 
HETATM    8  C   LIG     1      -0.096   4.547  -0.144  1.00  0.00     0.090 A 
HETATM    9  C   LIG     1      -1.294   5.072   0.286  1.00  0.00     0.019 A 
ENDROOT
BRANCH   1  10
HETATM   10  N   LIG     1      -0.446   0.963   0.086  1.00  0.00    -0.302 N 
HETATM   11  C   LIG     1       0.813   0.542  -0.304  1.00  0.00     0.189 A 
HETATM   12  N   LIG     1       0.934  -0.767  -0.329  1.00  0.00    -0.360 N 
HETATM   13  C   LIG     1      -0.288  -1.235   0.045  1.00  0.00     0.106 A 
ATOM     14  HN  LIG     1       1.761  -1.311  -0.574  1.00  0.00     0.166 HD
HETATM   15  C   LIG     1      -1.156  -0.197   0.301  1.00  0.00     0.116 A 
ENDBRANCH   1  10
TORSDOF 1
