REMARK  2 active torsions:
REMARK  status: ('A' for Active; 'I' for Inactive)
REMARK    1  A    between atoms: C_1  and  C_2 
REMARK       I    between atoms: C_2  and  N_7 
REMARK    2  A    between atoms: N_7  and  C_9 
ROOT
HETATM    1  C   LIG     1      -1.027  -3.827  -1.576  1.00  0.00     0.255 C 
HETATM    2  N   LIG     1      -0.813  -3.504  -0.259  1.00  0.00    -0.348 N 
ATOM      3  HN  LIG     1      -0.021  -2.907  -0.021  1.00  0.00     0.163 HD
HETATM    4  O   LIG     1      -1.958  -4.546  -1.930  1.00  0.00    -0.268 OA
ENDROOT
BRANCH   2   5
HETATM    5  C   LIG     1      -1.677  -3.983   0.809  1.00  0.00     0.122 C 
HETATM    6  C   LIG     1      -1.652  -3.030   1.981  1.00  0.00    -0.002 A 
HETATM    7  C   LIG     1      -1.530  -3.512   3.290  1.00  0.00     0.077 A 
HETATM    8  C   LIG     1      -1.779  -1.644   1.783  1.00  0.00     0.012 A 
HETATM    9  O   LIG     1      -1.462  -4.844   3.601  1.00  0.00    -0.350 OA
HETATM   10  C   LIG     1      -1.444  -2.628   4.365  1.00  0.00     0.037 A 
HETATM   11  C   LIG     1      -1.930  -5.710   2.562  1.00  0.00     0.178 C 
HETATM   12  C   LIG     1      -1.257  -5.387   1.242  1.00  0.00     0.057 C 
HETATM   13  C   LIG     1      -1.528  -1.252   4.151  1.00  0.00     0.003 A 
HETATM   14  C   LIG     1      -1.710  -0.761   2.861  1.00  0.00     0.001 A 
ENDBRANCH   2   5
BRANCH   1  15
HETATM   15  C   LIG     1      -0.062  -3.282  -2.528  1.00  0.00     0.069 A 
HETATM   16  C   LIG     1       0.693  -2.122  -2.409  1.00  0.00     0.065 A 
HETATM   17  O   LIG     1       1.434  -1.919  -3.533  1.00  0.00    -0.319 OA
HETATM   18  C   LIG     1       0.833  -1.064  -1.384  1.00  0.00     0.078 C 
HETATM   19  C   LIG     1       1.151  -2.924  -4.398  1.00  0.00     0.056 A 
HETATM   20  C   LIG     1       0.258  -3.812  -3.829  1.00  0.00    -0.015 A 
HETATM   21  C   LIG     1       1.821  -2.852  -5.714  1.00  0.00     0.077 C 
HETATM   22  C   LIG     1      -0.278  -5.051  -4.450  1.00  0.00     0.052 C 
ENDBRANCH   1  15
TORSDOF 2
