REMARK  1 active torsions:
REMARK  status: ('A' for Active; 'I' for Inactive)
REMARK    1  A    between atoms: C_3  and  C_10 
ROOT
HETATM    1  N   LIG     1       2.344  -0.719  -0.020  1.00  0.00    -0.308 N 
ATOM      2  HN  LIG     1       3.247  -1.193  -0.033  1.00  0.00     0.170 HD
HETATM    3  C   LIG     1       2.331   0.658  -0.059  1.00  0.00     0.118 A 
HETATM    4  N   LIG     1       1.231   1.343  -0.051  1.00  0.00    -0.341 N 
ATOM      5  HN  LIG     1       1.251   2.363  -0.063  1.00  0.00     0.167 HD
HETATM    6  C   LIG     1       1.208  -1.487   0.036  1.00  0.00     0.259 A 
HETATM    7  C   LIG     1      -0.062  -0.746   0.016  1.00  0.00     0.059 A 
HETATM    8  C   LIG     1       0.011   0.648  -0.025  1.00  0.00     0.049 A 
HETATM    9  O   LIG     1       1.254  -2.710   0.104  1.00  0.00    -0.267 OA
HETATM   10  C   LIG     1      -1.290  -1.414   0.043  1.00  0.00     0.019 A 
HETATM   11  C   LIG     1      -1.181   1.376  -0.042  1.00  0.00     0.030 A 
HETATM   12  C   LIG     1      -2.471  -0.673   0.026  1.00  0.00     0.001 A 
HETATM   13  C   LIG     1      -2.416   0.721  -0.016  1.00  0.00     0.002 A 
ENDROOT
BRANCH   3  14
HETATM   14  C   LIG     1       3.652   1.340  -0.087  1.00  0.00     0.008 A 
HETATM   15  C   LIG     1       3.761   2.616   0.481  1.00  0.00     0.015 A 
HETATM   16  C   LIG     1       4.987   3.286   0.477  1.00  0.00     0.001 A 
HETATM   17  C   LIG     1       6.105   2.688  -0.102  1.00  0.00     0.000 A 
HETATM   18  C   LIG     1       6.000   1.424  -0.684  1.00  0.00     0.001 A 
HETATM   19  C   LIG     1       4.776   0.750  -0.681  1.00  0.00     0.015 A 
ENDBRANCH   3  14
TORSDOF 1
