REMARK  3 active torsions:
REMARK  status: ('A' for Active; 'I' for Inactive)
REMARK    1  A    between atoms: N_1  and  C_3 
REMARK    2  A    between atoms: C_2  and  C_4 
REMARK       I    between atoms: C_2  and  N_9 
REMARK    3  A    between atoms: N_9  and  C_15 
ROOT
HETATM    1  C   LIG     1      -1.028   2.683   2.677  1.00  0.00     0.112 A 
HETATM    2  C   LIG     1      -1.257   5.079   1.304  1.00  0.00     0.047 A 
HETATM    3  N   LIG     1      -2.266   3.155   2.399  1.00  0.00    -0.351 N 
ATOM      4  HN  LIG     1      -3.103   2.644   2.680  1.00  0.00     0.166 HD
HETATM    5  C   LIG     1      -2.352   4.333   1.733  1.00  0.00     0.106 A 
HETATM    6  C   LIG     1       0.009   4.572   1.600  1.00  0.00     0.022 A 
HETATM    7  C   LIG     1       0.126   3.364   2.301  1.00  0.00     0.050 A 
ENDROOT
BRANCH   2   8
HETATM    8  C   LIG     1      -1.534   6.333   0.563  1.00  0.00     0.257 C 
HETATM    9  N   LIG     1      -0.452   7.094   0.132  1.00  0.00    -0.323 N 
ATOM     10  HN  LIG     1       0.479   6.755   0.375  1.00  0.00     0.169 HD
HETATM   11  O   LIG     1      -2.716   6.608   0.382  1.00  0.00    -0.267 OA
BRANCH   9  12
HETATM   12  C   LIG     1      -0.524   8.299  -0.614  1.00  0.00     0.035 A 
HETATM   13  C   LIG     1      -1.728   8.875  -1.020  1.00  0.00     0.037 A 
HETATM   14  C   LIG     1      -1.771  10.067  -1.762  1.00  0.00    -0.054 A 
HETATM   15  C   LIG     1      -0.570  10.689  -2.135  1.00  0.00    -0.056 A 
HETATM   16  C   LIG     1      -3.116  10.611  -2.157  1.00  0.00     0.049 C 
HETATM   17  C   LIG     1       0.644  10.120  -1.722  1.00  0.00     0.009 A 
HETATM   18  C   LIG     1      -0.569  11.958  -2.940  1.00  0.00     0.049 C 
HETATM   19  C   LIG     1       0.667   8.939  -0.967  1.00  0.00     0.030 A 
ENDBRANCH   9  12
ENDBRANCH   2   8
BRANCH   1  20
HETATM   20  N   LIG     1      -0.954   1.448   3.373  1.00  0.00    -0.303 N 
HETATM   21  C   LIG     1      -2.037   0.673   3.726  1.00  0.00     0.189 A 
HETATM   22  N   LIG     1      -1.684  -0.425   4.358  1.00  0.00    -0.360 N 
HETATM   23  C   LIG     1      -0.322  -0.366   4.433  1.00  0.00     0.106 A 
ATOM     24  HN  LIG     1      -2.295  -1.160   4.714  1.00  0.00     0.166 HD
HETATM   25  C   LIG     1       0.157   0.776   3.834  1.00  0.00     0.116 A 
ENDBRANCH   1  20
TORSDOF 3
