REMARK  2 active torsions:
REMARK  status: ('A' for Active; 'I' for Inactive)
REMARK    1  A    between atoms: C_1  and  N_2 
REMARK       I    between atoms: N_2  and  C_5 
REMARK    2  A    between atoms: C_5  and  C_9 
ROOT
HETATM    1  N   LIG     1       3.454   0.101   0.036  1.00  0.00    -0.283 N 
HETATM    2  C   LIG     1       4.143  -1.109   0.228  1.00  0.00     0.260 C 
HETATM    3  O   LIG     1       5.372  -1.169  -0.008  1.00  0.00    -0.267 OA
HETATM    4  C   LIG     1       4.248   1.266  -0.376  1.00  0.00     0.163 C 
ENDROOT
BRANCH   1   5
HETATM    5  C   LIG     1       2.133   0.339   0.397  1.00  0.00     0.234 A 
HETATM    6  N   LIG     1       1.263  -0.333   1.125  1.00  0.00    -0.319 N 
HETATM    7  C   LIG     1       0.126   0.448   1.119  1.00  0.00     0.069 A 
ATOM      8  HN  LIG     1       1.400  -1.231   1.589  1.00  0.00     0.169 HD
HETATM    9  C   LIG     1       0.363   1.588   0.378  1.00  0.00     0.106 A 
HETATM   10  C   LIG     1      -1.138   0.293   1.706  1.00  0.00     0.032 A 
HETATM   11  O   LIG     1       1.626   1.520  -0.094  1.00  0.00    -0.277 OA
HETATM   12  C   LIG     1      -0.534   2.627   0.173  1.00  0.00     0.040 A 
HETATM   13  C   LIG     1      -1.779   2.471   0.782  1.00  0.00     0.003 A 
HETATM   14  C   LIG     1      -2.083   1.323   1.525  1.00  0.00     0.002 A 
ENDBRANCH   1   5
BRANCH   2  15
HETATM   15  C   LIG     1       3.531  -2.400   0.676  1.00  0.00     0.032 A 
HETATM   16  C   LIG     1       2.237  -2.810   0.335  1.00  0.00     0.017 A 
HETATM   17  C   LIG     1       1.700  -3.999   0.847  1.00  0.00     0.007 A 
HETATM   18  C   LIG     1       2.484  -4.869   1.609  1.00  0.00    -0.062 A 
HETATM   19  C   LIG     1       3.815  -4.527   1.856  1.00  0.00     0.007 A 
HETATM   20  C   LIG     1       1.897  -6.090   2.257  1.00  0.00     0.048 C 
HETATM   21  C   LIG     1       4.323  -3.298   1.418  1.00  0.00     0.017 A 
ENDBRANCH   2  15
TORSDOF 2
