REMARK  1 active torsions:
REMARK  status: ('A' for Active; 'I' for Inactive)
REMARK    1  A    between atoms: N_1  and  C_2 
ROOT
HETATM    1  C   LIG     1      -0.874   2.421  -0.057  1.00  0.00     0.112 A 
HETATM    2  N   LIG     1      -0.025   3.353   0.448  1.00  0.00    -0.350 N 
ATOM      3  HN  LIG     1       0.853   3.085   0.892  1.00  0.00     0.166 HD
HETATM    4  C   LIG     1      -2.082   2.768  -0.655  1.00  0.00     0.051 A 
HETATM    5  C   LIG     1      -0.391   4.653   0.338  1.00  0.00     0.116 A 
HETATM    6  C   LIG     1      -1.543   5.103  -0.300  1.00  0.00     0.061 A 
HETATM    7  N   LIG     1      -1.930   6.446  -0.275  1.00  0.00    -0.101 NA
HETATM    8  C   LIG     1      -2.419   4.122  -0.754  1.00  0.00     0.032 A 
ENDROOT
BRANCH   1   9
HETATM    9  N   LIG     1      -0.487   1.057   0.059  1.00  0.00    -0.303 N 
HETATM   10  C   LIG     1      -1.155  -0.067  -0.369  1.00  0.00     0.189 A 
HETATM   11  N   LIG     1      -0.501  -1.177  -0.097  1.00  0.00    -0.360 N 
HETATM   12  C   LIG     1       0.642  -0.770   0.534  1.00  0.00     0.106 A 
ATOM     13  HN  LIG     1      -0.785  -2.133  -0.311  1.00  0.00     0.166 HD
HETATM   14  C   LIG     1       0.677   0.598   0.642  1.00  0.00     0.116 A 
ENDBRANCH   1   9
TORSDOF 1
