REMARK  3 active torsions:
REMARK  status: ('A' for Active; 'I' for Inactive)
REMARK    1  A    between atoms: C_1  and  C_2 
REMARK       I    between atoms: C_2  and  N_11 
REMARK    2  A    between atoms: C_5  and  N_7 
REMARK    3  A    between atoms: N_7  and  C_14 
ROOT
HETATM    1  C   LIG     1       0.463   1.410  -0.779  1.00  0.00     0.047 A 
HETATM    2  N   LIG     1       1.073  -0.937  -0.714  1.00  0.00    -0.352 N 
ATOM      3  HN  LIG     1       1.765  -1.666  -0.888  1.00  0.00     0.166 HD
HETATM    4  C   LIG     1      -0.135  -1.239  -0.197  1.00  0.00     0.101 A 
HETATM    5  C   LIG     1       1.343   0.363  -0.996  1.00  0.00     0.106 A 
HETATM    6  C   LIG     1      -0.793   1.093  -0.272  1.00  0.00     0.022 A 
HETATM    7  C   LIG     1      -1.089  -0.242   0.026  1.00  0.00     0.049 A 
ENDROOT
BRANCH   4   8
HETATM    8  N   LIG     1      -0.494  -2.570   0.041  1.00  0.00    -0.372 N 
ATOM      9  HN  LIG     1      -1.408  -2.805   0.427  1.00  0.00     0.161 HD
BRANCH   8  10
HETATM   10  C   LIG     1       0.483  -3.619  -0.280  1.00  0.00     0.083 C 
HETATM   11  C   LIG     1      -0.271  -4.927  -0.587  1.00  0.00     0.025 C 
HETATM   12  C   LIG     1      -0.825  -5.634   0.652  1.00  0.00     0.002 C 
HETATM   13  C   LIG     1       0.232  -5.817   1.735  1.00  0.00     0.000 C 
HETATM   14  C   LIG     1       0.894  -4.491   2.089  1.00  0.00     0.002 C 
HETATM   15  C   LIG     1       1.504  -3.841   0.847  1.00  0.00     0.025 C 
ENDBRANCH   8  10
ENDBRANCH   4   8
BRANCH   1  16
HETATM   16  C   LIG     1       0.813   2.816  -1.101  1.00  0.00     0.252 C 
HETATM   17  O   LIG     1      -0.057   3.609  -1.428  1.00  0.00    -0.268 OA
HETATM   18  N   LIG     1       2.146   3.152  -0.966  1.00  0.00    -0.361 N 
HETATM   19  C   LIG     1       2.602   4.498  -1.211  1.00  0.00     0.149 C 
ATOM     20  HN  LIG     1       2.818   2.437  -0.689  1.00  0.00     0.162 HD
ENDBRANCH   1  16
TORSDOF 3
