REMARK  2 active torsions:
REMARK  status: ('A' for Active; 'I' for Inactive)
REMARK    1  A    between atoms: N_1  and  C_9 
REMARK    2  A    between atoms: N_8  and  C_16 
ROOT
HETATM    1  N   LIG     1       1.748  -0.294   0.299  1.00  0.00    -0.261 N 
HETATM    2  C   LIG     1       1.223  -0.316   1.583  1.00  0.00     0.330 C 
HETATM    3  C   LIG     1       1.009   0.182  -0.801  1.00  0.00     0.264 C 
HETATM    4  C   LIG     1      -0.293   0.826  -0.530  1.00  0.00     0.059 A 
HETATM    5  N   LIG     1      -0.033   0.185   1.756  1.00  0.00    -0.307 N 
ATOM      6  HN  LIG     1      -0.443   0.122   2.688  1.00  0.00     0.170 HD
HETATM    7  C   LIG     1      -0.793   0.773   0.760  1.00  0.00     0.052 A 
HETATM    8  O   LIG     1       1.768  -0.759   2.585  1.00  0.00    -0.246 OA
HETATM    9  O   LIG     1       1.369   0.081  -1.973  1.00  0.00    -0.267 OA
HETATM   10  C   LIG     1      -1.027   1.468  -1.533  1.00  0.00     0.019 A 
HETATM   11  C   LIG     1      -2.041   1.314   1.067  1.00  0.00     0.030 A 
HETATM   12  C   LIG     1      -2.266   2.038  -1.228  1.00  0.00     0.001 A 
HETATM   13  C   LIG     1      -2.777   1.951   0.068  1.00  0.00     0.002 A 
ENDROOT
BRANCH   1  14
HETATM   14  C   LIG     1       3.077  -0.885  -0.023  1.00  0.00     0.101 C 
HETATM   15  C   LIG     1       4.087   0.162  -0.539  1.00  0.00     0.056 C 
HETATM   16  C   LIG     1       4.843   0.857   0.591  1.00  0.00     0.275 C 
HETATM   17  N   LIG     1       5.577  -0.165   1.340  1.00  0.00     0.092 N 
HETATM   18  C   LIG     1       4.643  -1.052   2.038  1.00  0.00     0.275 C 
HETATM   19  C   LIG     1       3.760  -1.793   1.021  1.00  0.00     0.056 C 
BRANCH  17  20
HETATM   20  C   LIG     1       6.693   0.363   2.140  1.00  0.00     0.215 C 
HETATM   21  C   LIG     1       6.331   1.180   3.383  1.00  0.00     0.042 C 
HETATM   22  C   LIG     1       7.641  -0.781   2.528  1.00  0.00     0.042 C 
ENDBRANCH  17  20
ENDBRANCH   1  14
TORSDOF 2
