REMARK  2 active torsions:
REMARK  status: ('A' for Active; 'I' for Inactive)
REMARK    1  A    between atoms: C_1  and  C_2 
REMARK       I    between atoms: C_2  and  N_7 
REMARK    2  A    between atoms: N_7  and  C_9 
ROOT
HETATM    1  C   LIG     1      -1.451   0.756  -0.508  1.00  0.00     0.045 A 
HETATM    2  C   LIG     1      -0.077   0.371  -0.276  1.00  0.00    -0.029 A 
HETATM    3  C   LIG     1      -2.210  -0.359  -0.831  1.00  0.00     0.067 A 
HETATM    4  S   LIG     1      -1.315  -1.816  -0.818  1.00  0.00    -0.105 SA
HETATM    5  C   LIG     1       0.113  -0.992  -0.420  1.00  0.00    -0.010 A 
HETATM    6  C   LIG     1       1.065   1.293   0.058  1.00  0.00     0.040 C 
HETATM    7  C   LIG     1       1.412  -1.711  -0.228  1.00  0.00     0.046 C 
HETATM    8  C   LIG     1       2.297   0.528   0.569  1.00  0.00     0.005 C 
HETATM    9  C   LIG     1       2.584  -0.720  -0.274  1.00  0.00     0.005 C 
ENDROOT
BRANCH   1  10
HETATM   10  C   LIG     1      -1.969   2.131  -0.457  1.00  0.00     0.253 C 
HETATM   11  N   LIG     1      -3.322   2.236  -0.186  1.00  0.00    -0.352 N 
ATOM     12  HN  LIG     1      -3.867   1.382  -0.065  1.00  0.00     0.163 HD
HETATM   13  O   LIG     1      -1.245   3.109  -0.620  1.00  0.00    -0.268 OA
BRANCH  11  14
HETATM   14  C   LIG     1      -3.983   3.496  -0.069  1.00  0.00     0.084 A 
HETATM   15  C   LIG     1      -4.094   4.185   1.262  1.00  0.00     0.027 A 
HETATM   16  C   LIG     1      -5.317   3.598   0.620  1.00  0.00     0.027 A 
ENDBRANCH  11  14
ENDBRANCH   1  10
TORSDOF 2
