REMARK  3 active torsions:
REMARK  status: ('A' for Active; 'I' for Inactive)
REMARK    1  A    between atoms: C_1  and  N_3 
REMARK    2  A    between atoms: N_2  and  C_12 
REMARK       I    between atoms: N_3  and  C_5 
REMARK    3  A    between atoms: C_5  and  C_10 
ROOT
HETATM    1  C   LIG     1       0.175  -1.372  -0.286  1.00  0.00     0.126 A 
HETATM    2  N   LIG     1       1.300  -0.719   0.166  1.00  0.00    -0.272 N 
HETATM    3  N   LIG     1       1.097   0.602   0.368  1.00  0.00    -0.308 N 
ATOM      4  HN  LIG     1       1.751   1.288   0.744  1.00  0.00     0.186 HD
HETATM    5  C   LIG     1      -0.774  -0.389  -0.462  1.00  0.00     0.068 A 
HETATM    6  C   LIG     1      -0.157   0.799  -0.038  1.00  0.00     0.111 A 
ENDROOT
BRANCH   1   7
HETATM    7  N   LIG     1       0.118  -2.736  -0.509  1.00  0.00    -0.308 N 
HETATM    8  C   LIG     1      -0.675  -3.264  -1.512  1.00  0.00     0.257 C 
HETATM    9  O   LIG     1      -1.331  -2.625  -2.331  1.00  0.00    -0.267 OA
ATOM     10  HN  LIG     1       0.670  -3.363   0.076  1.00  0.00     0.170 HD
BRANCH   8  11
HETATM   11  C   LIG     1      -0.618  -4.740  -1.639  1.00  0.00     0.032 A 
HETATM   12  C   LIG     1      -0.624  -5.303  -2.926  1.00  0.00     0.020 A 
HETATM   13  C   LIG     1      -0.594  -6.691  -3.081  1.00  0.00     0.043 A 
HETATM   14  C   LIG     1      -0.572  -7.504  -1.951  1.00  0.00     0.116 A 
HETATM   15  C   LIG     1      -0.567  -6.958  -0.672  1.00  0.00     0.043 A 
HETATM   16  F   LIG     1      -0.555  -8.833  -2.101  1.00  0.00    -0.206 F 
HETATM   17  C   LIG     1      -0.593  -5.572  -0.509  1.00  0.00     0.020 A 
ENDBRANCH   8  11
ENDBRANCH   1   7
BRANCH   2  18
HETATM   18  C   LIG     1       2.647  -1.249   0.256  1.00  0.00     0.110 C 
HETATM   19  C   LIG     1       3.269  -1.118   1.640  1.00  0.00     0.027 C 
HETATM   20  C   LIG     1       4.760  -1.289   1.390  1.00  0.00     0.002 C 
HETATM   21  C   LIG     1       5.016  -0.804  -0.037  1.00  0.00     0.002 C 
HETATM   22  C   LIG     1       3.650  -0.556  -0.669  1.00  0.00     0.027 C 
ENDBRANCH   2  18
TORSDOF 3
