REMARK  3 active torsions:
REMARK  status: ('A' for Active; 'I' for Inactive)
REMARK    1  A    between atoms: C_1  and  N_7 
REMARK    2  A    between atoms: N_7  and  C_11 
REMARK    3  A    between atoms: C_9  and  C_11 
REMARK       I    between atoms: C_9  and  N_10 
ROOT
HETATM    1  N   LIG     1      -0.646  -2.923  -0.442  1.00  0.00    -0.374 N 
ATOM      2  HN  LIG     1      -0.365  -3.463  -1.261  1.00  0.00     0.160 HD
ENDROOT
BRANCH   1   3
HETATM    3  C   LIG     1       0.206  -1.972   0.026  1.00  0.00     0.076 A 
HETATM    4  C   LIG     1       1.581  -2.054  -0.085  1.00  0.00     0.052 A 
HETATM    5  N   LIG     1       2.062  -0.898   0.479  1.00  0.00    -0.299 N 
HETATM    6  C   LIG     1       2.474  -3.098  -0.650  1.00  0.00     0.072 C 
HETATM    7  N   LIG     1       1.102  -0.101   0.976  1.00  0.00    -0.301 N 
HETATM    8  C   LIG     1       3.432  -0.451   0.588  1.00  0.00     0.177 C 
HETATM    9  C   LIG     1      -0.040  -0.738   0.690  1.00  0.00     0.050 A 
ATOM     10  HN  LIG     1       1.217   0.789   1.462  1.00  0.00     0.187 HD
HETATM   11  C   LIG     1      -1.320  -0.092   1.070  1.00  0.00     0.072 C 
ENDBRANCH   1   3
BRANCH   1  12
HETATM   12  C   LIG     1      -1.954  -3.215   0.172  1.00  0.00     0.170 C 
HETATM   13  C   LIG     1      -1.780  -3.702   1.612  1.00  0.00     0.042 C 
BRANCH  12  14
HETATM   14  C   LIG     1      -2.663  -4.344  -0.637  1.00  0.00     0.242 C 
HETATM   15  N   LIG     1      -3.445  -3.968  -1.714  1.00  0.00    -0.350 N 
HETATM   16  C   LIG     1      -4.146  -4.968  -2.508  1.00  0.00     0.126 C 
HETATM   17  C   LIG     1      -3.645  -2.635  -2.243  1.00  0.00     0.126 C 
HETATM   18  C   LIG     1      -4.485  -4.243  -3.801  1.00  0.00     0.021 C 
HETATM   19  C   LIG     1      -4.686  -2.806  -3.343  1.00  0.00     0.021 C 
HETATM   20  O   LIG     1      -2.501  -5.531  -0.362  1.00  0.00    -0.271 OA
ENDBRANCH  12  14
ENDBRANCH   1  12
TORSDOF 3
