REMARK  3 active torsions:
REMARK  status: ('A' for Active; 'I' for Inactive)
REMARK       I    between atoms: N_1  and  C_2 
REMARK       I    between atoms: C_2  and  N_5 
REMARK    1  A    between atoms: N_5  and  C_12 
REMARK    2  A    between atoms: N_8  and  C_13 
REMARK    3  A    between atoms: C_13  and  C_18 
ROOT
HETATM    1  N   LIG     1       0.190   7.585  -0.616  1.00  0.00     0.092 N 
HETATM    2  C   LIG     1       1.802   5.435   0.634  1.00  0.00     0.089 C 
HETATM    3  C   LIG     1       0.685   6.160   1.402  1.00  0.00     0.055 C 
HETATM    4  C   LIG     1       1.661   5.582  -0.881  1.00  0.00     0.055 C 
HETATM    5  C   LIG     1       1.376   7.026  -1.279  1.00  0.00     0.275 C 
HETATM    6  C   LIG     1       0.402   7.561   0.841  1.00  0.00     0.275 C 
ENDROOT
BRANCH   2   7
HETATM    7  N   LIG     1       1.826   4.011   0.963  1.00  0.00    -0.338 N 
HETATM    8  C   LIG     1       2.892   3.411   1.580  1.00  0.00     0.327 C 
HETATM    9  N   LIG     1       2.621   2.071   1.856  1.00  0.00    -0.270 N 
HETATM   10  O   LIG     1       3.941   3.916   1.966  1.00  0.00    -0.246 OA
HETATM   11  C   LIG     1       2.203   1.109   0.965  1.00  0.00     0.192 A 
HETATM   12  C   LIG     1       2.693   1.449   3.083  1.00  0.00     0.119 A 
HETATM   13  N   LIG     1       1.968  -0.044   1.551  1.00  0.00    -0.360 N 
HETATM   14  C   LIG     1       2.261   0.161   2.873  1.00  0.00     0.106 A 
ATOM     15  HN  LIG     1       1.639  -0.905   1.115  1.00  0.00     0.166 HD
ATOM     16  HN  LIG     1       1.015   3.440   0.723  1.00  0.00     0.164 HD
ENDBRANCH   2   7
BRANCH   1  17
HETATM   17  C   LIG     1      -1.081   6.928  -0.982  1.00  0.00     0.311 C 
BRANCH  17  18
HETATM   18  C   LIG     1      -1.439   6.964  -2.454  1.00  0.00    -0.030 A 
HETATM   19  C   LIG     1      -1.742   8.172  -3.096  1.00  0.00     0.009 A 
HETATM   20  C   LIG     1      -2.123   8.184  -4.441  1.00  0.00     0.001 A 
HETATM   21  C   LIG     1      -2.195   6.992  -5.161  1.00  0.00     0.000 A 
HETATM   22  C   LIG     1      -1.891   5.786  -4.537  1.00  0.00     0.001 A 
HETATM   23  C   LIG     1      -1.521   5.770  -3.191  1.00  0.00     0.009 A 
ENDBRANCH  17  18
ENDBRANCH   1  17
TORSDOF 3
