REMARK  0 active torsions:
REMARK  status: ('A' for Active; 'I' for Inactive)
ROOT
HETATM    1  C   LIG     1       1.103  -0.900   0.000  1.00  0.00     0.689 A 
HETATM    2  N   LIG     1       0.709   0.440  -0.000  1.00  0.00    -0.154 N 
HETATM    3  N   LIG     1       0.054  -1.692   0.000  1.00  0.00    -0.189 N 
ATOM      4  HN  LIG     1       0.055  -2.712   0.000  1.00  0.00     0.184 HD
HETATM    5  N   LIG     1       2.426  -1.242   0.000  1.00  0.00    -0.200 N 
ATOM      6  HN  LIG     1       2.732  -2.215   0.000  1.00  0.00     0.183 HD
HETATM    7  C   LIG     1      -0.669   0.474   0.000  1.00  0.00     0.083 A 
HETATM    8  C   LIG     1       1.629   1.482  -0.001  1.00  0.00     0.136 A 
HETATM    9  C   LIG     1      -1.041  -0.867   0.000  1.00  0.00     0.077 A 
HETATM   10  C   LIG     1       2.939   1.202  -0.001  1.00  0.00     0.043 A 
HETATM   11  C   LIG     1       3.272  -0.256  -0.000  1.00  0.00     0.126 A 
HETATM   12 BR   LIG     1       4.297   2.453  -0.002  1.00  0.00    -0.048 Br
HETATM   13  C   LIG     1      -1.605   1.518   0.000  1.00  0.00     0.033 A 
HETATM   14  C   LIG     1      -2.403  -1.205   0.000  1.00  0.00     0.032 A 
HETATM   15  C   LIG     1      -2.958   1.160   0.000  1.00  0.00     0.002 A 
HETATM   16  C   LIG     1      -3.354  -0.178   0.000  1.00  0.00     0.002 A 
ENDROOT
TORSDOF 0
