REMARK  3 active torsions:
REMARK  status: ('A' for Active; 'I' for Inactive)
REMARK    1  A    between atoms: C_4  and  N_7 
REMARK       I    between atoms: N_7  and  C_9 
REMARK    2  A    between atoms: C_9  and  C_13 
REMARK    3  A    between atoms: C_13  and  C_14 
ROOT
HETATM    1  N   LIG     1       0.326  -2.433   0.094  1.00  0.00    -0.325 N 
ATOM      2  HN  LIG     1       0.062  -1.989   0.974  1.00  0.00     0.169 HD
HETATM    3  C   LIG     1      -0.575  -3.360  -0.398  1.00  0.00     0.226 C 
HETATM    4  O   LIG     1      -0.409  -4.050  -1.410  1.00  0.00    -0.273 OA
ENDROOT
BRANCH   1   5
HETATM    5  C   LIG     1       1.553  -2.017  -0.448  1.00  0.00     0.064 A 
HETATM    6  C   LIG     1       2.149  -2.499  -1.619  1.00  0.00     0.086 A 
HETATM    7  N   LIG     1       1.765  -3.451  -2.528  1.00  0.00    -0.298 N 
HETATM    8  C   LIG     1       3.370  -2.031  -2.098  1.00  0.00     0.011 A 
HETATM    9  N   LIG     1       2.620  -3.633  -3.550  1.00  0.00    -0.310 N 
ATOM     10  HN  LIG     1       0.898  -3.980  -2.436  1.00  0.00     0.187 HD
HETATM   11  C   LIG     1       3.597  -2.765  -3.283  1.00  0.00     0.120 A 
ATOM     12  HN  LIG     1       2.541  -4.277  -4.337  1.00  0.00     0.186 HD
HETATM   13  C   LIG     1       4.057  -1.032  -1.391  1.00  0.00     0.015 A 
HETATM   14  C   LIG     1       3.489  -0.528  -0.219  1.00  0.00     0.003 A 
HETATM   15  C   LIG     1       2.261  -1.011   0.239  1.00  0.00     0.032 A 
ENDBRANCH   1   5
BRANCH   3  16
HETATM   16  C   LIG     1      -1.824  -3.573   0.448  1.00  0.00     0.141 C 
BRANCH  16  17
HETATM   17  C   LIG     1      -2.309  -2.339   1.169  1.00  0.00    -0.046 A 
HETATM   18  C   LIG     1      -1.843  -2.056   2.461  1.00  0.00     0.049 A 
HETATM   19  C   LIG     1      -2.210  -0.872   3.086  1.00  0.00     0.116 A 
HETATM   20  C   LIG     1      -3.050   0.037   2.457  1.00  0.00     0.042 A 
HETATM   21  F   LIG     1      -1.726  -0.599   4.304  1.00  0.00    -0.206 F 
HETATM   22  C   LIG     1      -3.528  -0.239   1.176  1.00  0.00     0.004 A 
HETATM   23  C   LIG     1      -3.153  -1.419   0.529  1.00  0.00     0.008 A 
ENDBRANCH  16  17
ENDBRANCH   3  16
TORSDOF 3
