REMARK  3 active torsions:
REMARK  status: ('A' for Active; 'I' for Inactive)
REMARK    1  A    between atoms: C_1  and  C_7 
REMARK    2  A    between atoms: C_5  and  C_7 
REMARK       I    between atoms: C_5  and  N_9 
REMARK    3  A    between atoms: N_9  and  C_12 
ROOT
HETATM    1  C   LIG     1      -3.248  -3.012  -1.339  1.00  0.00    -0.022 A 
HETATM    2  N   LIG     1      -3.932  -4.575  -2.776  1.00  0.00    -0.365 N 
ATOM      3  HN  LIG     1      -3.945  -5.421  -3.346  1.00  0.00     0.165 HD
HETATM    4  C   LIG     1      -2.898  -4.193  -1.966  1.00  0.00     0.097 A 
HETATM    5  C   LIG     1      -4.544  -2.651  -1.832  1.00  0.00    -0.001 A 
HETATM    6  C   LIG     1      -4.952  -3.654  -2.711  1.00  0.00     0.042 A 
HETATM    7  C   LIG     1      -5.416  -1.568  -1.597  1.00  0.00     0.014 A 
HETATM    8  C   LIG     1      -6.190  -3.632  -3.364  1.00  0.00     0.030 A 
HETATM    9  C   LIG     1      -6.654  -1.526  -2.248  1.00  0.00     0.001 A 
HETATM   10  C   LIG     1      -7.034  -2.545  -3.117  1.00  0.00     0.002 A 
ENDROOT
BRANCH   1  11
HETATM   11  C   LIG     1      -2.423  -2.254  -0.344  1.00  0.00     0.143 C 
BRANCH  11  12
HETATM   12  C   LIG     1      -2.629  -2.681   1.110  1.00  0.00     0.222 C 
HETATM   13  N   LIG     1      -3.928  -2.984   1.473  1.00  0.00    -0.356 N 
ATOM     14  HN  LIG     1      -4.664  -2.922   0.770  1.00  0.00     0.162 HD
HETATM   15  O   LIG     1      -1.707  -2.658   1.918  1.00  0.00    -0.273 OA
BRANCH  13  16
HETATM   16  C   LIG     1      -4.277  -3.386   2.817  1.00  0.00     0.084 C 
HETATM   17  C   LIG     1      -4.110  -4.886   3.080  1.00  0.00     0.025 C 
HETATM   18  C   LIG     1      -5.177  -5.243   4.122  1.00  0.00     0.002 C 
HETATM   19  C   LIG     1      -5.976  -3.968   4.369  1.00  0.00     0.002 C 
HETATM   20  C   LIG     1      -5.750  -3.136   3.119  1.00  0.00     0.025 C 
ENDBRANCH  13  16
ENDBRANCH  11  12
ENDBRANCH   1  11
TORSDOF 3
