REMARK  3 active torsions:
REMARK  status: ('A' for Active; 'I' for Inactive)
REMARK    1  A    between atoms: C_1  and  C_2 
REMARK       I    between atoms: C_2  and  N_3 
REMARK    2  A    between atoms: N_3  and  C_8 
REMARK    3  A    between atoms: N_6  and  C_7 
ROOT
HETATM    1  C   LIG     1      -1.793  -7.338   0.267  1.00  0.00     0.030 A 
HETATM    2  C   LIG     1      -0.615  -4.901   1.168  1.00  0.00     0.041 A 
HETATM    3  C   LIG     1      -1.570  -7.079   1.628  1.00  0.00     0.038 A 
HETATM    4  C   LIG     1      -0.998  -5.875   2.099  1.00  0.00    -0.033 A 
HETATM    5  C   LIG     1      -1.417  -6.326  -0.624  1.00  0.00     0.031 A 
HETATM    6  C   LIG     1      -0.818  -5.140  -0.191  1.00  0.00     0.032 A 
HETATM    7  C   LIG     1      -0.807  -5.727   3.581  1.00  0.00     0.050 C 
ENDROOT
BRANCH   2   8
HETATM    8  N   LIG     1      -0.061  -3.667   1.574  1.00  0.00    -0.322 N 
HETATM    9  C   LIG     1       1.147  -3.218   1.048  1.00  0.00     0.258 C 
HETATM   10  O   LIG     1       1.810  -3.851   0.241  1.00  0.00    -0.267 OA
ATOM     11  HN  LIG     1      -0.553  -3.097   2.262  1.00  0.00     0.169 HD
BRANCH   9  12
HETATM   12  C   LIG     1       1.620  -1.939   1.581  1.00  0.00     0.063 A 
HETATM   13  C   LIG     1       2.842  -1.373   1.239  1.00  0.00     0.064 A 
HETATM   14  O   LIG     1       3.018  -0.183   1.876  1.00  0.00    -0.326 OA
HETATM   15  C   LIG     1       3.948  -1.806   0.354  1.00  0.00     0.077 C 
HETATM   16  C   LIG     1       1.911   0.034   2.625  1.00  0.00     0.143 A 
HETATM   17  C   LIG     1       1.021  -1.005   2.480  1.00  0.00     0.044 A 
ENDBRANCH   9  12
ENDBRANCH   2   8
BRANCH   1  18
HETATM   18  N   LIG     1      -2.379  -8.508  -0.163  1.00  0.00    -0.381 N 
HETATM   19  C   LIG     1      -2.276  -9.771   0.572  1.00  0.00     0.123 C 
HETATM   20  C   LIG     1      -2.386 -10.840  -0.517  1.00  0.00     0.021 C 
HETATM   21  C   LIG     1      -3.251 -10.174  -1.573  1.00  0.00     0.021 C 
HETATM   22  C   LIG     1      -2.743  -8.738  -1.559  1.00  0.00     0.123 C 
ENDBRANCH   1  18
TORSDOF 3
