REMARK  2 active torsions:
REMARK  status: ('A' for Active; 'I' for Inactive)
REMARK    1  A    between atoms: C_1  and  C_2 
REMARK       I    between atoms: C_2  and  N_4 
REMARK    2  A    between atoms: C_3  and  C_13 
REMARK       I    between atoms: N_5  and  C_6 
ROOT
HETATM    1  C   LIG     1       1.046  -0.088   0.622  1.00  0.00     0.153 A 
HETATM    2  C   LIG     1      -0.335  -0.331   0.647  1.00  0.00     0.015 A 
HETATM    3  O   LIG     1       1.302   1.048   1.353  1.00  0.00    -0.316 OA
HETATM    4  C   LIG     1      -0.882   0.658   1.529  1.00  0.00     0.040 A 
HETATM    5  C   LIG     1       0.150   1.469   1.913  1.00  0.00     0.143 A 
ENDROOT
BRANCH   1   6
HETATM    6  C   LIG     1       2.185  -0.698  -0.066  1.00  0.00     0.278 C 
HETATM    7  N   LIG     1       3.473  -0.580   0.499  1.00  0.00    -0.343 N 
HETATM    8  C   LIG     1       4.598  -1.223  -0.185  1.00  0.00     0.146 C 
HETATM    9  C   LIG     1       3.766  -0.332   1.919  1.00  0.00     0.146 C 
HETATM   10  C   LIG     1       4.946  -2.563   0.483  1.00  0.00     0.145 C 
HETATM   11  N   LIG     1       5.126  -2.423   1.940  1.00  0.00    -0.349 N 
HETATM   12  C   LIG     1       4.087  -1.652   2.638  1.00  0.00     0.145 C 
HETATM   13  C   LIG     1       5.921  -3.272   2.699  1.00  0.00     0.215 C 
HETATM   14  O   LIG     1       5.813  -3.370   3.921  1.00  0.00    -0.274 OA
HETATM   15  C   LIG     1       6.991  -4.039   1.966  1.00  0.00     0.117 C 
HETATM   16  O   LIG     1       2.052  -1.309  -1.134  1.00  0.00    -0.265 OA
ENDBRANCH   1   6
BRANCH   2  17
HETATM   17  C   LIG     1      -1.099  -1.368  -0.056  1.00  0.00    -0.023 A 
HETATM   18  C   LIG     1      -0.566  -2.622  -0.368  1.00  0.00     0.012 A 
HETATM   19  C   LIG     1      -1.329  -3.579  -1.050  1.00  0.00     0.001 A 
HETATM   20  C   LIG     1      -2.653  -3.315  -1.392  1.00  0.00     0.000 A 
HETATM   21  C   LIG     1      -3.217  -2.091  -1.054  1.00  0.00     0.001 A 
HETATM   22  C   LIG     1      -2.445  -1.124  -0.400  1.00  0.00     0.012 A 
ENDBRANCH   2  17
TORSDOF 2
