REMARK  2 active torsions:
REMARK  status: ('A' for Active; 'I' for Inactive)
REMARK       I    between atoms: C_9  and  N_10 
REMARK    1  A    between atoms: C_9  and  C_12 
REMARK    2  A    between atoms: N_10  and  C_14 
ROOT
HETATM    1  C   LIG     1       0.272   0.875  -0.069  1.00  0.00     0.134 A 
HETATM    2  C   LIG     1       0.623  -0.447  -0.289  1.00  0.00     0.035 A 
HETATM    3  N   LIG     1       2.533   0.807  -0.377  1.00  0.00    -0.301 N 
ATOM      4  HN  LIG     1       3.506   1.100  -0.468  1.00  0.00     0.187 HD
HETATM    5  N   LIG     1       1.448   1.575  -0.119  1.00  0.00    -0.280 N 
HETATM    6  C   LIG     1       2.027  -0.430  -0.484  1.00  0.00     0.036 A 
HETATM    7  N   LIG     1      -0.970   1.355   0.157  1.00  0.00    -0.348 N 
ATOM      8  HN  LIG     1      -1.180   2.344   0.296  1.00  0.00     0.167 HD
HETATM    9  C   LIG     1      -0.392  -1.416  -0.264  1.00  0.00     0.048 A 
HETATM   10  C   LIG     1      -1.698  -1.001   0.003  1.00  0.00     0.051 A 
HETATM   11  C   LIG     1      -1.911   0.371   0.179  1.00  0.00     0.119 A 
HETATM   12  C   LIG     1       1.625   2.987   0.103  1.00  0.00     0.179 C 
HETATM   13  C   LIG     1       2.907  -1.591  -0.761  1.00  0.00     0.070 C 
ENDROOT
BRANCH  10  14
HETATM   14  N   LIG     1      -2.793  -1.894   0.112  1.00  0.00    -0.322 N 
HETATM   15  C   LIG     1      -2.711  -3.279   0.132  1.00  0.00     0.256 C 
HETATM   16  O   LIG     1      -1.678  -3.940   0.074  1.00  0.00    -0.267 OA
ATOM     17  HN  LIG     1      -3.724  -1.482   0.182  1.00  0.00     0.169 HD
BRANCH  15  18
HETATM   18  C   LIG     1      -4.008  -4.006   0.251  1.00  0.00     0.038 A 
HETATM   19  C   LIG     1      -4.120  -5.162   1.054  1.00  0.00    -0.046 A 
HETATM   20  C   LIG     1      -2.981  -5.681   1.891  1.00  0.00     0.049 C 
HETATM   21  C   LIG     1      -5.330  -5.876   1.050  1.00  0.00     0.007 A 
HETATM   22  C   LIG     1      -6.413  -5.442   0.287  1.00  0.00     0.001 A 
HETATM   23  C   LIG     1      -6.305  -4.291  -0.489  1.00  0.00     0.001 A 
HETATM   24  C   LIG     1      -5.105  -3.577  -0.514  1.00  0.00     0.017 A 
ENDBRANCH  15  18
ENDBRANCH  10  14
TORSDOF 2
