REMARK  2 active torsions:
REMARK  status: ('A' for Active; 'I' for Inactive)
REMARK       I    between atoms: C_2  and  N_3 
REMARK    1  A    between atoms: C_2  and  C_13 
REMARK    2  A    between atoms: N_3  and  C_7 
ROOT
HETATM    1  C   LIG     1       1.910  -1.843   1.428  1.00  0.00     0.086 A 
HETATM    2  N   LIG     1       3.335  -3.419   2.284  1.00  0.00    -0.310 N 
ATOM      3  HN  LIG     1       3.776  -4.317   2.480  1.00  0.00     0.186 HD
HETATM    4  C   LIG     1       0.859  -1.191   0.764  1.00  0.00     0.064 A 
HETATM    5  N   LIG     1       2.325  -3.150   1.442  1.00  0.00    -0.298 N 
ATOM      6  HN  LIG     1       1.897  -3.866   0.855  1.00  0.00     0.187 HD
HETATM    7  C   LIG     1       2.801  -1.196   2.282  1.00  0.00     0.011 A 
HETATM    8  C   LIG     1       3.619  -2.224   2.800  1.00  0.00     0.120 A 
HETATM    9  C   LIG     1       0.813   0.208   0.931  1.00  0.00     0.032 A 
HETATM   10  C   LIG     1       2.711   0.193   2.454  1.00  0.00     0.015 A 
HETATM   11  C   LIG     1       1.729   0.889   1.744  1.00  0.00     0.003 A 
ENDROOT
BRANCH   4  12
HETATM   12  N   LIG     1      -0.142  -1.817  -0.021  1.00  0.00    -0.325 N 
HETATM   13  C   LIG     1      -0.225  -3.156  -0.363  1.00  0.00     0.226 C 
HETATM   14  O   LIG     1       0.613  -4.023  -0.086  1.00  0.00    -0.273 OA
ATOM     15  HN  LIG     1      -0.885  -1.213  -0.373  1.00  0.00     0.169 HD
BRANCH  13  16
HETATM   16  C   LIG     1      -1.428  -3.516  -1.210  1.00  0.00     0.082 C 
HETATM   17  C   LIG     1      -1.080  -3.368  -2.699  1.00  0.00     0.041 C 
HETATM   18  C   LIG     1      -2.153  -3.941  -3.582  1.00  0.00    -0.030 C 
HETATM   19  C   LIG     1      -3.093  -4.786  -3.131  1.00  0.00    -0.031 C 
HETATM   20  C   LIG     1      -3.145  -5.291  -1.717  1.00  0.00     0.027 C 
HETATM   21  C   LIG     1      -1.887  -4.953  -0.917  1.00  0.00     0.018 C 
ENDBRANCH  13  16
ENDBRANCH   4  12
TORSDOF 2
