REMARK  2 active torsions:
REMARK  status: ('A' for Active; 'I' for Inactive)
REMARK    1  A    between atoms: C_1  and  N_7 
REMARK    2  A    between atoms: N_7  and  C_9 
ROOT
HETATM    1  C   LIG     1       2.055  -0.332   0.283  1.00  0.00     0.146 A 
HETATM    2  N   LIG     1       1.362   0.760   0.054  1.00  0.00    -0.336 N 
ATOM      3  HN  LIG     1       1.767   1.680  -0.118  1.00  0.00     0.168 HD
HETATM    4  S   LIG     1       1.110  -1.749   0.548  1.00  0.00    -0.052 SA
HETATM    5  C   LIG     1       0.006   0.489   0.079  1.00  0.00     0.051 A 
HETATM    6  C   LIG     1      -0.332  -0.842   0.323  1.00  0.00     0.035 A 
HETATM    7  C   LIG     1      -1.029   1.425  -0.121  1.00  0.00     0.031 A 
HETATM    8  C   LIG     1      -1.669  -1.274   0.362  1.00  0.00     0.021 A 
HETATM    9  C   LIG     1      -2.677  -0.327   0.156  1.00  0.00     0.002 A 
HETATM   10  C   LIG     1      -2.364   1.008  -0.079  1.00  0.00     0.002 A 
ENDROOT
BRANCH   1  11
HETATM   11  N   LIG     1       3.409  -0.420   0.323  1.00  0.00    -0.366 N 
ATOM     12  HN  LIG     1       3.885  -1.159   0.841  1.00  0.00     0.162 HD
BRANCH  11  13
HETATM   13  C   LIG     1       4.149   0.602  -0.416  1.00  0.00     0.083 A 
HETATM   14  C   LIG     1       4.566   0.365  -1.841  1.00  0.00     0.027 A 
HETATM   15  C   LIG     1       5.600   0.402  -0.753  1.00  0.00     0.027 A 
ENDBRANCH  11  13
ENDBRANCH   1  11
TORSDOF 2
