REMARK  4 active torsions:
REMARK  status: ('A' for Active; 'I' for Inactive)
REMARK    1  A    between atoms: N_1  and  C_6 
REMARK    2  A    between atoms: C_6  and  C_9 
REMARK    3  A    between atoms: C_9  and  C_11 
REMARK    4  A    between atoms: C_9  and  O_12 
ROOT
HETATM    1  N   LIG     1       1.315  -1.137   1.186  1.00  0.00    -0.255 N 
HETATM    2  C   LIG     1       0.434  -1.321   0.120  1.00  0.00     0.273 A 
HETATM    3  N   LIG     1       0.919  -0.724   2.446  1.00  0.00    -0.306 N 
ATOM      4  HN  LIG     1       1.594  -0.644   3.206  1.00  0.00     0.186 HD
HETATM    5  C   LIG     1      -0.981  -0.987   0.355  1.00  0.00     0.045 A 
HETATM    6  C   LIG     1      -0.333  -0.441   2.636  1.00  0.00     0.119 A 
HETATM    7  C   LIG     1      -1.368  -0.548   1.613  1.00  0.00    -0.004 A 
HETATM    8  O   LIG     1       0.777  -1.747  -0.982  1.00  0.00    -0.266 OA
HETATM    9  C   LIG     1      -1.940  -1.105  -0.658  1.00  0.00     0.018 A 
HETATM   10  C   LIG     1      -2.704  -0.239   1.890  1.00  0.00     0.014 A 
HETATM   11  C   LIG     1      -3.278  -0.800  -0.394  1.00  0.00     0.001 A 
HETATM   12  C   LIG     1      -3.660  -0.371   0.879  1.00  0.00     0.001 A 
ENDROOT
BRANCH   1  13
HETATM   13  C   LIG     1       2.752  -1.416   1.007  1.00  0.00     0.189 C 
BRANCH  13  14
HETATM   14  C   LIG     1       3.127  -2.835   1.485  1.00  0.00     0.171 C 
BRANCH  14  15
HETATM   15  C   LIG     1       4.586  -3.174   1.214  1.00  0.00    -0.028 A 
HETATM   16  C   LIG     1       4.956  -3.800   0.011  1.00  0.00     0.010 A 
HETATM   17  C   LIG     1       6.296  -4.095  -0.264  1.00  0.00     0.001 A 
HETATM   18  C   LIG     1       7.288  -3.771   0.659  1.00  0.00     0.000 A 
HETATM   19  C   LIG     1       6.940  -3.154   1.858  1.00  0.00     0.001 A 
HETATM   20  C   LIG     1       5.601  -2.855   2.131  1.00  0.00     0.010 A 
ENDBRANCH  14  15
BRANCH  14  21
HETATM   21  O   LIG     1       2.864  -2.961   2.891  1.00  0.00    -0.389 OA
ATOM     22  HO  LIG     1       3.095  -3.834   3.185  1.00  0.00     0.210 HD
ENDBRANCH  14  21
ENDBRANCH  13  14
ENDBRANCH   1  13
TORSDOF 4
