REMARK  3 active torsions:
REMARK  status: ('A' for Active; 'I' for Inactive)
REMARK    1  A    between atoms: N_1  and  C_5 
REMARK    2  A    between atoms: C_5  and  C_7 
REMARK       I    between atoms: C_7  and  N_9 
REMARK    3  A    between atoms: N_9  and  C_12 
ROOT
HETATM    1  C   LIG     1       2.713  -0.914  -1.571  1.00  0.00     0.241 C 
HETATM    2  N   LIG     1       4.052  -0.544  -1.711  1.00  0.00    -0.326 N 
ATOM      3  HN  LIG     1       4.674  -0.769  -0.935  1.00  0.00     0.169 HD
HETATM    4  O   LIG     1       1.806  -0.626  -2.346  1.00  0.00    -0.271 OA
ENDROOT
BRANCH   1   5
HETATM    5  C   LIG     1       2.352  -1.622  -0.279  1.00  0.00     0.252 C 
BRANCH   5   6
HETATM    6  N   LIG     1       3.413  -2.461   0.233  1.00  0.00    -0.288 N 
HETATM    7  N   LIG     1       3.559  -3.696  -0.280  1.00  0.00    -0.303 N 
HETATM    8  C   LIG     1       4.687  -4.154   0.266  1.00  0.00     0.024 A 
ATOM      9  HN  LIG     1       2.945  -4.175  -0.939  1.00  0.00     0.186 HD
HETATM   10  C   LIG     1       5.256  -3.208   1.144  1.00  0.00     0.052 A 
HETATM   11  C   LIG     1       5.192  -5.501  -0.088  1.00  0.00     0.070 C 
HETATM   12  C   LIG     1       4.405  -2.123   1.122  1.00  0.00     0.027 A 
HETATM   13  C   LIG     1       4.495  -0.824   1.834  1.00  0.00     0.070 C 
ENDBRANCH   5   6
ENDBRANCH   1   5
BRANCH   2  14
HETATM   14  C   LIG     1       4.630   0.110  -2.818  1.00  0.00     0.035 A 
HETATM   15  C   LIG     1       3.890   0.471  -3.936  1.00  0.00     0.037 A 
HETATM   16  C   LIG     1       4.526   1.078  -4.997  1.00  0.00    -0.050 A 
HETATM   17  C   LIG     1       5.892   1.352  -4.974  1.00  0.00    -0.052 A 
HETATM   18  C   LIG     1       3.879   1.553  -6.254  1.00  0.00     0.039 C 
HETATM   19  C   LIG     1       6.650   1.029  -3.863  1.00  0.00     0.010 A 
HETATM   20  C   LIG     1       6.297   2.034  -6.243  1.00  0.00     0.039 C 
HETATM   21  C   LIG     1       6.015   0.395  -2.782  1.00  0.00     0.030 A 
HETATM   22  C   LIG     1       5.102   1.708  -7.159  1.00  0.00     0.009 C 
ENDBRANCH   2  14
TORSDOF 3
