REMARK  3 active torsions:
REMARK  status: ('A' for Active; 'I' for Inactive)
REMARK       I    between atoms: C_1  and  N_2 
REMARK    1  A    between atoms: C_1  and  C_9 
REMARK    2  A    between atoms: N_2  and  C_14 
REMARK    3  A    between atoms: C_4  and  C_14 
ROOT
HETATM    1 CL   LIG     2       2.124   1.437   1.990  1.00  0.00     0.000 Cl
ENDROOT
TORSDOF 3
