REMARK  3 active torsions:
REMARK  status: ('A' for Active; 'I' for Inactive)
REMARK    1  A    between atoms: N_1  and  C_6 
REMARK    2  A    between atoms: N_4  and  C_9 
REMARK    3  A    between atoms: C_6  and  C_9 
ROOT
HETATM    1  N   LIG     1      -3.888  -0.700   0.799  1.00  0.00    -0.379 N 
HETATM    2  C   LIG     1      -4.895  -0.754   1.758  1.00  0.00     0.036 A 
HETATM    3  C   LIG     1      -5.528   0.428   2.204  1.00  0.00    -0.031 A 
HETATM    4  C   LIG     1      -5.310  -1.954   2.355  1.00  0.00     0.030 A 
HETATM    5  C   LIG     1      -6.510   0.389   3.213  1.00  0.00     0.016 A 
HETATM    6  C   LIG     1      -6.299  -1.994   3.343  1.00  0.00     0.009 A 
HETATM    7  C   LIG     1      -6.887  -0.818   3.801  1.00  0.00    -0.061 A 
HETATM    8  C   LIG     1      -3.783   0.518  -0.011  1.00  0.00     0.123 C 
HETATM    9  C   LIG     1      -5.211   1.766   1.583  1.00  0.00     0.042 C 
HETATM   10  C   LIG     1      -3.874   1.756   0.864  1.00  0.00     0.024 C 
HETATM   11  C   LIG     1      -7.897  -0.862   4.906  1.00  0.00     0.048 C 
ENDROOT
BRANCH   1  12
HETATM   12  C   LIG     1      -3.137  -1.881   0.346  1.00  0.00     0.143 C 
BRANCH  12  13
HETATM   13  C   LIG     1      -3.684  -2.507  -0.951  1.00  0.00     0.154 C 
BRANCH  13  14
HETATM   14  N   LIG     1      -5.032  -3.039  -0.836  1.00  0.00    -0.287 N 
HETATM   15  C   LIG     1      -5.312  -4.299  -0.407  1.00  0.00     0.226 C 
HETATM   16  C   LIG     1      -6.792  -4.525  -0.484  1.00  0.00     0.112 C 
HETATM   17  O   LIG     1      -4.499  -5.150  -0.060  1.00  0.00    -0.273 OA
HETATM   18  C   LIG     1      -7.355  -3.163  -0.836  1.00  0.00     0.112 C 
HETATM   19  C   LIG     1      -6.148  -2.373  -1.246  1.00  0.00     0.226 C 
HETATM   20  O   LIG     1      -6.196  -1.323  -1.872  1.00  0.00    -0.273 OA
ENDBRANCH  13  14
ENDBRANCH  12  13
ENDBRANCH   1  12
TORSDOF 3
