REMARK  1 active torsions:
REMARK  status: ('A' for Active; 'I' for Inactive)
REMARK    1  A    between atoms: C_12  and  C_15 
ROOT
HETATM    1  N   LIG     1      -2.481  -0.398  -0.599  1.00  0.00    -0.277 N 
ATOM      2  HN  LIG     1      -3.236  -0.756  -1.184  1.00  0.00     0.173 HD
HETATM    3  C   LIG     1      -2.663   0.291   0.548  1.00  0.00     0.323 A 
HETATM    4  C   LIG     1      -1.157  -0.552  -0.871  1.00  0.00     0.254 A 
HETATM    5  C   LIG     1      -0.332   0.135   0.242  1.00  0.00     0.116 A 
HETATM    6  N   LIG     1      -1.432   0.612   1.063  1.00  0.00    -0.325 N 
ATOM      7  HN  LIG     1      -1.303   1.131   1.931  1.00  0.00     0.165 HD
HETATM    8  O   LIG     1      -3.731   0.585   1.052  1.00  0.00    -0.247 OA
HETATM    9  O   LIG     1      -0.713  -1.141  -1.846  1.00  0.00    -0.270 OA
HETATM   10  C   LIG     1       0.516  -0.874   1.018  1.00  0.00     0.042 C 
HETATM   11  C   LIG     1       0.473   1.315  -0.307  1.00  0.00     0.042 C 
HETATM   12  C   LIG     1       2.602  -0.061  -0.179  1.00  0.00     0.019 C 
HETATM   13  C   LIG     1       1.745   0.884  -1.037  1.00  0.00     0.012 C 
HETATM   14  C   LIG     1       1.789  -1.283   0.276  1.00  0.00     0.012 C 
ENDROOT
BRANCH  12  15
HETATM   15  C   LIG     1       3.876  -0.462  -0.901  1.00  0.00    -0.054 A 
HETATM   16  C   LIG     1       5.121  -0.052  -0.400  1.00  0.00     0.007 A 
HETATM   17  C   LIG     1       6.304  -0.406  -1.054  1.00  0.00     0.001 A 
HETATM   18  C   LIG     1       6.258  -1.172  -2.216  1.00  0.00     0.000 A 
HETATM   19  C   LIG     1       5.030  -1.584  -2.726  1.00  0.00     0.001 A 
HETATM   20  C   LIG     1       3.846  -1.231  -2.075  1.00  0.00     0.007 A 
ENDBRANCH  12  15
TORSDOF 1
