REMARK  0 active torsions:
REMARK  status: ('A' for Active; 'I' for Inactive)
ROOT
HETATM    1  N   LIG     1      -0.279  -0.636   0.000  1.00  0.00    -0.250 N 
HETATM    2  C   LIG     1      -0.232   0.761   0.001  1.00  0.00     0.128 A 
HETATM    3  N   LIG     1      -1.554  -1.096   0.000  1.00  0.00    -0.297 N 
ATOM      4  HN  LIG     1      -1.865  -2.067  -0.001  1.00  0.00     0.187 HD
HETATM    5  C   LIG     1      -1.540   1.183   0.001  1.00  0.00     0.076 A 
HETATM    6  N   LIG     1       0.948   1.454   0.002  1.00  0.00    -0.349 N 
ATOM      7  HN  LIG     1       0.981   2.473   0.003  1.00  0.00     0.166 HD
HETATM    8  C   LIG     1       0.892  -1.384  -0.001  1.00  0.00     0.138 A 
HETATM    9  C   LIG     1      -2.314   0.004   0.001  1.00  0.00     0.026 A 
HETATM   10  C   LIG     1       2.082  -0.771  -0.001  1.00  0.00     0.043 A 
HETATM   11  C   LIG     1       2.025   0.724   0.001  1.00  0.00     0.110 A 
HETATM   12 BR   LIG     1       3.721  -1.624  -0.004  1.00  0.00    -0.048 Br
HETATM   13  C   LIG     1      -3.794  -0.098   0.002  1.00  0.00     0.070 C 
ENDROOT
TORSDOF 0
