REMARK  3 active torsions:
REMARK  status: ('A' for Active; 'I' for Inactive)
REMARK    1  A    between atoms: C_1  and  C_8 
REMARK    2  A    between atoms: N_4  and  C_8 
REMARK    3  A    between atoms: N_4  and  C_7 
ROOT
HETATM    1 CL   LIG     2       3.806   0.845  -1.018  1.00  0.00     0.000 Cl
ENDROOT
TORSDOF 3
