REMARK  2 active torsions:
REMARK  status: ('A' for Active; 'I' for Inactive)
REMARK    1  A    between atoms: C_1  and  C_8 
REMARK    2  A    between atoms: C_2  and  C_8 
REMARK       I    between atoms: C_2  and  N_3 
REMARK       I    between atoms: N_4  and  C_9 
ROOT
HETATM    1  C   LIG     1      -3.629  -2.218   0.672  1.00  0.00     0.224 C 
HETATM    2  N   LIG     1      -4.813  -2.600   0.034  1.00  0.00    -0.349 N 
HETATM    3  N   LIG     1      -5.672  -5.317   0.256  1.00  0.00    -0.349 N 
HETATM    4  C   LIG     1      -5.856  -6.685   0.464  1.00  0.00     0.215 C 
HETATM    5  C   LIG     1      -5.973  -2.897   0.870  1.00  0.00     0.145 C 
HETATM    6  C   LIG     1      -4.775  -3.454  -1.150  1.00  0.00     0.145 C 
HETATM    7  C   LIG     1      -5.953  -4.356   1.341  1.00  0.00     0.145 C 
HETATM    8  C   LIG     1      -4.634  -4.924  -0.716  1.00  0.00     0.145 C 
HETATM    9  O   LIG     1      -3.561  -2.111   1.899  1.00  0.00    -0.273 OA
HETATM   10  O   LIG     1      -5.232  -7.546  -0.141  1.00  0.00    -0.274 OA
HETATM   11  C   LIG     1      -6.950  -7.057   1.441  1.00  0.00     0.117 C 
ENDROOT
BRANCH   1  12
HETATM   12  C   LIG     1      -2.440  -1.863  -0.221  1.00  0.00     0.144 C 
BRANCH  12  13
HETATM   13  C   LIG     1      -1.566  -3.032  -0.556  1.00  0.00    -0.021 A 
HETATM   14  C   LIG     1      -1.268  -3.507  -1.822  1.00  0.00     0.097 A 
HETATM   15  N   LIG     1      -0.428  -4.580  -1.695  1.00  0.00    -0.365 N 
HETATM   16  C   LIG     1      -0.147  -4.807  -0.369  1.00  0.00     0.042 A 
ATOM     17  HN  LIG     1      -0.063  -5.131  -2.472  1.00  0.00     0.165 HD
HETATM   18  C   LIG     1      -0.850  -3.856   0.370  1.00  0.00    -0.001 A 
HETATM   19  C   LIG     1       0.673  -5.772   0.226  1.00  0.00     0.030 A 
HETATM   20  C   LIG     1      -0.735  -3.877   1.774  1.00  0.00     0.014 A 
HETATM   21  C   LIG     1       0.079  -4.834   2.386  1.00  0.00     0.001 A 
HETATM   22  C   LIG     1       0.775  -5.765   1.620  1.00  0.00     0.002 A 
ENDBRANCH  12  13
ENDBRANCH   1  12
TORSDOF 2
