REMARK  2 active torsions:
REMARK  status: ('A' for Active; 'I' for Inactive)
REMARK    1  A    between atoms: C_1  and  C_4 
REMARK       I    between atoms: C_4  and  N_9 
REMARK    2  A    between atoms: N_9  and  C_16 
ROOT
HETATM    1  C   LIG     1       1.853  -2.551  -1.728  1.00  0.00     0.116 C 
HETATM    2  C   LIG     1       1.034  -3.763  -1.925  1.00  0.00     0.270 C 
HETATM    3  N   LIG     1       0.042  -3.682  -2.888  1.00  0.00    -0.274 N 
HETATM    4  C   LIG     1       1.250  -1.414  -2.119  1.00  0.00     0.112 C 
HETATM    5  N   LIG     1       0.062  -1.323  -2.805  1.00  0.00    -0.351 N 
ATOM      6  HN  LIG     1      -0.379  -0.422  -2.990  1.00  0.00     0.166 HD
HETATM    7  C   LIG     1      -0.473  -2.435  -3.207  1.00  0.00     0.114 A 
HETATM    8  C   LIG     1      -0.524  -4.847  -3.388  1.00  0.00     0.102 A 
HETATM    9  O   LIG     1       1.208  -4.769  -1.220  1.00  0.00    -0.266 OA
HETATM   10  C   LIG     1      -1.707  -2.416  -4.046  1.00  0.00     0.049 A 
HETATM   11  C   LIG     1      -1.588  -4.823  -4.197  1.00  0.00     0.018 A 
HETATM   12  C   LIG     1      -2.214  -3.565  -4.514  1.00  0.00     0.005 A 
ENDROOT
BRANCH   1  13
HETATM   13  C   LIG     1       3.188  -2.490  -1.041  1.00  0.00     0.260 C 
HETATM   14  N   LIG     1       4.059  -3.608  -1.065  1.00  0.00    -0.347 N 
HETATM   15  C   LIG     1       4.047  -4.481  -2.244  1.00  0.00     0.153 C 
HETATM   16  O   LIG     1       3.511  -1.431  -0.498  1.00  0.00    -0.267 OA
BRANCH  14  17
HETATM   17  C   LIG     1       5.343  -3.495  -0.293  1.00  0.00     0.087 C 
HETATM   18  C   LIG     1       6.278  -4.731  -0.368  1.00  0.00     0.025 C 
HETATM   19  C   LIG     1       5.666  -5.959   0.314  1.00  0.00     0.002 C 
HETATM   20  C   LIG     1       5.366  -5.680   1.781  1.00  0.00     0.000 C 
HETATM   21  C   LIG     1       4.533  -4.414   1.960  1.00  0.00     0.002 C 
HETATM   22  C   LIG     1       5.134  -3.219   1.219  1.00  0.00     0.025 C 
ENDBRANCH  14  17
ENDBRANCH   1  13
TORSDOF 2
