REMARK  3 active torsions:
REMARK  status: ('A' for Active; 'I' for Inactive)
REMARK    1  A    between atoms: C_3  and  N_6 
REMARK       I    between atoms: N_6  and  C_8 
REMARK    2  A    between atoms: C_8  and  C_11 
REMARK    3  A    between atoms: C_11  and  C_13 
ROOT
HETATM    1  N   LIG     1      -0.504  -3.533   0.531  1.00  0.00    -0.312 N 
ATOM      2  HN  LIG     1      -1.486  -3.648   0.279  1.00  0.00     0.170 HD
HETATM    3  C   LIG     1       0.294  -3.092  -0.473  1.00  0.00     0.223 C 
HETATM    4  O   LIG     1      -0.273  -2.841  -1.548  1.00  0.00    -0.273 OA
ENDROOT
BRANCH   1   5
HETATM    5  C   LIG     1      -0.201  -3.849   1.831  1.00  0.00     0.123 A 
HETATM    6  N   LIG     1       0.985  -3.690   2.414  1.00  0.00    -0.284 N 
HETATM    7  N   LIG     1       0.795  -4.102   3.679  1.00  0.00    -0.306 N 
ATOM      8  HN  LIG     1       1.845  -3.335   1.995  1.00  0.00     0.188 HD
HETATM    9  C   LIG     1      -0.466  -4.556   3.921  1.00  0.00     0.113 A 
HETATM   10  C   LIG     1       1.886  -4.053   4.620  1.00  0.00     0.177 C 
HETATM   11  C   LIG     1      -1.148  -4.388   2.739  1.00  0.00     0.068 A 
ENDBRANCH   1   5
BRANCH   3  12
HETATM   12  C   LIG     1       1.802  -2.954  -0.311  1.00  0.00     0.108 C 
BRANCH  12  13
HETATM   13  C   LIG     1       2.463  -2.413  -1.590  1.00  0.00    -0.006 C 
HETATM   14  C   LIG     1       3.995  -2.327  -1.520  1.00  0.00     0.005 C 
HETATM   15  C   LIG     1       4.392  -1.088  -2.332  1.00  0.00     0.000 C 
HETATM   16  C   LIG     1       3.101  -0.531  -2.911  1.00  0.00     0.000 C 
HETATM   17  C   LIG     1       2.044  -0.977  -1.919  1.00  0.00     0.005 C 
ENDBRANCH  12  13
ENDBRANCH   3  12
TORSDOF 3
