REMARK  1 active torsions:
REMARK  status: ('A' for Active; 'I' for Inactive)
REMARK    1  A    between atoms: C_3  and  C_9 
ROOT
HETATM    1  N   LIG     1       4.704  -0.289   2.452  1.00  0.00    -0.197 NA
HETATM    2  C   LIG     1       4.282  -0.116   1.384  1.00  0.00     0.067 C 
HETATM    3  C   LIG     1       3.790   0.091   0.020  1.00  0.00     0.208 C 
ENDROOT
BRANCH   3   4
HETATM    4  C   LIG     1       2.313   0.196   0.022  1.00  0.00     0.138 A 
HETATM    5  N   LIG     1       1.563   1.282  -0.034  1.00  0.00    -0.337 N 
HETATM    6  C   LIG     1       0.281   0.792  -0.020  1.00  0.00     0.068 A 
ATOM      7  HN  LIG     1       1.865   2.255  -0.077  1.00  0.00     0.168 HD
HETATM    8  C   LIG     1       0.307  -0.593   0.027  1.00  0.00     0.104 A 
HETATM    9  C   LIG     1      -0.957   1.446  -0.048  1.00  0.00     0.032 A 
HETATM   10  O   LIG     1       1.614  -0.985   0.044  1.00  0.00    -0.294 OA
HETATM   11  C   LIG     1      -0.818  -1.407   0.049  1.00  0.00     0.040 A 
HETATM   12  C   LIG     1      -2.049  -0.739   0.022  1.00  0.00     0.003 A 
HETATM   13  C   LIG     1      -2.120   0.660  -0.026  1.00  0.00     0.002 A 
ENDBRANCH   3   4
TORSDOF 1
