REMARK  3 active torsions:
REMARK  status: ('A' for Active; 'I' for Inactive)
REMARK    1  A    between atoms: N_1  and  C_4 
REMARK    2  A    between atoms: N_1  and  C_7 
REMARK    3  A    between atoms: C_7  and  C_8 
ROOT
HETATM    1 CL   LIG     2       4.386   0.678  -1.415  1.00  0.00     0.000 Cl
ENDROOT
TORSDOF 3
