REMARK  2 active torsions:
REMARK  status: ('A' for Active; 'I' for Inactive)
REMARK    1  A    between atoms: C_1  and  C_3 
REMARK    2  A    between atoms: N_2  and  C_9 
REMARK       I    between atoms: C_3  and  N_8 
ROOT
HETATM    1  C   LIG     1       0.900   0.837   0.134  1.00  0.00     0.066 A 
HETATM    2  N   LIG     1       0.629  -1.258   0.845  1.00  0.00    -0.267 N 
HETATM    3  N   LIG     1       1.970  -1.107   0.688  1.00  0.00    -0.304 N 
ATOM      4  HN  LIG     1       2.703  -1.787   0.890  1.00  0.00     0.186 HD
HETATM    5  C   LIG     1      -0.038  -0.090   0.549  1.00  0.00     0.135 A 
HETATM    6  C   LIG     1       2.113   0.128   0.212  1.00  0.00     0.126 A 
ENDROOT
BRANCH   1   7
HETATM    7  C   LIG     1       0.613   2.183  -0.338  1.00  0.00     0.256 C 
HETATM    8  N   LIG     1       1.608   3.166  -0.169  1.00  0.00    -0.348 N 
HETATM    9  C   LIG     1       1.288   4.482  -0.726  1.00  0.00     0.126 C 
HETATM   10  C   LIG     1       2.445   3.187   1.035  1.00  0.00     0.126 C 
HETATM   11  C   LIG     1       2.517   5.375  -0.882  1.00  0.00     0.020 C 
HETATM   12  C   LIG     1       3.328   5.439   0.407  1.00  0.00     0.003 C 
HETATM   13  C   LIG     1       3.699   4.031   0.849  1.00  0.00     0.020 C 
HETATM   14  O   LIG     1      -0.458   2.430  -0.879  1.00  0.00    -0.267 OA
ENDBRANCH   1   7
BRANCH   2  15
HETATM   15  C   LIG     1       0.081  -2.506   1.249  1.00  0.00     0.056 A 
HETATM   16  C   LIG     1       0.940  -3.591   1.485  1.00  0.00     0.031 A 
HETATM   17  C   LIG     1       0.421  -4.830   1.861  1.00  0.00     0.002 A 
HETATM   18  C   LIG     1      -0.955  -4.994   2.006  1.00  0.00     0.000 A 
HETATM   19  C   LIG     1      -1.814  -3.921   1.774  1.00  0.00     0.002 A 
HETATM   20  C   LIG     1      -1.302  -2.677   1.396  1.00  0.00     0.031 A 
ENDBRANCH   2  15
TORSDOF 2
