REMARK  2 active torsions:
REMARK  status: ('A' for Active; 'I' for Inactive)
REMARK       I    between atoms: N_1  and  C_2 
REMARK    1  A    between atoms: C_2  and  C_4 
REMARK    2  A    between atoms: C_3  and  C_6 
ROOT
HETATM    1  N   LIG     1      -0.534  -0.280  -0.134  1.00  0.00    -0.339 N 
HETATM    2  C   LIG     1      -1.471  -1.172  -0.645  1.00  0.00     0.254 C 
HETATM    3  C   LIG     1       0.644  -0.778   0.583  1.00  0.00     0.120 C 
HETATM    4  O   LIG     1      -1.343  -2.394  -0.510  1.00  0.00    -0.267 OA
HETATM    5  C   LIG     1      -0.403   1.151  -0.404  1.00  0.00     0.127 C 
HETATM    6  C   LIG     1       1.720   0.258   0.221  1.00  0.00     0.032 C 
HETATM    7  C   LIG     1       0.942   1.564   0.177  1.00  0.00     0.022 C 
ENDROOT
BRANCH   2   8
HETATM    8  C   LIG     1      -2.655  -0.686  -1.414  1.00  0.00     0.032 A 
HETATM    9  C   LIG     1      -3.167  -1.499  -2.434  1.00  0.00     0.017 A 
HETATM   10  C   LIG     1      -4.258  -1.078  -3.203  1.00  0.00     0.007 A 
HETATM   11  C   LIG     1      -4.844   0.172  -2.975  1.00  0.00    -0.062 A 
HETATM   12  C   LIG     1      -4.376   0.954  -1.917  1.00  0.00     0.007 A 
HETATM   13  C   LIG     1      -5.994   0.641  -3.815  1.00  0.00     0.048 C 
HETATM   14  C   LIG     1      -3.314   0.512  -1.124  1.00  0.00     0.017 A 
ENDBRANCH   2   8
BRANCH   3  15
HETATM   15  C   LIG     1       0.423  -0.889   2.087  1.00  0.00    -0.033 A 
HETATM   16  C   LIG     1       1.461  -1.335   2.917  1.00  0.00     0.026 A 
HETATM   17  C   LIG     1       1.241  -1.423   4.284  1.00  0.00     0.088 A 
HETATM   18  N   LIG     1       0.074  -1.107   4.882  1.00  0.00    -0.375 N 
HETATM   19  C   LIG     1      -0.923  -0.701   4.071  1.00  0.00     0.088 A 
ATOM     20  HN  LIG     1      -0.047  -1.172   5.893  1.00  0.00     0.164 HD
HETATM   21  C   LIG     1      -0.799  -0.579   2.696  1.00  0.00     0.026 A 
ENDBRANCH   3  15
TORSDOF 2
