REMARK  2 active torsions:
REMARK  status: ('A' for Active; 'I' for Inactive)
REMARK    1  A    between atoms: C_1  and  C_7 
REMARK    2  A    between atoms: C_2  and  C_7 
REMARK       I    between atoms: C_2  and  N_6 
ROOT
HETATM    1  C   LIG     1      -1.783  -0.035   0.710  1.00  0.00    -0.021 A 
HETATM    2  N   LIG     1      -1.786   2.116   1.310  1.00  0.00    -0.365 N 
ATOM      3  HN  LIG     1      -2.033   3.105   1.350  1.00  0.00     0.165 HD
HETATM    4  C   LIG     1      -2.356   1.200   0.468  1.00  0.00     0.097 A 
HETATM    5  C   LIG     1      -0.809   0.160   1.744  1.00  0.00    -0.001 A 
HETATM    6  C   LIG     1      -0.833   1.512   2.093  1.00  0.00     0.042 A 
HETATM    7  C   LIG     1       0.106  -0.683   2.407  1.00  0.00     0.014 A 
HETATM    8  C   LIG     1       0.009   2.061   3.069  1.00  0.00     0.030 A 
HETATM    9  C   LIG     1       0.954  -0.152   3.387  1.00  0.00     0.001 A 
HETATM   10  C   LIG     1       0.905   1.201   3.710  1.00  0.00     0.002 A 
ENDROOT
BRANCH   1  11
HETATM   11  C   LIG     1      -2.083  -1.304  -0.027  1.00  0.00     0.144 C 
BRANCH  11  12
HETATM   12  C   LIG     1      -2.507  -2.462   0.868  1.00  0.00     0.224 C 
HETATM   13  N   LIG     1      -3.839  -2.544   1.265  1.00  0.00    -0.348 N 
HETATM   14  C   LIG     1      -4.208  -3.626   2.182  1.00  0.00     0.152 C 
HETATM   15  C   LIG     1      -4.756  -1.400   1.288  1.00  0.00     0.152 C 
HETATM   16  C   LIG     1      -5.692  -3.981   2.067  1.00  0.00     0.187 C 
HETATM   17  O   LIG     1      -6.516  -2.819   2.242  1.00  0.00    -0.388 OA
HETATM   18  C   LIG     1      -6.221  -1.845   1.233  1.00  0.00     0.187 C 
HETATM   19  O   LIG     1      -1.691  -3.339   1.165  1.00  0.00    -0.273 OA
ENDBRANCH  11  12
ENDBRANCH   1  11
TORSDOF 2
