REMARK  2 active torsions:
REMARK  status: ('A' for Active; 'I' for Inactive)
REMARK    1  A    between atoms: C_1  and  C_2 
REMARK       I    between atoms: C_2  and  N_3 
REMARK    2  A    between atoms: N_3  and  C_5 
ROOT
HETATM    1  C   LIG     1      -2.931  -1.086   0.503  1.00  0.00     0.281 C 
HETATM    2  N   LIG     1      -3.984  -0.988  -0.379  1.00  0.00    -0.321 N 
ATOM      3  HN  LIG     1      -3.768  -0.812  -1.360  1.00  0.00     0.169 HD
HETATM    4  O   LIG     1      -3.019  -1.334   1.708  1.00  0.00    -0.265 OA
ENDROOT
BRANCH   2   5
HETATM    5  C   LIG     1      -5.340  -1.114  -0.017  1.00  0.00     0.041 A 
HETATM    6  C   LIG     1      -6.234  -1.771  -0.881  1.00  0.00    -0.035 A 
HETATM    7  C   LIG     1      -5.785  -2.423  -2.159  1.00  0.00     0.050 C 
HETATM    8  C   LIG     1      -7.590  -1.861  -0.520  1.00  0.00     0.009 A 
HETATM    9  C   LIG     1      -8.050  -1.314   0.678  1.00  0.00     0.001 A 
HETATM   10  C   LIG     1      -7.162  -0.665   1.529  1.00  0.00     0.002 A 
HETATM   11  C   LIG     1      -5.813  -0.572   1.185  1.00  0.00     0.030 A 
ENDBRANCH   2   5
BRANCH   1  12
HETATM   12  C   LIG     1      -1.596  -0.924  -0.163  1.00  0.00     0.159 C 
HETATM   13  O   LIG     1      -1.540  -0.798  -1.547  1.00  0.00    -0.342 OA
HETATM   14  C   LIG     1      -0.272  -0.261  -1.962  1.00  0.00     0.202 C 
HETATM   15  C   LIG     1       0.886  -0.933  -1.233  1.00  0.00     0.201 C 
HETATM   16  O   LIG     1       0.787  -0.742   0.184  1.00  0.00    -0.358 OA
HETATM   17  C   LIG     1      -0.508  -0.875   0.623  1.00  0.00     0.177 C 
ENDBRANCH   1  12
TORSDOF 2
