REMARK  2 active torsions:
REMARK  status: ('A' for Active; 'I' for Inactive)
REMARK       I    between atoms: N_1  and  C_2 
REMARK    1  A    between atoms: C_2  and  C_10 
REMARK    2  A    between atoms: C_3  and  C_8 
REMARK       I    between atoms: C_8  and  N_12 
ROOT
HETATM    1  N   LIG     1      -1.325  -1.234   0.595  1.00  0.00    -0.308 N 
HETATM    2  C   LIG     1      -1.696  -2.598   0.521  1.00  0.00     0.258 C 
HETATM    3  C   LIG     1      -1.951   1.010  -0.239  1.00  0.00     0.239 C 
HETATM    4  C   LIG     1      -2.267  -0.109   0.733  1.00  0.00     0.175 C 
HETATM    5  O   LIG     1      -0.661   1.548   0.001  1.00  0.00    -0.333 OA
HETATM    6  C   LIG     1       0.046  -0.767   0.525  1.00  0.00     0.071 A 
HETATM    7  C   LIG     1       0.298   0.608   0.298  1.00  0.00     0.097 A 
HETATM    8  O   LIG     1      -0.897  -3.515   0.307  1.00  0.00    -0.267 OA
HETATM    9  C   LIG     1       1.162  -1.589   0.720  1.00  0.00     0.033 A 
HETATM   10  C   LIG     1       1.591   1.139   0.319  1.00  0.00     0.039 A 
HETATM   11  C   LIG     1       2.463  -1.056   0.727  1.00  0.00     0.002 A 
HETATM   12  C   LIG     1       2.677   0.306   0.539  1.00  0.00     0.003 A 
ENDROOT
BRANCH   2  13
HETATM   13  C   LIG     1      -3.134  -3.036   0.642  1.00  0.00     0.032 A 
HETATM   14  C   LIG     1      -3.560  -4.161  -0.090  1.00  0.00     0.017 A 
HETATM   15  C   LIG     1      -4.888  -4.605  -0.023  1.00  0.00     0.001 A 
HETATM   16  C   LIG     1      -5.808  -3.933   0.778  1.00  0.00     0.000 A 
HETATM   17  C   LIG     1      -5.391  -2.847   1.541  1.00  0.00     0.001 A 
HETATM   18  C   LIG     1      -4.055  -2.435   1.507  1.00  0.00     0.017 A 
ENDBRANCH   2  13
BRANCH   3  19
HETATM   19  C   LIG     1      -2.251   0.556  -1.682  1.00  0.00     0.248 C 
HETATM   20  O   LIG     1      -3.341   0.122  -2.013  1.00  0.00    -0.271 OA
HETATM   21  N   LIG     1      -1.197   0.716  -2.558  1.00  0.00    -0.363 N 
HETATM   22  C   LIG     1      -1.306   0.382  -3.951  1.00  0.00     0.149 C 
ATOM     23  HN  LIG     1      -0.313   1.083  -2.206  1.00  0.00     0.162 HD
ENDBRANCH   3  19
TORSDOF 2
