REMARK  3 active torsions:
REMARK  status: ('A' for Active; 'I' for Inactive)
REMARK    1  A    between atoms: C_1  and  N_2 
REMARK       I    between atoms: N_2  and  C_4 
REMARK    2  A    between atoms: C_4  and  C_10 
REMARK    3  A    between atoms: N_6  and  C_10 
ROOT
HETATM    1  C   LIG     1       2.214   3.908   1.569  1.00  0.00     0.047 A 
HETATM    2  C   LIG     1       3.094   4.841   2.180  1.00  0.00     0.017 A 
HETATM    3  N   LIG     1       5.201   5.199   3.327  1.00  0.00    -0.365 N 
ATOM      4  HN  LIG     1       6.055   4.828   3.743  1.00  0.00     0.165 HD
HETATM    5  C   LIG     1       4.306   4.381   2.746  1.00  0.00     0.044 A 
HETATM    6  C   LIG     1       2.550   2.550   1.531  1.00  0.00     0.030 A 
HETATM    7  C   LIG     1       2.878   6.237   2.212  1.00  0.00     0.017 A 
HETATM    8  C   LIG     1       3.743   2.109   2.092  1.00  0.00     0.005 A 
HETATM    9  C   LIG     1       4.940   6.523   3.345  1.00  0.00     0.088 A 
HETATM   10  C   LIG     1       4.605   3.028   2.689  1.00  0.00     0.030 A 
HETATM   11  C   LIG     1       3.807   7.087   2.800  1.00  0.00     0.018 A 
ENDROOT
BRANCH   1  12
HETATM   12  N   LIG     1       0.981   4.341   1.024  1.00  0.00    -0.325 N 
HETATM   13  C   LIG     1       0.490   3.902  -0.193  1.00  0.00     0.250 C 
HETATM   14  O   LIG     1       1.063   3.108  -0.949  1.00  0.00    -0.271 OA
ATOM     15  HN  LIG     1       0.426   5.011   1.556  1.00  0.00     0.169 HD
BRANCH  13  16
HETATM   16  C   LIG     1      -0.843   4.546  -0.579  1.00  0.00     0.374 C 
BRANCH  16  17
HETATM   17  N   LIG     1      -0.646   5.898  -1.136  1.00  0.00     0.097 N 
HETATM   18  C   LIG     1      -1.934   6.508  -1.503  1.00  0.00     0.273 C 
HETATM   19  C   LIG     1      -1.595   7.543  -2.572  1.00  0.00     0.032 C 
HETATM   20  C   LIG     1      -0.150   7.260  -2.955  1.00  0.00     0.032 C 
HETATM   21  C   LIG     1       0.120   5.876  -2.392  1.00  0.00     0.273 C 
ENDBRANCH  16  17
ENDBRANCH  13  16
ENDBRANCH   1  12
TORSDOF 3
