REMARK  3 active torsions:
REMARK  status: ('A' for Active; 'I' for Inactive)
REMARK    1  A    between atoms: C_3  and  C_10 
REMARK    2  A    between atoms: N_4  and  C_9 
REMARK    3  A    between atoms: C_5  and  C_9 
ROOT
HETATM    1  N   LIG     1       1.004  -0.620   0.008  1.00  0.00    -0.336 N 
ATOM      2  HN  LIG     1       1.819  -1.234   0.004  1.00  0.00     0.168 HD
HETATM    3  C   LIG     1       0.981   0.700  -0.025  1.00  0.00     0.157 A 
HETATM    4  C   LIG     1      -0.331  -0.979   0.050  1.00  0.00     0.052 A 
HETATM    5  O   LIG     1      -0.282   1.236  -0.021  1.00  0.00    -0.303 OA
HETATM    6  C   LIG     1      -1.107   0.157   0.032  1.00  0.00     0.171 A 
ENDROOT
BRANCH   4   7
HETATM    7  C   LIG     1      -0.766  -2.402   0.104  1.00  0.00     0.190 C 
BRANCH   7   8
HETATM    8  N   LIG     1      -0.909  -2.827   1.493  1.00  0.00    -0.319 N 
HETATM    9  C   LIG     1      -2.143  -2.650   2.114  1.00  0.00     0.247 A 
HETATM   10  C   LIG     1      -2.218  -3.064   3.543  1.00  0.00     0.074 A 
HETATM   11  O   LIG     1      -3.142  -2.186   1.566  1.00  0.00    -0.268 OA
HETATM   12  C   LIG     1      -1.138  -3.558   4.162  1.00  0.00     0.007 A 
HETATM   13  C   LIG     1       0.108  -3.699   3.452  1.00  0.00     0.017 A 
HETATM   14  C   LIG     1       0.192  -3.333   2.169  1.00  0.00     0.094 A 
ENDBRANCH   7   8
ENDBRANCH   4   7
BRANCH   3  15
HETATM   15  C   LIG     1       2.093   1.647  -0.055  1.00  0.00     0.015 A 
HETATM   16  C   LIG     1       3.414   1.174   0.000  1.00  0.00     0.017 A 
HETATM   17  C   LIG     1       4.495   2.063  -0.010  1.00  0.00     0.025 A 
HETATM   18  C   LIG     1       4.263   3.434  -0.081  1.00  0.00     0.034 A 
HETATM   19  C   LIG     1       2.961   3.924  -0.143  1.00  0.00     0.025 A 
HETATM   20 CL   LIG     1       5.590   4.529  -0.088  1.00  0.00    -0.084 Cl
HETATM   21  C   LIG     1       1.882   3.034  -0.129  1.00  0.00     0.017 A 
ENDBRANCH   3  15
TORSDOF 3
