REMARK  1 active torsions:
REMARK  status: ('A' for Active; 'I' for Inactive)
REMARK    1  A    between atoms: C_1  and  N_10 
ROOT
HETATM    1  C   LIG     1       2.607   0.341   0.240  1.00  0.00     0.103 A 
HETATM    2  N   LIG     1       1.503   1.126   0.167  1.00  0.00    -0.349 N 
ATOM      3  HN  LIG     1       1.594   2.142   0.186  1.00  0.00     0.167 HD
HETATM    4  C   LIG     1       2.495  -1.054   0.230  1.00  0.00     0.083 A 
HETATM    5  C   LIG     1       3.637  -1.909   0.347  1.00  0.00     0.102 C 
HETATM    6  C   LIG     1       0.277   0.553   0.068  1.00  0.00     0.017 A 
HETATM    7  C   LIG     1       1.225  -1.635   0.130  1.00  0.00     0.035 A 
HETATM    8  N   LIG     1       4.531  -2.648   0.418  1.00  0.00    -0.191 NA
HETATM    9  C   LIG     1       0.089  -0.827   0.058  1.00  0.00    -0.034 A 
HETATM   10  C   LIG     1      -0.892   1.503   0.039  1.00  0.00     0.057 C 
HETATM   11  C   LIG     1      -1.274  -1.449  -0.089  1.00  0.00     0.040 C 
HETATM   12  C   LIG     1      -2.178   0.859  -0.474  1.00  0.00     0.006 C 
HETATM   13  C   LIG     1      -2.413  -0.478   0.219  1.00  0.00     0.005 C 
ENDROOT
BRANCH   1  14
HETATM   14  N   LIG     1       3.874   0.966   0.333  1.00  0.00    -0.276 NA
HETATM   15  C   LIG     1       4.520   1.015  -0.983  1.00  0.00     0.118 C 
HETATM   16  C   LIG     1       3.792   2.281   0.977  1.00  0.00     0.118 C 
ENDBRANCH   1  14
TORSDOF 1
