REMARK  3 active torsions:
REMARK  status: ('A' for Active; 'I' for Inactive)
REMARK    1  A    between atoms: N_1  and  C_5 
REMARK    2  A    between atoms: C_5  and  C_7 
REMARK       I    between atoms: C_7  and  N_11 
REMARK    3  A    between atoms: C_10  and  N_11 
ROOT
HETATM    1  C   LIG     1       3.027  -1.448  -1.201  1.00  0.00     0.237 C 
HETATM    2  N   LIG     1       4.053  -0.544  -1.409  1.00  0.00    -0.351 N 
ATOM      3  HN  LIG     1       4.266   0.130  -0.674  1.00  0.00     0.163 HD
HETATM    4  O   LIG     1       2.730  -2.315  -2.013  1.00  0.00    -0.272 OA
ENDROOT
BRANCH   2   5
HETATM    5  C   LIG     1       4.845  -0.514  -2.637  1.00  0.00     0.122 C 
HETATM    6  C   LIG     1       5.370   0.879  -2.900  1.00  0.00    -0.002 A 
HETATM    7  C   LIG     1       6.713   1.200  -2.662  1.00  0.00     0.077 A 
HETATM    8  C   LIG     1       4.521   1.868  -3.421  1.00  0.00     0.012 A 
HETATM    9  O   LIG     1       7.640   0.314  -2.183  1.00  0.00    -0.350 OA
HETATM   10  C   LIG     1       7.202   2.472  -2.964  1.00  0.00     0.037 A 
HETATM   11  C   LIG     1       7.110  -0.918  -1.691  1.00  0.00     0.178 C 
HETATM   12  C   LIG     1       6.032  -1.483  -2.602  1.00  0.00     0.057 C 
HETATM   13  C   LIG     1       6.355   3.442  -3.495  1.00  0.00     0.003 A 
HETATM   14  C   LIG     1       5.014   3.141  -3.721  1.00  0.00     0.001 A 
ENDBRANCH   2   5
BRANCH   1  15
HETATM   15  C   LIG     1       2.317  -1.327   0.134  1.00  0.00     0.251 C 
BRANCH  15  16
HETATM   16  N   LIG     1       1.227  -0.373   0.080  1.00  0.00    -0.288 N 
HETATM   17  N   LIG     1       1.493   0.921   0.364  1.00  0.00    -0.303 N 
HETATM   18  C   LIG     1       0.304   1.529   0.275  1.00  0.00     0.024 A 
ATOM     19  HN  LIG     1       2.395   1.339   0.594  1.00  0.00     0.186 HD
HETATM   20  C   LIG     1      -0.723   0.617  -0.046  1.00  0.00     0.052 A 
HETATM   21  C   LIG     1       0.180   2.985   0.516  1.00  0.00     0.070 C 
HETATM   22  C   LIG     1      -0.105  -0.610  -0.156  1.00  0.00     0.027 A 
HETATM   23  C   LIG     1      -0.679  -1.942  -0.468  1.00  0.00     0.070 C 
ENDBRANCH  15  16
ENDBRANCH   1  15
TORSDOF 3
