REMARK  3 active torsions:
REMARK  status: ('A' for Active; 'I' for Inactive)
REMARK    1  A    between atoms: N_1  and  C_6 
REMARK    2  A    between atoms: N_3  and  C_11 
REMARK    3  A    between atoms: C_6  and  C_7 
REMARK       I    between atoms: C_7  and  N_8 
ROOT
HETATM    1  N   LIG     1       1.266  -0.729   0.270  1.00  0.00    -0.289 N 
HETATM    2  C   LIG     1       0.006  -0.242  -0.145  1.00  0.00     0.330 A 
HETATM    3  N   LIG     1      -0.119   1.054   0.408  1.00  0.00    -0.298 N 
HETATM    4  C   LIG     1       1.877   0.231   1.091  1.00  0.00     0.066 A 
HETATM    5  C   LIG     1       1.016   1.328   1.185  1.00  0.00     0.066 A 
HETATM    6  O   LIG     1      -0.805  -0.827  -0.841  1.00  0.00    -0.246 OA
HETATM    7  C   LIG     1       3.088   0.201   1.751  1.00  0.00     0.032 A 
HETATM    8  C   LIG     1       1.323   2.428   1.959  1.00  0.00     0.032 A 
HETATM    9  C   LIG     1       3.424   1.317   2.526  1.00  0.00     0.002 A 
HETATM   10  C   LIG     1       2.548   2.416   2.635  1.00  0.00     0.002 A 
ENDROOT
BRANCH   1  11
HETATM   11  C   LIG     1       1.684  -2.104   0.125  1.00  0.00     0.236 C 
BRANCH  11  12
HETATM   12  C   LIG     1       1.295  -2.958   1.348  1.00  0.00     0.238 C 
HETATM   13  N   LIG     1       1.711  -4.293   1.356  1.00  0.00    -0.351 N 
HETATM   14  C   LIG     1       1.397  -5.109   2.529  1.00  0.00     0.126 C 
HETATM   15  C   LIG     1       2.149  -5.042   0.178  1.00  0.00     0.126 C 
HETATM   16  C   LIG     1       2.575  -6.002   2.907  1.00  0.00     0.020 C 
HETATM   17  C   LIG     1       3.044  -6.835   1.717  1.00  0.00     0.003 C 
HETATM   18  C   LIG     1       3.336  -5.944   0.511  1.00  0.00     0.020 C 
HETATM   19  O   LIG     1       0.690  -2.476   2.309  1.00  0.00    -0.272 OA
ENDBRANCH  11  12
ENDBRANCH   1  11
BRANCH   3  20
HETATM   20  C   LIG     1      -1.288   1.892   0.308  1.00  0.00     0.130 C 
HETATM   21  C   LIG     1      -2.284   1.646   1.430  1.00  0.00     0.027 C 
ENDBRANCH   3  20
TORSDOF 3
