REMARK  2 active torsions:
REMARK  status: ('A' for Active; 'I' for Inactive)
REMARK    1  A    between atoms: C_1  and  C_2 
REMARK       I    between atoms: C_2  and  N_3 
REMARK    2  A    between atoms: C_4  and  O_12 
ROOT
HETATM    1  C   LIG     1      -2.387   0.452  -1.445  1.00  0.00     0.065 A 
HETATM    2  C   LIG     1      -2.421   1.823  -1.158  1.00  0.00     0.081 A 
HETATM    3  C   LIG     1      -1.960   0.027  -2.713  1.00  0.00     0.026 A 
HETATM    4  C   LIG     1      -2.107   2.758  -2.140  1.00  0.00     0.038 A 
HETATM    5  C   LIG     1      -1.660   0.962  -3.714  1.00  0.00    -0.061 A 
HETATM    6  C   LIG     1      -1.729   2.329  -3.414  1.00  0.00     0.009 A 
HETATM    7  C   LIG     1      -1.212   0.509  -5.073  1.00  0.00     0.048 C 
ENDROOT
BRANCH   1   8
HETATM    8  C   LIG     1      -2.723  -0.524  -0.377  1.00  0.00     0.256 C 
HETATM    9  N   LIG     1      -3.386  -1.716  -0.692  1.00  0.00    -0.348 N 
HETATM   10  C   LIG     1      -3.562  -2.671   0.401  1.00  0.00     0.126 C 
HETATM   11  C   LIG     1      -4.425  -1.775  -1.724  1.00  0.00     0.126 C 
HETATM   12  C   LIG     1      -3.704  -4.100  -0.116  1.00  0.00     0.024 C 
HETATM   13  C   LIG     1      -4.801  -4.210  -1.184  1.00  0.00    -0.015 C 
HETATM   14  C   LIG     1      -4.554  -3.183  -2.297  1.00  0.00     0.024 C 
HETATM   15  C   LIG     1      -4.865  -5.625  -1.751  1.00  0.00     0.010 C 
HETATM   16  O   LIG     1      -2.389  -0.226   0.771  1.00  0.00    -0.267 OA
ENDBRANCH   1   8
BRANCH   2  17
HETATM   17  O   LIG     1      -2.743   2.316   0.079  1.00  0.00    -0.360 OA
ATOM     18  HO  LIG     1      -2.766   3.246   0.274  1.00  0.00     0.217 HD
ENDBRANCH   2  17
TORSDOF 2
