REMARK  2 active torsions:
REMARK  status: ('A' for Active; 'I' for Inactive)
REMARK    1  A    between atoms: C_1  and  N_6 
REMARK       I    between atoms: N_6  and  C_10 
REMARK    2  A    between atoms: C_10  and  C_13 
ROOT
HETATM    1  C   LIG     1      -1.450   1.359  -0.455  1.00  0.00     0.685 A 
HETATM    2  N   LIG     1      -1.052   0.145  -0.167  1.00  0.00    -0.189 N 
ATOM      3  HN  LIG     1      -1.634  -0.675   0.005  1.00  0.00     0.184 HD
HETATM    4  N   LIG     1      -0.394   2.233  -0.523  1.00  0.00    -0.189 N 
ATOM      5  HN  LIG     1      -0.455   3.232  -0.718  1.00  0.00     0.184 HD
HETATM    6  C   LIG     1       0.322   0.215  -0.147  1.00  0.00     0.076 A 
HETATM    7  C   LIG     1       0.757   1.529  -0.284  1.00  0.00     0.076 A 
HETATM    8  C   LIG     1       1.271  -0.808  -0.018  1.00  0.00     0.032 A 
HETATM    9  C   LIG     1       2.099   1.906  -0.208  1.00  0.00     0.032 A 
HETATM   10  C   LIG     1       3.030   0.873  -0.049  1.00  0.00     0.002 A 
HETATM   11  C   LIG     1       2.629  -0.464   0.018  1.00  0.00     0.002 A 
ENDROOT
BRANCH   1  12
HETATM   12  N   LIG     1      -2.758   1.721  -0.649  1.00  0.00    -0.160 N 
HETATM   13  C   LIG     1      -3.091   2.744  -1.507  1.00  0.00     0.235 C 
HETATM   14  O   LIG     1      -2.271   3.414  -2.147  1.00  0.00    -0.273 OA
ATOM     15  HN  LIG     1      -3.496   1.224  -0.150  1.00  0.00     0.187 HD
BRANCH  13  16
HETATM   16  C   LIG     1      -4.582   2.996  -1.569  1.00  0.00     0.099 C 
HETATM   17  C   LIG     1      -4.953   4.034  -2.614  1.00  0.00     0.014 C 
ENDBRANCH  13  16
ENDBRANCH   1  12
TORSDOF 2
