REMARK  2 active torsions:
REMARK  status: ('A' for Active; 'I' for Inactive)
REMARK    1  A    between atoms: C_1  and  C_3 
REMARK    2  A    between atoms: C_3  and  O_12 
ROOT
HETATM    1  C   LIG     1      -2.267   0.619  -0.184  1.00  0.00     0.114 C 
HETATM    2  C   LIG     1       0.180   0.712   0.305  1.00  0.00    -0.022 A 
HETATM    3  O   LIG     1      -0.971  -1.438   0.277  1.00  0.00    -0.350 OA
HETATM    4  C   LIG     1      -1.107   1.487   0.288  1.00  0.00     0.058 C 
HETATM    5  C   LIG     1       0.171  -0.686   0.306  1.00  0.00     0.075 A 
HETATM    6  C   LIG     1      -2.190  -0.729   0.520  1.00  0.00     0.190 C 
HETATM    7  C   LIG     1       1.408   1.390   0.318  1.00  0.00     0.033 A 
HETATM    8  C   LIG     1       1.370  -1.399   0.281  1.00  0.00     0.039 A 
HETATM    9  C   LIG     1       2.603   0.672   0.298  1.00  0.00     0.034 A 
HETATM   10  C   LIG     1       2.590  -0.720   0.276  1.00  0.00     0.026 A 
HETATM   11 CL   LIG     1       4.105   1.513   0.289  1.00  0.00    -0.084 Cl
ENDROOT
BRANCH   1  12
HETATM   12  C   LIG     1      -2.276   0.440  -1.691  1.00  0.00     0.265 C 
HETATM   13  O   LIG     1      -1.482   0.945  -2.472  1.00  0.00    -0.265 OA
BRANCH  12  14
HETATM   14  O   LIG     1      -3.358  -0.305  -2.062  1.00  0.00    -0.326 OA
HETATM   15  C   LIG     1      -3.456  -0.540  -3.467  1.00  0.00     0.213 C 
ENDBRANCH  12  14
ENDBRANCH   1  12
TORSDOF 2
