REMARK  3 active torsions:
REMARK  status: ('A' for Active; 'I' for Inactive)
REMARK       I    between atoms: C_1  and  N_2 
REMARK    1  A    between atoms: C_1  and  C_8 
REMARK    2  A    between atoms: N_2  and  C_4 
REMARK    3  A    between atoms: C_8  and  C_11 
ROOT
HETATM    1  C   LIG     1       3.182   0.118   1.613  1.00  0.00     0.222 C 
HETATM    2  N   LIG     1       2.329   0.353   2.684  1.00  0.00    -0.326 N 
ATOM      3  HN  LIG     1       1.364   0.634   2.510  1.00  0.00     0.169 HD
HETATM    4  O   LIG     1       4.344  -0.239   1.711  1.00  0.00    -0.273 OA
ENDROOT
BRANCH   2   5
HETATM    5  C   LIG     1       2.787   0.206   4.012  1.00  0.00     0.056 A 
HETATM    6  C   LIG     1       2.053  -0.561   4.926  1.00  0.00     0.060 A 
HETATM    7 CL   LIG     1       0.590  -1.352   4.452  1.00  0.00    -0.082 Cl
HETATM    8  C   LIG     1       2.539  -0.764   6.218  1.00  0.00     0.026 A 
HETATM    9  C   LIG     1       3.731  -0.158   6.619  1.00  0.00     0.002 A 
HETATM   10  C   LIG     1       4.443   0.643   5.726  1.00  0.00     0.002 A 
HETATM   11  C   LIG     1       3.977   0.816   4.423  1.00  0.00     0.031 A 
ENDBRANCH   2   5
BRANCH   1  12
HETATM   12  C   LIG     1       2.484   0.274   0.276  1.00  0.00     0.111 C 
BRANCH  12  13
HETATM   13  C   LIG     1       3.495   0.437  -0.859  1.00  0.00     0.017 C 
HETATM   14  C   LIG     1       2.823   0.597  -2.190  1.00  0.00    -0.026 C 
HETATM   15  C   LIG     1       3.323   1.623  -2.885  1.00  0.00    -0.030 C 
HETATM   16  C   LIG     1       4.417   2.319  -2.149  1.00  0.00     0.027 C 
HETATM   17  C   LIG     1       4.320   1.733  -0.742  1.00  0.00     0.012 C 
ENDBRANCH  12  13
ENDBRANCH   1  12
TORSDOF 3
