REMARK  2 active torsions:
REMARK  status: ('A' for Active; 'I' for Inactive)
REMARK    1  A    between atoms: C_1  and  C_2 
REMARK       I    between atoms: C_2  and  N_6 
REMARK    2  A    between atoms: N_6  and  C_10 
ROOT
HETATM    1  C   LIG     1      -2.455  -0.565  -0.193  1.00  0.00     0.102 A 
HETATM    2  N   LIG     1      -1.291   0.089  -0.542  1.00  0.00    -0.351 N 
ATOM      3  HN  LIG     1      -1.212   0.757  -1.309  1.00  0.00     0.166 HD
HETATM    4  C   LIG     1      -2.147  -1.330   0.920  1.00  0.00     0.049 A 
HETATM    5  C   LIG     1      -0.251  -0.278   0.281  1.00  0.00     0.043 A 
HETATM    6  C   LIG     1      -0.765  -1.185   1.205  1.00  0.00    -0.007 A 
HETATM    7  C   LIG     1       1.089   0.130   0.294  1.00  0.00     0.030 A 
HETATM    8  C   LIG     1       0.092  -1.727   2.181  1.00  0.00     0.014 A 
HETATM    9  C   LIG     1       1.920  -0.412   1.281  1.00  0.00     0.002 A 
HETATM   10  C   LIG     1       1.433  -1.332   2.208  1.00  0.00     0.001 A 
ENDROOT
BRANCH   1  11
HETATM   11  C   LIG     1      -3.711  -0.330  -0.882  1.00  0.00     0.270 C 
HETATM   12  N   LIG     1      -4.653  -1.367  -0.928  1.00  0.00    -0.346 N 
HETATM   13  C   LIG     1      -4.266  -2.769  -0.804  1.00  0.00     0.153 C 
HETATM   14  O   LIG     1      -3.932   0.764  -1.408  1.00  0.00    -0.266 OA
BRANCH  12  15
HETATM   15  C   LIG     1      -5.998  -1.056  -1.423  1.00  0.00     0.087 C 
HETATM   16  C   LIG     1      -7.134  -1.922  -0.841  1.00  0.00     0.025 C 
HETATM   17  C   LIG     1      -7.879  -2.501  -2.041  1.00  0.00     0.002 C 
HETATM   18  C   LIG     1      -7.573  -1.543  -3.180  1.00  0.00     0.002 C 
HETATM   19  C   LIG     1      -6.112  -1.191  -2.949  1.00  0.00     0.025 C 
ENDBRANCH  12  15
ENDBRANCH   1  11
TORSDOF 2
