REMARK  3 active torsions:
REMARK  status: ('A' for Active; 'I' for Inactive)
REMARK    1  A    between atoms: C_1  and  C_2 
REMARK       I    between atoms: C_2  and  N_4 
REMARK    2  A    between atoms: N_4  and  C_9 
REMARK    3  A    between atoms: C_9  and  C_10 
ROOT
HETATM    1  C   LIG     1      -1.673  -3.033  -0.120  1.00  0.00     0.270 C 
HETATM    2  N   LIG     1      -0.614  -3.840  -0.562  1.00  0.00    -0.347 N 
HETATM    3  O   LIG     1      -2.003  -2.033  -0.767  1.00  0.00    -0.266 OA
HETATM    4  C   LIG     1      -0.133  -5.042   0.106  1.00  0.00     0.153 C 
ENDROOT
BRANCH   2   5
HETATM    5  C   LIG     1       0.176  -3.377  -1.703  1.00  0.00     0.164 C 
BRANCH   5   6
HETATM    6  C   LIG     1       0.148  -4.327  -2.884  1.00  0.00    -0.040 A 
HETATM    7  C   LIG     1       1.343  -4.895  -3.360  1.00  0.00     0.012 A 
HETATM    8  C   LIG     1       1.335  -5.740  -4.470  1.00  0.00     0.043 A 
HETATM    9  C   LIG     1       0.134  -6.019  -5.109  1.00  0.00     0.116 A 
HETATM   10  C   LIG     1      -1.061  -5.476  -4.653  1.00  0.00     0.043 A 
HETATM   11  F   LIG     1       0.131  -6.817  -6.186  1.00  0.00    -0.206 F 
HETATM   12  C   LIG     1      -1.056  -4.631  -3.540  1.00  0.00     0.012 A 
ENDBRANCH   5   6
ENDBRANCH   2   5
BRANCH   1  13
HETATM   13  C   LIG     1      -2.409  -3.395   1.089  1.00  0.00     0.102 C 
HETATM   14  N   LIG     1      -3.755  -3.125   1.296  1.00  0.00    -0.357 N 
HETATM   15  C   LIG     1      -4.176  -3.680   2.478  1.00  0.00     0.091 C 
HETATM   16  C   LIG     1      -4.626  -2.364   0.421  1.00  0.00     0.156 C 
HETATM   17  C   LIG     1      -3.081  -4.206   3.115  1.00  0.00     0.020 C 
HETATM   18  C   LIG     1      -1.968  -3.968   2.279  1.00  0.00     0.037 C 
ENDBRANCH   1  13
TORSDOF 3
