REMARK  3 active torsions:
REMARK  status: ('A' for Active; 'I' for Inactive)
REMARK    1  A    between atoms: C_1  and  C_10 
REMARK    2  A    between atoms: S_2  and  C_10 
REMARK    3  A    between atoms: S_2  and  C_5 
ROOT
HETATM    1  C   LIG     1      -1.220  -0.654  -3.729  1.00  0.00     0.140 C 
HETATM    2  C   LIG     1      -1.449  -2.031  -3.127  1.00  0.00     0.117 C 
HETATM    3  O   LIG     1      -0.148  -0.360  -4.258  1.00  0.00    -0.297 OA
HETATM    4  C   LIG     1      -2.313   0.378  -3.538  1.00  0.00     0.079 C 
HETATM    5  C   LIG     1      -2.840  -2.535  -3.526  1.00  0.00     0.023 C 
HETATM    6  C   LIG     1      -3.674  -0.188  -3.914  1.00  0.00     0.007 C 
HETATM    7  C   LIG     1      -3.955  -1.528  -3.238  1.00  0.00     0.002 C 
ENDROOT
BRANCH   2   8
HETATM    8  S   LIG     1      -1.255  -1.970  -1.306  1.00  0.00    -0.150 SA
BRANCH   8   9
HETATM    9  C   LIG     1       0.478  -1.399  -1.201  1.00  0.00     0.139 C 
BRANCH   9  10
HETATM   10  C   LIG     1       0.880  -1.223   0.219  1.00  0.00     0.061 A 
HETATM   11  O   LIG     1       1.270   0.033   0.588  1.00  0.00    -0.326 OA
HETATM   12  C   LIG     1       1.595  -0.020   1.904  1.00  0.00     0.142 A 
HETATM   13  C   LIG     1       1.424  -1.294   2.392  1.00  0.00     0.027 A 
HETATM   14  C   LIG     1       0.967  -2.075   1.303  1.00  0.00     0.035 A 
ENDBRANCH   9  10
ENDBRANCH   8   9
ENDBRANCH   2   8
TORSDOF 3
