REMARK  2 active torsions:
REMARK  status: ('A' for Active; 'I' for Inactive)
REMARK    1  A    between atoms: C_1  and  C_3 
REMARK       I    between atoms: C_3  and  N_5 
REMARK    2  A    between atoms: N_5  and  C_9 
ROOT
HETATM    1  C   LIG     1      -0.378  -1.937  -0.109  1.00  0.00     0.274 C 
HETATM    2  N   LIG     1       0.329  -2.942  -0.737  1.00  0.00    -0.308 N 
ATOM      3  HN  LIG     1       1.274  -2.719  -1.051  1.00  0.00     0.170 HD
HETATM    4  O   LIG     1      -1.513  -2.049   0.337  1.00  0.00    -0.266 OA
ENDROOT
BRANCH   2   5
HETATM    5  C   LIG     1      -0.135  -4.239  -0.981  1.00  0.00     0.108 A 
HETATM    6  N   LIG     1      -1.367  -4.615  -0.603  1.00  0.00    -0.346 N 
HETATM    7  C   LIG     1      -1.780  -5.871  -0.880  1.00  0.00     0.007 A 
ATOM      8  HN  LIG     1      -1.981  -3.963  -0.115  1.00  0.00     0.167 HD
HETATM    9  C   LIG     1      -0.981  -6.788  -1.551  1.00  0.00     0.025 A 
HETATM   10  C   LIG     1      -3.169  -6.236  -0.454  1.00  0.00     0.068 C 
HETATM   11  C   LIG     1       0.297  -6.399  -1.931  1.00  0.00     0.006 A 
HETATM   12  C   LIG     1       0.729  -5.108  -1.640  1.00  0.00     0.049 A 
ENDBRANCH   2   5
BRANCH   1  13
HETATM   13  C   LIG     1       0.362  -0.671  -0.016  1.00  0.00     0.103 A 
HETATM   14  N   LIG     1      -0.152   0.495   0.546  1.00  0.00    -0.351 N 
HETATM   15  C   LIG     1       0.783   1.509   0.482  1.00  0.00     0.008 A 
HETATM   16  C   LIG     1      -1.484   0.616   1.110  1.00  0.00     0.156 C 
HETATM   17  C   LIG     1       1.907   0.998  -0.128  1.00  0.00     0.027 A 
HETATM   18  C   LIG     1       0.552   2.884   0.998  1.00  0.00     0.068 C 
HETATM   19  C   LIG     1       1.651  -0.355  -0.433  1.00  0.00     0.037 A 
ENDBRANCH   1  13
TORSDOF 2
