REMARK  2 active torsions:
REMARK  status: ('A' for Active; 'I' for Inactive)
REMARK    1  A    between atoms: C_1  and  C_4 
REMARK       I    between atoms: C_1  and  N_5 
REMARK    2  A    between atoms: N_5  and  C_11 
ROOT
HETATM    1  N   LIG     1      -1.031   3.251   3.284  1.00  0.00    -0.405 N 
ATOM      2  HN  LIG     1      -1.361   4.052   3.823  1.00  0.00     0.154 HD
HETATM    3  C   LIG     1      -1.344   1.873   3.708  1.00  0.00     0.021 C 
HETATM    4  C   LIG     1      -0.231   3.441   2.063  1.00  0.00     0.021 C 
HETATM    5  C   LIG     1       0.664   1.014   2.321  1.00  0.00     0.089 C 
HETATM    6  C   LIG     1       0.967   2.471   1.969  1.00  0.00     0.055 C 
HETATM    7  C   LIG     1      -0.122   0.936   3.632  1.00  0.00     0.055 C 
HETATM    8  C   LIG     1      -1.118   3.420   0.806  1.00  0.00     0.037 C 
HETATM    9  C   LIG     1      -1.776   1.973   5.194  1.00  0.00     0.037 C 
HETATM   10  C   LIG     1      -2.555   1.297   2.954  1.00  0.00     0.037 C 
HETATM   11  C   LIG     1       0.347   4.879   2.138  1.00  0.00     0.037 C 
ENDROOT
BRANCH   5  12
HETATM   12  N   LIG     1       0.055   0.288   1.219  1.00  0.00    -0.356 N 
HETATM   13  C   LIG     1       0.167  -1.073   1.074  1.00  0.00     0.222 C 
HETATM   14  O   LIG     1       0.793  -1.805   1.825  1.00  0.00    -0.273 OA
ATOM     15  HN  LIG     1      -0.478   0.811   0.524  1.00  0.00     0.162 HD
BRANCH  13  16
HETATM   16  C   LIG     1      -0.528  -1.601  -0.136  1.00  0.00     0.078 A 
HETATM   17  C   LIG     1      -0.735  -3.085  -0.324  1.00  0.00     0.015 A 
HETATM   18  C   LIG     1       0.264  -2.358  -1.177  1.00  0.00     0.015 A 
ENDBRANCH  13  16
ENDBRANCH   5  12
TORSDOF 2
