REMARK  3 active torsions:
REMARK  status: ('A' for Active; 'I' for Inactive)
REMARK       I    between atoms: N_1  and  C_2 
REMARK    1  A    between atoms: C_2  and  C_8 
REMARK    2  A    between atoms: C_8  and  C_12 
REMARK    3  A    between atoms: C_11  and  C_12 
ROOT
HETATM    1  N   LIG     1      -1.003   0.881   0.604  1.00  0.00    -0.348 N 
HETATM    2  C   LIG     1      -2.259   1.210   0.118  1.00  0.00     0.220 C 
HETATM    3  C   LIG     1       0.109   1.716   0.147  1.00  0.00     0.164 C 
HETATM    4  C   LIG     1       1.484   1.135   0.392  1.00  0.00    -0.034 A 
HETATM    5  C   LIG     1      -0.723   0.014   1.746  1.00  0.00     0.130 C 
HETATM    6  C   LIG     1       1.657  -0.119   1.005  1.00  0.00    -0.049 A 
HETATM    7  O   LIG     1      -2.409   2.149  -0.660  1.00  0.00    -0.273 OA
HETATM    8  C   LIG     1       0.450  -0.915   1.431  1.00  0.00     0.059 C 
HETATM    9  C   LIG     1       2.616   1.869   0.004  1.00  0.00     0.009 A 
HETATM   10  C   LIG     1       2.948  -0.634   1.186  1.00  0.00     0.008 A 
HETATM   11  C   LIG     1       3.898   1.360   0.212  1.00  0.00     0.001 A 
HETATM   12  C   LIG     1       4.063   0.108   0.797  1.00  0.00     0.001 A 
ENDROOT
BRANCH   2  13
HETATM   13  C   LIG     1      -3.446   0.347   0.524  1.00  0.00     0.107 C 
BRANCH  13  14
HETATM   14  C   LIG     1      -4.724   0.891  -0.125  1.00  0.00     0.047 C 
BRANCH  14  15
HETATM   15  C   LIG     1      -5.955   0.101   0.240  1.00  0.00    -0.058 A 
HETATM   16  C   LIG     1      -6.348  -0.995  -0.542  1.00  0.00     0.010 A 
HETATM   17  C   LIG     1      -7.494  -1.720  -0.212  1.00  0.00     0.043 A 
HETATM   18  C   LIG     1      -8.241  -1.350   0.900  1.00  0.00     0.116 A 
HETATM   19  C   LIG     1      -7.865  -0.270   1.689  1.00  0.00     0.043 A 
HETATM   20  F   LIG     1      -9.342  -2.045   1.215  1.00  0.00    -0.206 F 
HETATM   21  C   LIG     1      -6.720   0.456   1.361  1.00  0.00     0.010 A 
ENDBRANCH  14  15
ENDBRANCH  13  14
ENDBRANCH   2  13
TORSDOF 3
