REMARK  4 active torsions:
REMARK  status: ('A' for Active; 'I' for Inactive)
REMARK    1  A    between atoms: C_1  and  C_9 
REMARK    2  A    between atoms: C_2  and  O_16 
REMARK    3  A    between atoms: C_3  and  C_9 
REMARK       I    between atoms: C_3  and  N_4 
REMARK    4  A    between atoms: N_4  and  C_18 
ROOT
HETATM    1  C   LIG     1       0.598   0.867   0.658  1.00  0.00    -0.029 C 
HETATM    2  C   LIG     1      -1.606   0.579  -0.575  1.00  0.00     0.059 C 
HETATM    3  C   LIG     1       0.525   0.864  -1.885  1.00  0.00    -0.011 C 
HETATM    4  C   LIG     1       0.094  -1.275  -0.629  1.00  0.00    -0.011 C 
HETATM    5  C   LIG     1      -0.922   1.173   0.671  1.00  0.00     0.048 C 
HETATM    6  C   LIG     1       0.773  -0.676   0.612  1.00  0.00     0.014 C 
HETATM    7  C   LIG     1       1.207   1.460  -0.638  1.00  0.00     0.014 C 
HETATM    8  C   LIG     1      -0.977   1.185  -1.841  1.00  0.00     0.042 C 
HETATM    9  C   LIG     1      -1.405  -0.945  -0.591  1.00  0.00     0.042 C 
HETATM   10  C   LIG     1       0.719  -0.660  -1.891  1.00  0.00     0.009 C 
ENDROOT
BRANCH   1  11
HETATM   11  C   LIG     1       1.302   1.385   1.931  1.00  0.00     0.112 C 
BRANCH  11  12
HETATM   12  C   LIG     1       1.193   2.882   2.169  1.00  0.00     0.222 C 
HETATM   13  N   LIG     1       2.230   3.604   1.600  1.00  0.00    -0.327 N 
ATOM     14  HN  LIG     1       2.944   3.068   1.108  1.00  0.00     0.169 HD
HETATM   15  O   LIG     1       0.245   3.331   2.801  1.00  0.00    -0.273 OA
BRANCH  13  16
HETATM   16  C   LIG     1       2.400   5.005   1.631  1.00  0.00     0.034 A 
HETATM   17  C   LIG     1       1.524   5.871   2.284  1.00  0.00     0.030 A 
HETATM   18  C   LIG     1       1.725   7.253   2.247  1.00  0.00     0.009 A 
HETATM   19  C   LIG     1       2.803   7.797   1.547  1.00  0.00    -0.062 A 
HETATM   20  C   LIG     1       3.708   6.933   0.924  1.00  0.00     0.009 A 
HETATM   21  C   LIG     1       2.994   9.284   1.515  1.00  0.00     0.048 C 
HETATM   22  C   LIG     1       3.505   5.547   0.962  1.00  0.00     0.030 A 
ENDBRANCH  13  16
ENDBRANCH  11  12
ENDBRANCH   1  11
BRANCH   2  23
HETATM   23  O   LIG     1      -2.998   0.857  -0.550  1.00  0.00    -0.390 OA
ATOM     24  HO  LIG     1      -3.420   0.491  -1.318  1.00  0.00     0.210 HD
ENDBRANCH   2  23
TORSDOF 4
