REMARK  3 active torsions:
REMARK  status: ('A' for Active; 'I' for Inactive)
REMARK    1  A    between atoms: N_1  and  C_9 
REMARK    2  A    between atoms: C_9  and  C_15 
REMARK    3  A    between atoms: O_13  and  C_15 
ROOT
HETATM    1  N   LIG     1       2.130  -0.097  -0.191  1.00  0.00    -0.301 N 
HETATM    2  C   LIG     1       1.078  -1.006  -0.301  1.00  0.00     0.261 A 
HETATM    3  N   LIG     1       0.699   1.780  -0.081  1.00  0.00    -0.345 N 
ATOM      4  HN  LIG     1       0.576   2.791  -0.023  1.00  0.00     0.167 HD
HETATM    5  C   LIG     1       1.885   1.262  -0.117  1.00  0.00     0.082 A 
HETATM    6  C   LIG     1      -0.285  -0.450  -0.229  1.00  0.00     0.059 A 
HETATM    7  C   LIG     1      -0.410   0.930  -0.123  1.00  0.00     0.049 A 
HETATM    8  O   LIG     1       1.241  -2.221  -0.441  1.00  0.00    -0.267 OA
HETATM    9  C   LIG     1      -1.415  -1.279  -0.242  1.00  0.00     0.019 A 
HETATM   10  C   LIG     1       3.048   2.223  -0.022  1.00  0.00     0.089 C 
HETATM   11  C   LIG     1      -1.688   1.487  -0.037  1.00  0.00     0.030 A 
HETATM   12  C   LIG     1      -2.686  -0.713  -0.148  1.00  0.00     0.001 A 
HETATM   13  C   LIG     1      -2.823   0.672  -0.048  1.00  0.00     0.002 A 
ENDROOT
BRANCH   1  14
HETATM   14  C   LIG     1       3.483  -0.667  -0.183  1.00  0.00     0.159 C 
BRANCH  14  15
HETATM   15  C   LIG     1       4.078  -0.829  -1.589  1.00  0.00     0.184 C 
BRANCH  15  16
HETATM   16  O   LIG     1       3.324  -1.701  -2.422  1.00  0.00    -0.399 OA
ATOM     17  HO  LIG     1       3.692  -1.801  -3.292  1.00  0.00     0.209 HD
ENDBRANCH  15  16
ENDBRANCH  14  15
ENDBRANCH   1  14
TORSDOF 3
