REMARK  3 active torsions:
REMARK  status: ('A' for Active; 'I' for Inactive)
REMARK       I    between atoms: N_1  and  C_3 
REMARK    1  A    between atoms: C_3  and  C_7 
REMARK    2  A    between atoms: N_6  and  C_15 
REMARK    3  A    between atoms: C_7  and  C_15 
ROOT
HETATM    1  N   LIG     1      -2.308   0.571  -0.065  1.00  0.00    -0.348 N 
HETATM    2  C   LIG     1      -3.194   1.115  -0.969  1.00  0.00     0.221 C 
HETATM    3  C   LIG     1      -1.133   1.244   0.471  1.00  0.00     0.164 C 
HETATM    4  C   LIG     1       0.114   0.401   0.359  1.00  0.00    -0.034 A 
HETATM    5  C   LIG     1      -2.462  -0.813   0.380  1.00  0.00     0.130 C 
HETATM    6  C   LIG     1       0.047  -0.986   0.116  1.00  0.00    -0.049 A 
HETATM    7  O   LIG     1      -4.178   0.493  -1.374  1.00  0.00    -0.273 OA
HETATM    8  C   LIG     1      -1.287  -1.663  -0.114  1.00  0.00     0.059 C 
HETATM    9  C   LIG     1       1.364   1.013   0.534  1.00  0.00     0.009 A 
HETATM   10  C   LIG     1       1.234  -1.724   0.011  1.00  0.00     0.008 A 
HETATM   11  C   LIG     1       2.536   0.267   0.434  1.00  0.00     0.001 A 
HETATM   12  C   LIG     1       2.471  -1.098   0.170  1.00  0.00     0.001 A 
ENDROOT
BRANCH   2  13
HETATM   13  C   LIG     1      -2.926   2.524  -1.459  1.00  0.00     0.124 C 
BRANCH  13  14
HETATM   14  C   LIG     1      -4.007   2.975  -2.432  1.00  0.00     0.155 C 
BRANCH  14  15
HETATM   15  N   LIG     1      -3.748   4.306  -2.936  1.00  0.00    -0.285 N 
HETATM   16  N   LIG     1      -2.985   4.485  -4.027  1.00  0.00    -0.021 NA
HETATM   17  N   LIG     1      -2.920   5.790  -4.256  1.00  0.00    -0.294 N 
HETATM   18  C   LIG     1      -3.645   6.425  -3.287  1.00  0.00     0.123 A 
ATOM     19  HN  LIG     1      -2.417   6.240  -5.021  1.00  0.00     0.183 HD
HETATM   20  C   LIG     1      -4.179   5.494  -2.429  1.00  0.00     0.126 A 
ENDBRANCH  14  15
ENDBRANCH  13  14
ENDBRANCH   2  13
TORSDOF 3
