REMARK  3 active torsions:
REMARK  status: ('A' for Active; 'I' for Inactive)
REMARK    1  A    between atoms: C_1  and  C_2 
REMARK       I    between atoms: C_2  and  N_4 
REMARK    2  A    between atoms: N_4  and  C_11 
REMARK    3  A    between atoms: C_11  and  C_13 
ROOT
HETATM    1  C   LIG     1       1.488  -1.242   0.316  1.00  0.00     0.059 A 
HETATM    2  C   LIG     1       0.355  -0.419   0.179  1.00  0.00     0.058 A 
HETATM    3  N   LIG     1      -0.882  -0.908  -0.111  1.00  0.00    -0.364 N 
ATOM      4  HN  LIG     1      -1.022  -1.911  -0.230  1.00  0.00     0.165 HD
HETATM    5  C   LIG     1       0.542   0.974   0.352  1.00  0.00    -0.008 A 
HETATM    6  C   LIG     1       2.759  -0.692   0.578  1.00  0.00     0.019 A 
HETATM    7  C   LIG     1       2.919   0.677   0.741  1.00  0.00     0.002 A 
HETATM    8  C   LIG     1      -1.922  -0.057  -0.240  1.00  0.00     0.088 A 
HETATM    9  C   LIG     1       1.810   1.506   0.638  1.00  0.00     0.014 A 
HETATM   10  C   LIG     1      -0.567   1.824   0.230  1.00  0.00     0.015 A 
HETATM   11  C   LIG     1      -1.817   1.305  -0.077  1.00  0.00     0.018 A 
ENDROOT
BRANCH   1  12
HETATM   12  C   LIG     1       1.423  -2.740   0.239  1.00  0.00     0.254 C 
HETATM   13  N   LIG     1       0.195  -3.310   0.015  1.00  0.00    -0.354 N 
ATOM     14  HN  LIG     1      -0.607  -2.693  -0.116  1.00  0.00     0.162 HD
HETATM   15  O   LIG     1       2.436  -3.410   0.399  1.00  0.00    -0.268 OA
BRANCH  13  16
HETATM   16  C   LIG     1      -0.025  -4.741  -0.046  1.00  0.00     0.155 C 
BRANCH  16  17
HETATM   17  C   LIG     1       0.108  -5.295  -1.466  1.00  0.00     0.139 C 
HETATM   18  O   LIG     1      -0.893  -4.712  -2.328  1.00  0.00    -0.384 OA
HETATM   19  C   LIG     1      -1.202  -5.690  -3.322  1.00  0.00     0.168 C 
HETATM   20  C   LIG     1      -1.181  -7.004  -2.582  1.00  0.00     0.029 C 
HETATM   21  C   LIG     1      -0.096  -6.809  -1.544  1.00  0.00     0.035 C 
ENDBRANCH  16  17
ENDBRANCH  13  16
ENDBRANCH   1  12
TORSDOF 3
