REMARK  4 active torsions:
REMARK  status: ('A' for Active; 'I' for Inactive)
REMARK       I    between atoms: N_1  and  C_2 
REMARK    1  A    between atoms: C_2  and  C_4 
REMARK    2  A    between atoms: C_3  and  C_4 
REMARK    3  A    between atoms: C_12  and  C_18 
REMARK    4  A    between atoms: O_15  and  C_18 
ROOT
HETATM    1  N   LIG     1       0.511   1.220   0.392  1.00  0.00    -0.352 N 
HETATM    2  C   LIG     1       0.385   1.755  -0.892  1.00  0.00     0.220 C 
HETATM    3  C   LIG     1       0.440  -0.239   0.510  1.00  0.00     0.132 C 
HETATM    4  O   LIG     1       0.143   1.045  -1.863  1.00  0.00    -0.273 OA
HETATM    5  C   LIG     1      -0.203  -0.691   1.823  1.00  0.00     0.027 C 
HETATM    6  C   LIG     1       1.155   1.918   1.506  1.00  0.00     0.125 C 
HETATM    7  C   LIG     1       0.611   1.486   2.866  1.00  0.00     0.020 C 
HETATM    8  C   LIG     1       0.515  -0.031   3.009  1.00  0.00     0.010 C 
ENDROOT
BRANCH   2   9
HETATM    9  C   LIG     1       0.519   3.270  -1.035  1.00  0.00     0.108 C 
BRANCH   9  10
HETATM   10  C   LIG     1       0.339   3.731  -2.488  1.00  0.00    -0.001 C 
HETATM   11  C   LIG     1       0.395   5.262  -2.730  1.00  0.00    -0.010 C 
HETATM   12  C   LIG     1       0.660   5.310  -4.240  1.00  0.00     0.009 C 
HETATM   13  C   LIG     1       1.695   5.884  -2.194  1.00  0.00     0.005 C 
HETATM   14  C   LIG     1       1.940   4.482  -4.134  1.00  0.00    -0.014 C 
HETATM   15  C   LIG     1       1.436   3.206  -3.444  1.00  0.00     0.010 C 
HETATM   16  C   LIG     1       2.767   5.289  -3.118  1.00  0.00     0.005 C 
ENDBRANCH   9  10
ENDBRANCH   2   9
BRANCH   5  17
HETATM   17  C   LIG     1      -1.717  -0.437   1.801  1.00  0.00     0.170 C 
BRANCH  17  18
HETATM   18  O   LIG     1      -2.312  -0.866   3.021  1.00  0.00    -0.400 OA
ATOM     19  HO  LIG     1      -3.249  -0.709   3.007  1.00  0.00     0.209 HD
ENDBRANCH  17  18
ENDBRANCH   5  17
TORSDOF 4
