REMARK  3 active torsions:
REMARK  status: ('A' for Active; 'I' for Inactive)
REMARK    1  A    between atoms: C_1  and  C_3 
REMARK       I    between atoms: C_1  and  N_8 
REMARK    2  A    between atoms: N_2  and  C_3 
REMARK    3  A    between atoms: N_8  and  C_13 
ROOT
HETATM    1  C   LIG     1       1.195   0.100   0.334  1.00  0.00     0.242 C 
HETATM    2  N   LIG     1       0.606   1.178   0.959  1.00  0.00    -0.355 N 
ATOM      3  HN  LIG     1      -0.408   1.283   0.922  1.00  0.00     0.162 HD
HETATM    4  O   LIG     1       2.416  -0.076   0.344  1.00  0.00    -0.271 OA
ENDROOT
BRANCH   1   5
HETATM    5  C   LIG     1       0.236  -0.885  -0.318  1.00  0.00     0.197 C 
HETATM    6  C   LIG     1       0.961  -2.161  -0.741  1.00  0.00     0.044 C 
BRANCH   5   7
HETATM    7  N   LIG     1      -0.470  -0.267  -1.429  1.00  0.00    -0.273 N 
HETATM    8  N   LIG     1      -1.819  -0.213  -1.435  1.00  0.00    -0.292 N 
HETATM    9  C   LIG     1      -2.054   0.404  -2.597  1.00  0.00     0.198 A 
ATOM     10  HN  LIG     1      -2.482  -0.553  -0.738  1.00  0.00     0.188 HD
HETATM   11  N   LIG     1      -0.939   0.764  -3.297  1.00  0.00    -0.346 N 
HETATM   12  C   LIG     1       0.043   0.330  -2.540  1.00  0.00     0.202 A 
ATOM     13  HN  LIG     1      -0.882   1.252  -4.191  1.00  0.00     0.167 HD
ENDBRANCH   5   7
ENDBRANCH   1   5
BRANCH   2  14
HETATM   14  C   LIG     1       1.395   2.165   1.668  1.00  0.00     0.084 C 
HETATM   15  C   LIG     1       0.581   2.911   2.729  1.00  0.00     0.025 C 
HETATM   16  C   LIG     1       0.998   4.377   2.635  1.00  0.00     0.002 C 
HETATM   17  C   LIG     1       2.226   4.398   1.737  1.00  0.00     0.002 C 
HETATM   18  C   LIG     1       1.969   3.256   0.765  1.00  0.00     0.025 C 
ENDBRANCH   2  14
TORSDOF 3
