REMARK  2 active torsions:
REMARK  status: ('A' for Active; 'I' for Inactive)
REMARK    1  A    between atoms: N_1  and  C_5 
REMARK    2  A    between atoms: C_4  and  C_5 
ROOT
HETATM    1  C   LIG     1       2.959  -1.237  -1.482  1.00  0.00    -0.014 C 
HETATM    2  C   LIG     1       3.242  -2.175  -2.491  1.00  0.00     0.054 C 
HETATM    3  N   LIG     1       3.058  -3.553  -2.282  1.00  0.00    -0.102 NA
HETATM    4  C   LIG     1       3.212   0.128  -1.719  1.00  0.00     0.011 C 
HETATM    5  C   LIG     1       3.922  -1.746  -3.638  1.00  0.00     0.027 C 
HETATM    6  C   LIG     1       3.811   0.548  -2.904  1.00  0.00     0.001 C 
HETATM    7  C   LIG     1       4.188  -0.392  -3.855  1.00  0.00     0.002 C 
ENDROOT
BRANCH   1   8
HETATM    8  C   LIG     1       2.392  -1.651  -0.146  1.00  0.00     0.188 C 
BRANCH   8   9
HETATM    9  N   LIG     1       0.937  -1.707  -0.168  1.00  0.00    -0.299 N 
HETATM   10  N   LIG     1       0.299  -2.895  -0.278  1.00  0.00    -0.310 N 
HETATM   11  C   LIG     1      -0.990  -2.570  -0.144  1.00  0.00     0.108 A 
ATOM     12  HN  LIG     1       0.705  -3.819  -0.428  1.00  0.00     0.186 HD
HETATM   13  C   LIG     1      -1.185  -1.190   0.043  1.00  0.00     0.037 A 
HETATM   14  C   LIG     1       0.083  -0.655   0.026  1.00  0.00     0.112 A 
ENDBRANCH   8   9
ENDBRANCH   1   8
TORSDOF 2
