REMARK  2 active torsions:
REMARK  status: ('A' for Active; 'I' for Inactive)
REMARK    1  A    between atoms: C_4  and  C_7 
REMARK       I    between atoms: C_7  and  N_9 
REMARK    2  A    between atoms: N_9  and  C_16 
ROOT
HETATM    1  C   LIG     1      -0.296   0.006  -0.048  1.00  0.00     0.059 A 
HETATM    2  N   LIG     1      -1.555   0.517  -0.266  1.00  0.00    -0.358 N 
ATOM      3  HN  LIG     1      -1.761   1.503  -0.427  1.00  0.00     0.166 HD
HETATM    4  C   LIG     1       0.942   0.667   0.032  1.00  0.00     0.059 A 
HETATM    5  C   LIG     1      -2.494  -0.482  -0.237  1.00  0.00     0.012 A 
HETATM    6  C   LIG     1      -1.829  -1.680  -0.021  1.00  0.00    -0.027 A 
HETATM    7  C   LIG     1      -0.433  -1.372   0.094  1.00  0.00    -0.001 A 
HETATM    8  C   LIG     1       2.085  -0.127   0.223  1.00  0.00     0.019 A 
HETATM    9  C   LIG     1       0.730  -2.141   0.310  1.00  0.00     0.014 A 
HETATM   10  C   LIG     1      -2.454  -3.027   0.074  1.00  0.00     0.051 C 
HETATM   11  C   LIG     1      -3.935  -0.176  -0.427  1.00  0.00     0.068 C 
HETATM   12  C   LIG     1       1.979  -1.511   0.362  1.00  0.00     0.002 A 
ENDROOT
BRANCH   4  13
HETATM   13  C   LIG     1       0.994   2.149  -0.100  1.00  0.00     0.254 C 
HETATM   14  N   LIG     1       2.045   2.776   0.537  1.00  0.00    -0.353 N 
ATOM     15  HN  LIG     1       2.754   2.206   0.999  1.00  0.00     0.163 HD
HETATM   16  O   LIG     1       0.112   2.747  -0.707  1.00  0.00    -0.268 OA
BRANCH  14  17
HETATM   17  C   LIG     1       2.173   4.226   0.570  1.00  0.00     0.076 C 
HETATM   18  C   LIG     1       1.404   4.817   1.749  1.00  0.00     0.032 C 
HETATM   19  C   LIG     1       3.649   4.602   0.640  1.00  0.00     0.032 C 
ENDBRANCH  14  17
ENDBRANCH   4  13
TORSDOF 2
