REMARK  3 active torsions:
REMARK  status: ('A' for Active; 'I' for Inactive)
REMARK    1  A    between atoms: C_1  and  C_2 
REMARK       I    between atoms: C_2  and  N_5 
REMARK    2  A    between atoms: N_5  and  C_14 
REMARK    3  A    between atoms: C_8  and  C_14 
REMARK       I    between atoms: C_8  and  N_15 
ROOT
HETATM    1  C   LIG     1      -0.155   0.602   0.063  1.00  0.00     0.222 C 
HETATM    2  N   LIG     1       0.729   1.187   0.942  1.00  0.00    -0.352 N 
ATOM      3  HN  LIG     1       1.640   1.480   0.589  1.00  0.00     0.162 HD
HETATM    4  O   LIG     1      -1.247   0.166   0.430  1.00  0.00    -0.273 OA
ENDROOT
BRANCH   1   5
HETATM    5  C   LIG     1       0.338   0.567  -1.379  1.00  0.00     0.086 C 
HETATM    6  C   LIG     1      -0.626  -0.089  -2.402  1.00  0.00     0.021 C 
HETATM    7  C   LIG     1      -0.871  -1.534  -2.026  1.00  0.00    -0.025 C 
HETATM    8  C   LIG     1       0.339  -0.327  -3.573  1.00  0.00     0.018 C 
HETATM    9  C   LIG     1       0.277  -2.200  -2.215  1.00  0.00    -0.026 C 
HETATM   10  C   LIG     1       1.281  -1.208  -2.746  1.00  0.00     0.009 C 
HETATM   11  C   LIG     1       1.653  -0.250  -1.591  1.00  0.00     0.023 C 
ENDBRANCH   1   5
BRANCH   2  12
HETATM   12  C   LIG     1       0.429   1.410   2.357  1.00  0.00     0.225 C 
BRANCH  12  13
HETATM   13  C   LIG     1       0.825   0.246   3.275  1.00  0.00     0.234 C 
HETATM   14  O   LIG     1       1.066   0.412   4.467  1.00  0.00    -0.272 OA
HETATM   15  N   LIG     1       0.782  -0.994   2.681  1.00  0.00    -0.364 N 
HETATM   16  C   LIG     1       1.122  -2.198   3.385  1.00  0.00     0.149 C 
ATOM     17  HN  LIG     1       0.498  -1.060   1.704  1.00  0.00     0.161 HD
ENDBRANCH  12  13
ENDBRANCH   2  12
TORSDOF 3
