REMARK  2 active torsions:
REMARK  status: ('A' for Active; 'I' for Inactive)
REMARK       I    between atoms: N_1  and  C_2 
REMARK    1  A    between atoms: C_2  and  C_9 
REMARK    2  A    between atoms: C_3  and  C_4 
REMARK       I    between atoms: C_3  and  N_12 
ROOT
HETATM    1  N   LIG     1       0.700   1.038   0.325  1.00  0.00    -0.352 N 
HETATM    2  C   LIG     1       1.450   1.801  -0.579  1.00  0.00     0.224 C 
HETATM    3  C   LIG     1      -1.093  -1.209   0.236  1.00  0.00     0.081 C 
HETATM    4  C   LIG     1       1.136  -0.236   0.878  1.00  0.00     0.126 C 
HETATM    5  C   LIG     1      -0.729   1.293   0.475  1.00  0.00     0.126 C 
HETATM    6  O   LIG     1       1.001   2.863  -1.028  1.00  0.00    -0.273 OA
HETATM    7  C   LIG     1       0.435  -1.368   0.146  1.00  0.00     0.034 C 
HETATM    8  C   LIG     1      -1.529   0.193  -0.231  1.00  0.00     0.034 C 
ENDROOT
BRANCH   2   9
HETATM    9  C   LIG     1       2.846   1.242  -0.987  1.00  0.00     0.078 C 
HETATM   10  C   LIG     1       3.711   2.066  -1.985  1.00  0.00     0.014 C 
HETATM   11  C   LIG     1       4.218   0.721  -2.542  1.00  0.00     0.002 C 
HETATM   12  C   LIG     1       2.885   0.116  -2.064  1.00  0.00     0.014 C 
ENDBRANCH   2   9
BRANCH   3  13
HETATM   13  C   LIG     1      -1.776  -2.319  -0.559  1.00  0.00     0.221 C 
HETATM   14  O   LIG     1      -1.161  -3.154  -1.208  1.00  0.00    -0.273 OA
HETATM   15  N   LIG     1      -3.148  -2.339  -0.427  1.00  0.00    -0.365 N 
HETATM   16  C   LIG     1      -3.935  -3.356  -1.075  1.00  0.00     0.149 C 
ATOM     17  HN  LIG     1      -3.611  -1.625   0.136  1.00  0.00     0.161 HD
ENDBRANCH   3  13
TORSDOF 2
