REMARK  3 active torsions:
REMARK  status: ('A' for Active; 'I' for Inactive)
REMARK       I    between atoms: C_1  and  N_2 
REMARK    1  A    between atoms: C_1  and  C_4 
REMARK    2  A    between atoms: C_3  and  C_4 
REMARK    3  A    between atoms: C_5  and  C_7 
REMARK       I    between atoms: C_5  and  N_18 
ROOT
HETATM    1  C   LIG     1      -0.984   0.101   0.072  1.00  0.00     0.220 C 
HETATM    2  N   LIG     1      -1.774   1.242   0.208  1.00  0.00    -0.352 N 
HETATM    3  C   LIG     1      -1.343   4.013  -0.420  1.00  0.00     0.081 C 
HETATM    4  C   LIG     1      -2.451   1.783  -0.967  1.00  0.00     0.126 C 
HETATM    5  C   LIG     1      -1.678   2.192   1.309  1.00  0.00     0.126 C 
HETATM    6  O   LIG     1      -0.827  -0.454  -1.015  1.00  0.00    -0.273 OA
HETATM    7  C   LIG     1      -1.684   2.984  -1.516  1.00  0.00     0.034 C 
HETATM    8  C   LIG     1      -0.810   3.365   0.872  1.00  0.00     0.034 C 
ENDROOT
BRANCH   1   9
HETATM    9  C   LIG     1      -0.304  -0.432   1.336  1.00  0.00     0.108 C 
BRANCH   9  10
HETATM   10  C   LIG     1       0.013  -1.930   1.249  1.00  0.00    -0.001 C 
HETATM   11  C   LIG     1       0.737  -2.557   2.471  1.00  0.00    -0.010 C 
HETATM   12  C   LIG     1       0.488  -4.049   2.210  1.00  0.00     0.009 C 
HETATM   13  C   LIG     1      -0.050  -2.352   3.779  1.00  0.00     0.005 C 
HETATM   14  C   LIG     1      -1.031  -3.890   2.217  1.00  0.00    -0.014 C 
HETATM   15  C   LIG     1      -1.256  -2.809   1.144  1.00  0.00     0.010 C 
HETATM   16  C   LIG     1      -1.268  -3.270   3.603  1.00  0.00     0.005 C 
ENDBRANCH   9  10
ENDBRANCH   1   9
BRANCH   3  17
HETATM   17  C   LIG     1      -0.354   5.052  -0.940  1.00  0.00     0.221 C 
HETATM   18  O   LIG     1      -0.664   6.240  -1.056  1.00  0.00    -0.273 OA
HETATM   19  N   LIG     1       0.894   4.567  -1.254  1.00  0.00    -0.365 N 
HETATM   20  C   LIG     1       1.943   5.421  -1.750  1.00  0.00     0.149 C 
ATOM     21  HN  LIG     1       1.083   3.572  -1.132  1.00  0.00     0.161 HD
ENDBRANCH   3  17
TORSDOF 3
