REMARK  1 active torsions:
REMARK  status: ('A' for Active; 'I' for Inactive)
REMARK    1  A    between atoms: C_1  and  C_6 
REMARK       I    between atoms: C_6  and  N_13 
ROOT
HETATM    1  C   LIG     1       2.449   0.579  -0.061  1.00  0.00     0.054 A 
HETATM    2  N   LIG     1       1.157  -1.455  -0.009  1.00  0.00    -0.358 N 
ATOM      3  HN  LIG     1       1.119  -2.474  -0.004  1.00  0.00     0.166 HD
HETATM    4  C   LIG     1       2.357  -0.811  -0.007  1.00  0.00     0.021 A 
HETATM    5  C   LIG     1       1.269   1.327  -0.047  1.00  0.00     0.032 A 
HETATM    6  C   LIG     1       0.023  -0.733  -0.018  1.00  0.00     0.045 A 
HETATM    7  C   LIG     1       0.030   0.679  -0.029  1.00  0.00    -0.008 A 
HETATM    8  C   LIG     1      -1.199  -1.386  -0.012  1.00  0.00     0.072 A 
HETATM    9  C   LIG     1      -1.179   1.398  -0.026  1.00  0.00     0.017 A 
HETATM   10  C   LIG     1      -2.390  -0.669  -0.014  1.00  0.00     0.118 A 
HETATM   11  C   LIG     1      -2.393   0.718  -0.019  1.00  0.00     0.043 A 
HETATM   12  F   LIG     1      -3.556  -1.328  -0.009  1.00  0.00    -0.206 F 
HETATM   13  C   LIG     1       3.559  -1.704   0.080  1.00  0.00     0.069 C 
ENDROOT
BRANCH   1  14
HETATM   14  C   LIG     1       3.725   1.321  -0.102  1.00  0.00     0.251 C 
HETATM   15  O   LIG     1       3.908   2.305   0.602  1.00  0.00    -0.268 OA
HETATM   16  N   LIG     1       4.654   0.916  -1.017  1.00  0.00    -0.366 N 
ATOM     17  HN2 LIG     1       4.501   0.096  -1.604  1.00  0.00     0.159 HD
ATOM     18  HN1 LIG     1       5.535   1.429  -1.045  1.00  0.00     0.159 HD
ENDBRANCH   1  14
TORSDOF 1
