REMARK  3 active torsions:
REMARK  status: ('A' for Active; 'I' for Inactive)
REMARK    1  A    between atoms: N_3  and  C_11 
REMARK    2  A    between atoms: C_5  and  C_7 
REMARK       I    between atoms: C_5  and  N_6 
REMARK    3  A    between atoms: C_7  and  C_11 
ROOT
HETATM    1  C   LIG     1       1.616  -3.229   0.956  1.00  0.00     0.123 C 
ENDROOT
BRANCH   1   2
HETATM    2  C   LIG     1       0.252  -3.606   1.528  1.00  0.00     0.221 C 
HETATM    3  N   LIG     1      -0.413  -4.664   0.903  1.00  0.00    -0.350 N 
HETATM    4  C   LIG     1      -1.737  -5.071   1.403  1.00  0.00     0.156 C 
HETATM    5  C   LIG     1       0.011  -5.289  -0.344  1.00  0.00     0.127 C 
HETATM    6  C   LIG     1      -2.874  -4.396   0.611  1.00  0.00     0.291 C 
HETATM    7  N   LIG     1      -3.317  -5.121  -0.595  1.00  0.00     0.085 N 
HETATM    8  C   LIG     1      -2.267  -5.740  -1.409  1.00  0.00     0.273 C 
HETATM    9  C   LIG     1      -4.208  -4.285  -1.401  1.00  0.00     0.309 C 
HETATM   10  C   LIG     1      -0.927  -5.005  -1.519  1.00  0.00     0.050 C 
HETATM   11  O   LIG     1      -0.216  -3.007   2.491  1.00  0.00    -0.273 OA
ENDBRANCH   1   2
BRANCH   1  12
HETATM   12  C   LIG     1       2.276  -2.082   1.713  1.00  0.00     0.139 C 
BRANCH  12  13
HETATM   13  N   LIG     1       3.586  -1.751   1.173  1.00  0.00    -0.341 N 
HETATM   14  C   LIG     1       3.818  -0.851   0.168  1.00  0.00     0.183 A 
HETATM   15  N   LIG     1       5.097  -0.751  -0.114  1.00  0.00    -0.350 N 
HETATM   16  C   LIG     1       5.727  -1.598   0.765  1.00  0.00     0.060 A 
ATOM     17  HN  LIG     1       5.530  -0.169  -0.832  1.00  0.00     0.166 HD
HETATM   18  C   LIG     1       4.803  -2.238   1.592  1.00  0.00     0.062 A 
HETATM   19  C   LIG     1       7.096  -1.865   0.919  1.00  0.00     0.032 A 
HETATM   20  C   LIG     1       5.188  -3.143   2.588  1.00  0.00     0.032 A 
HETATM   21  C   LIG     1       6.560  -3.392   2.730  1.00  0.00     0.002 A 
HETATM   22  C   LIG     1       7.501  -2.768   1.909  1.00  0.00     0.002 A 
ENDBRANCH  12  13
ENDBRANCH   1  12
TORSDOF 3
