REMARK  3 active torsions:
REMARK  status: ('A' for Active; 'I' for Inactive)
REMARK    1  A    between atoms: C_1  and  C_6 
REMARK    2  A    between atoms: C_2  and  C_12 
REMARK    3  A    between atoms: C_3  and  C_4 
REMARK       I    between atoms: C_3  and  N_9 
ROOT
HETATM    1  C   LIG     1       5.139  -0.044  -0.404  1.00  0.00     0.031 A 
HETATM    2  C   LIG     1       2.338  -0.060  -0.276  1.00  0.00     0.018 A 
HETATM    3  C   LIG     1       4.443  -1.259  -0.354  1.00  0.00     0.018 A 
HETATM    4  C   LIG     1       4.425   1.161  -0.368  1.00  0.00     0.018 A 
HETATM    5  C   LIG     1       3.028   1.153  -0.309  1.00  0.00     0.022 A 
HETATM    6  C   LIG     1       3.045  -1.264  -0.294  1.00  0.00     0.022 A 
ENDROOT
BRANCH   2   7
HETATM    7  C   LIG     1       0.909  -0.069  -0.222  1.00  0.00    -0.061 C 
HETATM    8  C   LIG     1      -0.292  -0.077  -0.183  1.00  0.00    -0.061 C 
BRANCH   8   9
HETATM    9  C   LIG     1      -1.722  -0.085  -0.144  1.00  0.00     0.018 A 
HETATM   10  C   LIG     1      -2.415  -1.298  -0.123  1.00  0.00     0.020 A 
HETATM   11  C   LIG     1      -3.810  -1.305  -0.089  1.00  0.00     0.001 A 
HETATM   12  C   LIG     1      -4.514  -0.101  -0.075  1.00  0.00     0.000 A 
HETATM   13  C   LIG     1      -3.824   1.111  -0.095  1.00  0.00     0.001 A 
HETATM   14  C   LIG     1      -2.428   1.120  -0.130  1.00  0.00     0.020 A 
ENDBRANCH   8   9
ENDBRANCH   2   7
BRANCH   1  15
HETATM   15  C   LIG     1       6.623   0.020  -0.473  1.00  0.00     0.249 C 
HETATM   16  O   LIG     1       7.239   1.028  -0.150  1.00  0.00    -0.268 OA
HETATM   17  N   LIG     1       7.284  -1.078  -0.951  1.00  0.00    -0.366 N 
ATOM     18  HN2 LIG     1       6.771  -1.918  -1.220  1.00  0.00     0.159 HD
ATOM     19  HN1 LIG     1       8.302  -1.034  -0.998  1.00  0.00     0.159 HD
ENDBRANCH   1  15
TORSDOF 3
