REMARK  3 active torsions:
REMARK  status: ('A' for Active; 'I' for Inactive)
REMARK    1  A    between atoms: C_1  and  C_2 
REMARK       I    between atoms: C_2  and  N_6 
REMARK    2  A    between atoms: N_6  and  C_12 
REMARK    3  A    between atoms: C_8  and  C_12 
ROOT
HETATM    1  C   LIG     1      -0.966  -2.580   0.075  1.00  0.00     0.256 C 
HETATM    2  N   LIG     1       0.010  -3.571   0.246  1.00  0.00    -0.346 N 
HETATM    3  O   LIG     1      -1.992  -2.808  -0.574  1.00  0.00    -0.267 OA
HETATM    4  C   LIG     1       1.415  -3.301   0.531  1.00  0.00     0.153 C 
ENDROOT
BRANCH   1   5
HETATM    5  C   LIG     1      -0.781  -1.265   0.685  1.00  0.00     0.063 A 
HETATM    6  C   LIG     1      -1.309  -0.086   0.174  1.00  0.00     0.065 A 
HETATM    7  O   LIG     1      -0.994   0.973   0.970  1.00  0.00    -0.319 OA
HETATM    8  C   LIG     1      -2.131   0.232  -1.015  1.00  0.00     0.077 C 
HETATM    9  C   LIG     1      -0.298   0.486   2.029  1.00  0.00     0.050 A 
HETATM   10  C   LIG     1      -0.175  -0.880   1.921  1.00  0.00     0.051 A 
HETATM   11  C   LIG     1       0.141   1.473   3.034  1.00  0.00     0.076 C 
ENDBRANCH   1   5
BRANCH   2  12
HETATM   12  C   LIG     1      -0.268  -4.881  -0.352  1.00  0.00     0.190 C 
BRANCH  12  13
HETATM   13  C   LIG     1       0.343  -4.978  -1.705  1.00  0.00     0.071 A 
HETATM   14  O   LIG     1       1.587  -5.537  -1.774  1.00  0.00    -0.318 OA
HETATM   15  C   LIG     1       1.982  -5.479  -3.076  1.00  0.00     0.049 A 
HETATM   16  C   LIG     1       0.994  -4.903  -3.845  1.00  0.00     0.035 A 
HETATM   17  C   LIG     1       3.332  -5.994  -3.383  1.00  0.00     0.076 C 
HETATM   18  C   LIG     1      -0.066  -4.585  -2.962  1.00  0.00     0.037 A 
ENDBRANCH  12  13
ENDBRANCH   2  12
TORSDOF 3
