REMARK  2 active torsions:
REMARK  status: ('A' for Active; 'I' for Inactive)
REMARK    1  A    between atoms: C_1  and  C_4 
REMARK       I    between atoms: C_4  and  N_7 
REMARK    2  A    between atoms: N_7  and  C_12 
ROOT
HETATM    1  C   LIG     1      -0.666  -2.529   0.967  1.00  0.00     0.271 C 
HETATM    2  N   LIG     1      -1.801  -3.288   0.624  1.00  0.00    -0.346 N 
HETATM    3  O   LIG     1       0.474  -2.985   1.011  1.00  0.00    -0.266 OA
HETATM    4  C   LIG     1      -3.115  -2.677   0.484  1.00  0.00     0.153 C 
ENDROOT
BRANCH   1   5
HETATM    5  C   LIG     1      -0.823  -1.035   1.278  1.00  0.00     0.116 A 
HETATM    6  N   LIG     1      -1.890  -0.607   1.881  1.00  0.00    -0.291 N 
HETATM    7  N   LIG     1      -2.010   0.749   2.087  1.00  0.00    -0.262 N 
ATOM      8  HN  LIG     1      -2.615  -1.254   2.192  1.00  0.00     0.187 HD
HETATM    9  C   LIG     1      -1.023   1.677   1.782  1.00  0.00     0.261 A 
HETATM   10  C   LIG     1      -3.251   1.183   2.701  1.00  0.00     0.181 C 
HETATM   11  C   LIG     1       0.193   1.132   1.138  1.00  0.00     0.078 A 
HETATM   12  O   LIG     1      -1.094   2.881   1.996  1.00  0.00    -0.267 OA
HETATM   13  C   LIG     1       0.304  -0.169   0.869  1.00  0.00     0.042 A 
ENDBRANCH   1   5
BRANCH   2  14
HETATM   14  C   LIG     1      -1.610  -4.725   0.330  1.00  0.00     0.087 C 
HETATM   15  C   LIG     1      -1.344  -4.964  -1.165  1.00  0.00     0.025 C 
HETATM   16  C   LIG     1      -2.613  -5.119  -1.996  1.00  0.00     0.002 C 
HETATM   17  C   LIG     1      -3.509  -6.215  -1.434  1.00  0.00     0.000 C 
HETATM   18  C   LIG     1      -3.884  -5.967   0.022  1.00  0.00     0.002 C 
HETATM   19  C   LIG     1      -2.676  -5.673   0.913  1.00  0.00     0.025 C 
ENDBRANCH   2  14
TORSDOF 2
