REMARK  3 active torsions:
REMARK  status: ('A' for Active; 'I' for Inactive)
REMARK    1  A    between atoms: C_1  and  C_4 
REMARK       I    between atoms: C_1  and  N_5 
REMARK    2  A    between atoms: N_5  and  C_10 
REMARK    3  A    between atoms: C_14  and  O_17 
ROOT
HETATM    1  N   LIG     1      -0.365  -0.449  -1.817  1.00  0.00    -0.351 N 
ATOM      2  HN  LIG     1      -0.240   0.554  -1.954  1.00  0.00     0.166 HD
HETATM    3  C   LIG     1       0.044  -1.039  -0.670  1.00  0.00     0.101 A 
HETATM    4  C   LIG     1      -0.935  -1.196  -2.768  1.00  0.00     0.043 A 
HETATM    5  C   LIG     1      -1.110  -2.589  -2.642  1.00  0.00    -0.007 A 
HETATM    6  C   LIG     1      -0.079  -2.411  -0.459  1.00  0.00     0.036 A 
HETATM    7  C   LIG     1      -1.702  -3.313  -3.696  1.00  0.00     0.050 A 
HETATM    8  C   LIG     1      -0.669  -3.190  -1.456  1.00  0.00     0.016 A 
HETATM    9  C   LIG     1      -1.378  -0.569  -3.918  1.00  0.00     0.033 A 
HETATM   10  C   LIG     1      -2.103  -2.665  -4.866  1.00  0.00     0.069 A 
HETATM   11  C   LIG     1      -1.964  -1.284  -4.964  1.00  0.00     0.039 A 
ENDROOT
BRANCH   3  12
HETATM   12  C   LIG     1       0.722  -0.187   0.376  1.00  0.00     0.274 C 
HETATM   13  N   LIG     1       0.416   1.208   0.478  1.00  0.00    -0.317 N 
HETATM   14  C   LIG     1      -0.596   1.811  -0.393  1.00  0.00     0.159 C 
HETATM   15  O   LIG     1       1.528  -0.785   1.081  1.00  0.00    -0.265 OA
BRANCH  13  16
HETATM   16  C   LIG     1       1.071   2.069   1.444  1.00  0.00     0.037 A 
HETATM   17  C   LIG     1       1.704   1.567   2.591  1.00  0.00     0.029 A 
HETATM   18  C   LIG     1       2.326   2.409   3.524  1.00  0.00     0.002 A 
HETATM   19  C   LIG     1       2.323   3.786   3.337  1.00  0.00     0.000 A 
HETATM   20  C   LIG     1       1.698   4.316   2.218  1.00  0.00     0.002 A 
HETATM   21  C   LIG     1       1.086   3.469   1.284  1.00  0.00     0.029 A 
ENDBRANCH  13  16
ENDBRANCH   3  12
BRANCH  10  22
HETATM   22  O   LIG     1      -2.645  -3.459  -5.839  1.00  0.00    -0.356 OA
HETATM   23  C   LIG     1      -2.448  -2.993  -7.172  1.00  0.00     0.210 C 
ENDBRANCH  10  22
TORSDOF 3
