REMARK  3 active torsions:
REMARK  status: ('A' for Active; 'I' for Inactive)
REMARK    1  A    between atoms: C_3  and  C_7 
REMARK    2  A    between atoms: C_6  and  C_13 
REMARK    3  A    between atoms: N_9  and  C_13 
ROOT
HETATM    1  N   LIG     1      -4.314  -0.768  -1.806  1.00  0.00    -0.321 N 
ATOM      2  HN  LIG     1      -5.289  -0.497  -1.937  1.00  0.00     0.169 HD
HETATM    3  C   LIG     1      -3.679  -1.922  -2.189  1.00  0.00     0.138 A 
HETATM    4  N   LIG     1      -2.375  -1.981  -1.886  1.00  0.00    -0.242 N 
ATOM      5  HN  LIG     1      -1.712  -2.731  -2.082  1.00  0.00     0.196 HD
HETATM    6  C   LIG     1      -3.337  -0.101  -1.225  1.00  0.00     0.177 A 
HETATM    7  O   LIG     1      -2.145  -0.767  -1.237  1.00  0.00    -0.221 OA
ENDROOT
BRANCH   6   8
HETATM    8  C   LIG     1      -3.335   1.265  -0.622  1.00  0.00     0.358 C 
BRANCH   8   9
HETATM    9  N   LIG     1      -3.620   1.299   0.823  1.00  0.00     0.096 N 
HETATM   10  C   LIG     1      -4.926   0.759   1.225  1.00  0.00     0.277 C 
HETATM   11  C   LIG     1      -6.158   1.667   1.030  1.00  0.00     0.010 C 
HETATM   12  C   LIG     1      -5.884   3.094   1.526  1.00  0.00     0.007 C 
HETATM   13  C   LIG     1      -6.703   1.660  -0.398  1.00  0.00     0.011 C 
HETATM   14  C   LIG     1      -4.529   3.624   1.067  1.00  0.00     0.031 C 
HETATM   15  C   LIG     1      -3.410   2.634   1.395  1.00  0.00     0.273 C 
ENDBRANCH   8   9
ENDBRANCH   6   8
BRANCH   3  16
HETATM   16  C   LIG     1      -4.405  -2.983  -2.892  1.00  0.00     0.017 A 
HETATM   17  C   LIG     1      -3.853  -4.168  -3.333  1.00  0.00     0.065 A 
HETATM   18  S   LIG     1      -5.003  -5.167  -4.114  1.00  0.00    -0.113 SA
HETATM   19  C   LIG     1      -6.249  -4.021  -3.865  1.00  0.00     0.050 A 
HETATM   20  C   LIG     1      -5.796  -2.899  -3.204  1.00  0.00     0.023 A 
ENDBRANCH   3  16
TORSDOF 3
