REMARK  1 active torsions:
REMARK  status: ('A' for Active; 'I' for Inactive)
REMARK    1  A    between atoms: C_1  and  N_6 
ROOT
HETATM    1  C   LIG     1      -0.694   1.214   0.130  1.00  0.00     0.160 A 
HETATM    2  N   LIG     1       0.183   1.165   1.149  1.00  0.00    -0.337 N 
ATOM      3  HN  LIG     1       0.506   2.021   1.599  1.00  0.00     0.168 HD
HETATM    4  N   LIG     1      -1.138   0.101  -0.480  1.00  0.00    -0.337 N 
ATOM      5  HN  LIG     1      -1.805   0.160  -1.250  1.00  0.00     0.168 HD
HETATM    6  C   LIG     1      -0.684  -1.095  -0.054  1.00  0.00     0.009 A 
HETATM    7  C   LIG     1       0.627  -0.039   1.563  1.00  0.00     0.009 A 
HETATM    8  C   LIG     1       0.214  -1.216   0.981  1.00  0.00     0.049 A 
HETATM    9  C   LIG     1      -1.194  -2.314  -0.761  1.00  0.00     0.068 C 
HETATM   10  C   LIG     1       1.607  -0.056   2.696  1.00  0.00     0.068 C 
ENDROOT
BRANCH   1  11
HETATM   11  N   LIG     1      -1.136   2.464  -0.328  1.00  0.00    -0.255 NA
HETATM   12  C   LIG     1      -2.407   2.400  -1.052  1.00  0.00     0.098 C 
HETATM   13  C   LIG     1      -2.734   3.755  -1.679  1.00  0.00     0.015 C 
HETATM   14  C   LIG     1      -2.686   4.874  -0.646  1.00  0.00     0.002 C 
HETATM   15  C   LIG     1      -1.332   4.886   0.052  1.00  0.00     0.015 C 
HETATM   16  C   LIG     1      -1.010   3.526   0.673  1.00  0.00     0.098 C 
ENDBRANCH   1  11
TORSDOF 1
