REMARK  2 active torsions:
REMARK  status: ('A' for Active; 'I' for Inactive)
REMARK    1  A    between atoms: N_1  and  C_2 
REMARK    2  A    between atoms: C_2  and  C_4 
REMARK       I    between atoms: C_4  and  N_6 
ROOT
HETATM    1  N   LIG     1       0.445  -0.589   0.286  1.00  0.00    -0.306 N 
HETATM    2  C   LIG     1       1.817  -0.402   0.413  1.00  0.00     0.226 C 
HETATM    3  C   LIG     1      -0.591   0.395   0.037  1.00  0.00     0.071 A 
HETATM    4  C   LIG     1      -0.439   1.782   0.201  1.00  0.00     0.095 A 
HETATM    5  C   LIG     1       2.517   0.916   0.203  1.00  0.00     0.130 C 
HETATM    6  O   LIG     1       0.741   2.419   0.453  1.00  0.00    -0.348 OA
HETATM    7  O   LIG     1       2.556  -1.348   0.735  1.00  0.00    -0.273 OA
HETATM    8  C   LIG     1       1.722   1.981  -0.476  1.00  0.00     0.185 C 
HETATM    9  C   LIG     1      -1.881  -0.031  -0.354  1.00  0.00     0.033 A 
HETATM   10  C   LIG     1      -1.528   2.665   0.111  1.00  0.00     0.039 A 
HETATM   11  C   LIG     1      -2.960   0.854  -0.495  1.00  0.00     0.002 A 
HETATM   12  C   LIG     1      -2.790   2.204  -0.236  1.00  0.00     0.003 A 
ENDROOT
BRANCH   1  13
HETATM   13  C   LIG     1       0.011  -1.987   0.506  1.00  0.00     0.235 C 
BRANCH  13  14
HETATM   14  C   LIG     1      -0.066  -2.822  -0.788  1.00  0.00     0.237 C 
HETATM   15  N   LIG     1      -0.665  -4.086  -0.670  1.00  0.00    -0.359 N 
HETATM   16  C   LIG     1      -0.775  -4.891  -1.875  1.00  0.00     0.152 C 
HETATM   17  C   LIG     1      -0.753  -4.813   0.588  1.00  0.00     0.152 C 
HETATM   18  O   LIG     1       0.326  -2.388  -1.867  1.00  0.00    -0.272 OA
ENDBRANCH  13  14
ENDBRANCH   1  13
TORSDOF 2
