REMARK  2 active torsions:
REMARK  status: ('A' for Active; 'I' for Inactive)
REMARK    1  A    between atoms: C_4  and  C_6 
REMARK    2  A    between atoms: C_6  and  C_8 
REMARK       I    between atoms: C_8  and  N_10 
ROOT
HETATM    1  N   LIG     1       2.037  -0.611  -0.071  1.00  0.00    -0.299 N 
ATOM      2  HN  LIG     1       2.799  -1.287  -0.028  1.00  0.00     0.187 HD
HETATM    3  N   LIG     1       2.297   0.732   0.002  1.00  0.00    -0.261 N 
HETATM    4  C   LIG     1       0.804  -1.014  -0.196  1.00  0.00     0.046 A 
HETATM    5  C   LIG     1       1.322   1.725   0.069  1.00  0.00     0.272 A 
HETATM    6  C   LIG     1      -0.072   1.277  -0.098  1.00  0.00     0.046 A 
HETATM    7  C   LIG     1      -0.341  -0.074  -0.286  1.00  0.00     0.004 A 
HETATM    8  O   LIG     1       1.567   2.924   0.226  1.00  0.00    -0.266 OA
HETATM    9  C   LIG     1       3.691   1.125   0.072  1.00  0.00     0.181 C 
HETATM   10  C   LIG     1      -1.112   2.218  -0.105  1.00  0.00     0.018 A 
HETATM   11  C   LIG     1      -1.657  -0.484  -0.536  1.00  0.00     0.014 A 
HETATM   12  C   LIG     1      -2.423   1.803  -0.333  1.00  0.00     0.001 A 
HETATM   13  C   LIG     1      -2.692   0.455  -0.561  1.00  0.00     0.001 A 
ENDROOT
BRANCH   4  14
HETATM   14  C   LIG     1       0.566  -2.508  -0.215  1.00  0.00     0.162 C 
BRANCH  14  15
HETATM   15  C   LIG     1       0.606  -3.091  -1.611  1.00  0.00     0.224 C 
HETATM   16  N   LIG     1       1.804  -3.583  -2.111  1.00  0.00    -0.361 N 
HETATM   17  C   LIG     1       1.844  -4.073  -3.481  1.00  0.00     0.152 C 
HETATM   18  C   LIG     1       3.013  -3.821  -1.336  1.00  0.00     0.152 C 
HETATM   19  O   LIG     1      -0.431  -3.090  -2.282  1.00  0.00    -0.273 OA
ENDBRANCH  14  15
ENDBRANCH   4  14
TORSDOF 2
