REMARK  3 active torsions:
REMARK  status: ('A' for Active; 'I' for Inactive)
REMARK    1  A    between atoms: C_1  and  C_9 
REMARK    2  A    between atoms: C_7  and  C_10 
REMARK    3  A    between atoms: N_8  and  C_9 
ROOT
HETATM    1  C   LIG     1      -1.475  -2.587  -1.332  1.00  0.00     0.168 A 
HETATM    2  N   LIG     1      -1.445  -3.541  -2.240  1.00  0.00    -0.280 N 
ATOM      3  HN  LIG     1      -0.874  -4.386  -2.220  1.00  0.00     0.189 HD
HETATM    4  N   LIG     1      -2.338  -3.172  -3.223  1.00  0.00    -0.281 N 
ATOM      5  HN  LIG     1      -2.559  -3.690  -4.073  1.00  0.00     0.189 HD
HETATM    6  O   LIG     1      -2.338  -1.573  -1.657  1.00  0.00    -0.280 OA
HETATM    7  C   LIG     1      -2.848  -2.019  -2.846  1.00  0.00     0.140 A 
ENDROOT
BRANCH   1   8
HETATM    8  C   LIG     1      -0.730  -2.476  -0.039  1.00  0.00     0.358 C 
BRANCH   8   9
HETATM    9  N   LIG     1      -1.405  -3.037   1.162  1.00  0.00     0.096 N 
HETATM   10  C   LIG     1      -1.665  -4.474   0.999  1.00  0.00     0.273 C 
HETATM   11  C   LIG     1      -1.857  -5.187   2.339  1.00  0.00     0.030 C 
HETATM   12  C   LIG     1      -3.288  -5.199   2.867  1.00  0.00     0.002 C 
HETATM   13  C   LIG     1      -4.093  -3.920   2.677  1.00  0.00     0.002 C 
HETATM   14  C   LIG     1      -3.284  -2.638   2.831  1.00  0.00     0.030 C 
HETATM   15  C   LIG     1      -2.569  -2.228   1.539  1.00  0.00     0.273 C 
ENDBRANCH   8   9
ENDBRANCH   1   8
BRANCH   7  16
HETATM   16  C   LIG     1      -3.884  -1.184  -3.496  1.00  0.00     0.081 C 
HETATM   17  C   LIG     1      -3.278  -0.169  -4.449  1.00  0.00     0.013 C 
ENDBRANCH   7  16
TORSDOF 3
