REMARK  3 active torsions:
REMARK  status: ('A' for Active; 'I' for Inactive)
REMARK    1  A    between atoms: N_1  and  C_8 
REMARK    2  A    between atoms: C_3  and  C_12 
REMARK    3  A    between atoms: C_12  and  C_14 
ROOT
HETATM    1  N   LIG     1       2.188  -1.100   0.067  1.00  0.00    -0.298 N 
HETATM    2  C   LIG     1       0.922  -1.685  -0.027  1.00  0.00     0.261 C 
HETATM    3  C   LIG     1       2.331   0.281  -0.025  1.00  0.00     0.091 C 
HETATM    4  N   LIG     1       1.329   1.105  -0.105  1.00  0.00    -0.345 N 
ATOM      5  HN  LIG     1       1.489   2.110  -0.179  1.00  0.00     0.167 HD
HETATM    6  C   LIG     1      -0.229  -0.770  -0.036  1.00  0.00     0.059 A 
HETATM    7  C   LIG     1       0.030   0.594  -0.088  1.00  0.00     0.049 A 
HETATM    8  O   LIG     1       0.704  -2.896  -0.115  1.00  0.00    -0.267 OA
HETATM    9  C   LIG     1      -1.544  -1.254   0.014  1.00  0.00     0.019 A 
HETATM   10  C   LIG     1      -1.047   1.483  -0.114  1.00  0.00     0.030 A 
HETATM   11  C   LIG     1      -2.611  -0.357   0.006  1.00  0.00     0.001 A 
HETATM   12  C   LIG     1      -2.362   1.013  -0.064  1.00  0.00     0.002 A 
ENDROOT
BRANCH   3  13
HETATM   13  C   LIG     1       3.734   0.891  -0.055  1.00  0.00     0.115 C 
BRANCH  13  14
HETATM   14  C   LIG     1       4.329   1.031  -1.443  1.00  0.00    -0.051 A 
HETATM   15  C   LIG     1       5.722   0.979  -1.612  1.00  0.00     0.007 A 
HETATM   16  C   LIG     1       6.295   1.145  -2.876  1.00  0.00     0.001 A 
HETATM   17  C   LIG     1       5.485   1.375  -3.985  1.00  0.00     0.000 A 
HETATM   18  C   LIG     1       4.104   1.451  -3.830  1.00  0.00     0.001 A 
HETATM   19  C   LIG     1       3.532   1.292  -2.567  1.00  0.00     0.007 A 
ENDBRANCH  13  14
ENDBRANCH   3  13
BRANCH   1  20
HETATM   20  C   LIG     1       3.354  -1.968   0.141  1.00  0.00     0.094 A 
HETATM   21  C   LIG     1       3.390  -3.283   0.886  1.00  0.00     0.028 A 
HETATM   22  C   LIG     1       4.117  -2.104   1.443  1.00  0.00     0.028 A 
ENDBRANCH   1  20
TORSDOF 3
