REMARK  1 active torsions:
REMARK  status: ('A' for Active; 'I' for Inactive)
REMARK       I    between atoms: N_1  and  C_2 
REMARK    1  A    between atoms: C_2  and  C_3 
ROOT
HETATM    1  N   LIG     1       0.453   0.710   0.194  1.00  0.00    -0.346 N 
HETATM    2  C   LIG     1       1.070   1.856  -0.320  1.00  0.00     0.271 C 
HETATM    3  C   LIG     1       1.084  -0.587   0.443  1.00  0.00     0.130 C 
HETATM    4  O   LIG     1       0.525   2.963  -0.264  1.00  0.00    -0.266 OA
HETATM    5  C   LIG     1      -0.927   0.807   0.665  1.00  0.00     0.126 C 
HETATM    6  C   LIG     1       0.295  -1.724  -0.224  1.00  0.00    -0.001 C 
HETATM    7  C   LIG     1      -1.791  -0.270   0.015  1.00  0.00     0.020 C 
HETATM    8  C   LIG     1      -1.184  -1.662   0.196  1.00  0.00     0.007 C 
HETATM    9  C   LIG     1       0.450  -1.697  -1.747  1.00  0.00     0.011 C 
ENDROOT
BRANCH   2  10
HETATM   10  C   LIG     1       2.413   1.806  -0.971  1.00  0.00     0.116 A 
HETATM   11  N   LIG     1       2.836   0.660  -1.569  1.00  0.00    -0.359 N 
HETATM   12  C   LIG     1       4.045   0.727  -2.173  1.00  0.00     0.105 A 
ATOM     13  HN  LIG     1       2.278  -0.194  -1.563  1.00  0.00     0.165 HD
HETATM   14  C   LIG     1       4.805   1.885  -2.199  1.00  0.00     0.104 A 
HETATM   15  N   LIG     1       4.387   3.035  -1.626  1.00  0.00    -0.372 N 
HETATM   16  C   LIG     1       3.170   2.971  -1.022  1.00  0.00     0.122 A 
ATOM     17  HN  LIG     1       4.944   3.889  -1.645  1.00  0.00     0.164 HD
ENDBRANCH   2  10
TORSDOF 1
