REMARK  3 active torsions:
REMARK  status: ('A' for Active; 'I' for Inactive)
REMARK    1  A    between atoms: C_1  and  C_3 
REMARK       I    between atoms: C_3  and  N_9 
REMARK    2  A    between atoms: N_9  and  C_14 
REMARK    3  A    between atoms: N_9  and  C_15 
ROOT
HETATM    1  C   LIG     1      -0.738   1.661  -0.574  1.00  0.00     0.101 C 
HETATM    2  C   LIG     1      -1.313   3.034  -0.777  1.00  0.00     0.261 C 
HETATM    3  C   LIG     1      -1.638   0.744  -0.143  1.00  0.00     0.036 C 
HETATM    4  N   LIG     1      -2.576   3.303  -0.276  1.00  0.00    -0.322 N 
ATOM      5  HN  LIG     1      -2.864   4.277  -0.179  1.00  0.00     0.169 HD
HETATM    6  C   LIG     1      -3.479   2.295   0.105  1.00  0.00     0.045 A 
HETATM    7  C   LIG     1      -3.052   0.984   0.040  1.00  0.00    -0.008 A 
HETATM    8  O   LIG     1      -0.707   3.935  -1.404  1.00  0.00    -0.267 OA
HETATM    9  C   LIG     1      -4.790   2.564   0.483  1.00  0.00     0.030 A 
HETATM   10  C   LIG     1      -3.940  -0.086   0.220  1.00  0.00     0.014 A 
HETATM   11  C   LIG     1      -5.674   1.498   0.717  1.00  0.00     0.002 A 
HETATM   12  C   LIG     1      -5.261   0.176   0.553  1.00  0.00     0.001 A 
ENDROOT
BRANCH   1  13
HETATM   13  C   LIG     1       0.753   1.349  -0.788  1.00  0.00     0.259 C 
HETATM   14  N   LIG     1       1.179   0.035  -1.120  1.00  0.00    -0.349 N 
HETATM   15  O   LIG     1       1.576   2.261  -0.699  1.00  0.00    -0.267 OA
BRANCH  14  16
HETATM   16  C   LIG     1       2.615  -0.264  -1.281  1.00  0.00     0.121 C 
HETATM   17  C   LIG     1       3.301  -0.734   0.001  1.00  0.00     0.026 C 
ENDBRANCH  14  16
BRANCH  14  18
HETATM   18  C   LIG     1       0.303  -1.113  -1.322  1.00  0.00     0.121 C 
HETATM   19  C   LIG     1      -0.692  -0.901  -2.460  1.00  0.00     0.026 C 
ENDBRANCH  14  18
ENDBRANCH   1  13
TORSDOF 3
