REMARK  2 active torsions:
REMARK  status: ('A' for Active; 'I' for Inactive)
REMARK    1  A    between atoms: C_2  and  C_5 
REMARK    2  A    between atoms: C_4  and  C_5 
REMARK       I    between atoms: C_4  and  N_6 
ROOT
HETATM    1  C   LIG     1      -3.141   0.393  -2.115  1.00  0.00     0.294 A 
HETATM    2  C   LIG     1      -1.207  -0.925  -1.845  1.00  0.00     0.175 A 
HETATM    3  O   LIG     1      -2.303  -0.207  -1.213  1.00  0.00    -0.307 OA
HETATM    4  C   LIG     1      -2.573   0.128  -3.430  1.00  0.00     0.048 A 
HETATM    5  C   LIG     1      -1.429  -0.631  -3.286  1.00  0.00    -0.012 A 
HETATM    6  O   LIG     1      -4.154   1.017  -1.867  1.00  0.00    -0.259 OA
HETATM    7  C   LIG     1      -3.040   0.555  -4.664  1.00  0.00     0.018 A 
HETATM    8  C   LIG     1      -0.681  -0.970  -4.403  1.00  0.00     0.011 A 
HETATM    9  C   LIG     1      -2.304   0.196  -5.794  1.00  0.00     0.001 A 
HETATM   10  C   LIG     1      -1.128  -0.558  -5.662  1.00  0.00     0.001 A 
ENDROOT
BRANCH   2  11
HETATM   11  C   LIG     1      -1.333  -2.393  -1.444  1.00  0.00     0.140 C 
BRANCH  11  12
HETATM   12  C   LIG     1      -0.130  -3.225  -1.844  1.00  0.00     0.222 C 
HETATM   13  N   LIG     1      -0.212  -4.598  -1.638  1.00  0.00    -0.352 N 
HETATM   14  C   LIG     1      -1.341  -5.284  -1.011  1.00  0.00     0.126 C 
HETATM   15  C   LIG     1       0.763  -5.461  -2.304  1.00  0.00     0.126 C 
HETATM   16  C   LIG     1      -0.858  -6.373  -0.055  1.00  0.00     0.024 C 
HETATM   17  C   LIG     1       0.084  -7.355  -0.761  1.00  0.00    -0.015 C 
HETATM   18  C   LIG     1       1.250  -6.593  -1.404  1.00  0.00     0.024 C 
HETATM   19  C   LIG     1       0.601  -8.408   0.217  1.00  0.00     0.010 C 
HETATM   20  O   LIG     1       0.873  -2.700  -2.327  1.00  0.00    -0.273 OA
ENDBRANCH  11  12
ENDBRANCH   2  11
TORSDOF 2
