REMARK  1 active torsions:
REMARK  status: ('A' for Active; 'I' for Inactive)
REMARK    1  A    between atoms: C_1  and  C_2 
REMARK       I    between atoms: C_1  and  N_3 
ROOT
HETATM    1  C   LIG     1       0.843  -0.297  -0.749  1.00  0.00     0.261 C 
HETATM    2  N   LIG     1       0.077   0.635  -1.467  1.00  0.00    -0.312 N 
HETATM    3  C   LIG     1      -0.968   0.344  -2.403  1.00  0.00     0.054 A 
HETATM    4  C   LIG     1      -1.985   1.287  -2.674  1.00  0.00     0.027 A 
HETATM    5  O   LIG     1       1.962  -0.006  -0.318  1.00  0.00    -0.267 OA
HETATM    6  S   LIG     1      -2.111   2.908  -1.915  1.00  0.00    -0.126 SA
HETATM    7  C   LIG     1       0.444   2.048  -1.349  1.00  0.00     0.143 C 
HETATM    8  C   LIG     1      -0.699   2.865  -0.776  1.00  0.00     0.100 C 
HETATM    9  C   LIG     1      -0.971  -0.864  -3.122  1.00  0.00     0.031 A 
HETATM   10  C   LIG     1      -3.002   0.969  -3.590  1.00  0.00     0.021 A 
HETATM   11  C   LIG     1      -1.989  -1.167  -4.029  1.00  0.00     0.002 A 
HETATM   12  C   LIG     1      -3.011  -0.255  -4.255  1.00  0.00     0.002 A 
ENDROOT
BRANCH   1  13
HETATM   13  C   LIG     1       0.257  -1.594  -0.410  1.00  0.00     0.063 A 
HETATM   14  C   LIG     1       0.981  -2.757  -0.185  1.00  0.00     0.064 A 
HETATM   15  O   LIG     1       0.144  -3.791   0.113  1.00  0.00    -0.326 OA
HETATM   16  C   LIG     1       2.421  -3.094  -0.205  1.00  0.00     0.077 C 
HETATM   17  C   LIG     1      -1.117  -3.297   0.120  1.00  0.00     0.143 A 
HETATM   18  C   LIG     1      -1.105  -1.955  -0.166  1.00  0.00     0.044 A 
ENDBRANCH   1  13
TORSDOF 1
