REMARK  1 active torsions:
REMARK  status: ('A' for Active; 'I' for Inactive)
REMARK       I    between atoms: N_1  and  C_2 
REMARK    1  A    between atoms: C_2  and  C_3 
ROOT
HETATM    1  N   LIG     1       0.655   0.598   0.090  1.00  0.00    -0.346 N 
HETATM    2  C   LIG     1       0.844   1.913  -0.319  1.00  0.00     0.234 C 
HETATM    3  O   LIG     1      -0.091  -2.162   0.194  1.00  0.00    -0.378 OA
HETATM    4  C   LIG     1       1.685  -0.433   0.217  1.00  0.00     0.157 C 
HETATM    5  C   LIG     1      -0.629   0.209   0.676  1.00  0.00     0.157 C 
HETATM    6  O   LIG     1      -0.087   2.721  -0.296  1.00  0.00    -0.272 OA
HETATM    7  C   LIG     1      -1.112  -1.151   0.153  1.00  0.00     0.136 C 
HETATM    8  C   LIG     1       1.200  -1.793  -0.311  1.00  0.00     0.136 C 
HETATM    9  C   LIG     1      -1.774  -1.051  -1.219  1.00  0.00     0.041 C 
HETATM   10  C   LIG     1       1.279  -1.890  -1.831  1.00  0.00     0.041 C 
ENDROOT
BRANCH   2  11
HETATM   11  C   LIG     1       2.245   2.331  -0.793  1.00  0.00     0.148 C 
HETATM   12  S   LIG     1       2.464   1.846  -2.548  1.00  0.00    -0.115 SA
HETATM   13  C   LIG     1       2.094   3.476  -3.124  1.00  0.00     0.007 A 
HETATM   14  C   LIG     1       2.087   4.414  -2.090  1.00  0.00    -0.040 A 
HETATM   15  C   LIG     1       1.826   3.852  -4.431  1.00  0.00     0.019 A 
HETATM   16  C   LIG     1       2.439   3.858  -0.741  1.00  0.00     0.065 C 
HETATM   17  C   LIG     1       1.822   5.753  -2.355  1.00  0.00     0.008 A 
HETATM   18  C   LIG     1       1.542   6.139  -3.667  1.00  0.00     0.001 A 
HETATM   19  C   LIG     1       1.544   5.193  -4.700  1.00  0.00     0.001 A 
ENDBRANCH   2  11
TORSDOF 1
