REMARK  2 active torsions:
REMARK  status: ('A' for Active; 'I' for Inactive)
REMARK    1  A    between atoms: C_3  and  N_11 
REMARK    2  A    between atoms: C_5  and  N_9 
ROOT
HETATM    1  C   UNL     1       2.175  -0.359  -1.083  1.00  0.00     0.353 C 
HETATM    2  O   UNL     1       2.057  -0.752  -2.184  1.00  0.00    -0.283 OA
HETATM    3  N   UNL     1       2.326   0.047   0.011  1.00  0.00    -0.332 N 
ATOM      4  HN  UNL     1       2.000  -0.455   0.837  1.00  0.00     0.168 HD
ENDROOT
BRANCH   3   5
HETATM    5  C   UNL     1       2.999   1.293   0.085  1.00  0.00     0.067 A 
HETATM    6  C   UNL     1       2.686   2.234   1.083  1.00  0.00     0.129 A 
HETATM    7  C   UNL     1       3.284   3.505   1.140  1.00  0.00     0.038 A 
HETATM    8  C   UNL     1       4.262   3.839   0.209  1.00  0.00     0.003 A 
HETATM    9  C   UNL     1       4.652   2.905  -0.746  1.00  0.00     0.002 A 
HETATM   10  C   UNL     1       4.033   1.650  -0.805  1.00  0.00     0.032 A 
BRANCH   6  11
HETATM   11  N   UNL     1       1.755   1.895   2.142  1.00  0.00    -0.113 N 
HETATM   12  O   UNL     1       0.796   2.662   2.312  1.00  0.00    -0.532 OA
HETATM   13  O   UNL     1       2.024   0.913   2.846  1.00  0.00    -0.532 OA
ENDBRANCH   6  11
ENDBRANCH   3   5
TORSDOF 2
