REMARK  2 active torsions:
REMARK  status: ('A' for Active; 'I' for Inactive)
REMARK    1  A    between atoms: N_2  and  C_5 
REMARK    2  A    between atoms: C_6  and  C_7 
ROOT
HETATM    1  C   UNL     1      -0.107  -1.033   0.807  1.00  0.00     0.353 C 
HETATM    2  N   UNL     1      -0.059  -0.083   0.116  1.00  0.00    -0.334 N 
ATOM      3  HN  UNL     1       0.548  -0.029  -0.702  1.00  0.00     0.168 HD
HETATM    4  O   UNL     1      -0.170  -1.987   1.491  1.00  0.00    -0.283 OA
ENDROOT
BRANCH   2   5
HETATM    5  C   UNL     1      -0.909   0.980   0.508  1.00  0.00     0.040 A 
HETATM    6  C   UNL     1      -0.558   2.304   0.153  1.00  0.00    -0.032 A 
HETATM    7  C   UNL     1      -1.396   3.373   0.528  1.00  0.00     0.009 A 
HETATM    8  C   UNL     1      -2.585   3.149   1.217  1.00  0.00     0.001 A 
HETATM    9  C   UNL     1      -2.956   1.853   1.544  1.00  0.00     0.002 A 
HETATM   10  C   UNL     1      -2.132   0.782   1.188  1.00  0.00     0.030 A 
BRANCH   6  11
HETATM   11  C   UNL     1       0.695   2.642  -0.629  1.00  0.00     0.036 C 
HETATM   12  C   UNL     1       1.889   2.940   0.265  1.00  0.00     0.010 C 
ENDBRANCH   6  11
ENDBRANCH   2   5
TORSDOF 2
