REMARK  1 active torsions:
REMARK  status: ('A' for Active; 'I' for Inactive)
REMARK    1  A    between atoms: N_2  and  C_5 
ROOT
HETATM    1  C   UNL     1      -0.251  -0.001   1.056  1.00  0.00     0.353 C 
HETATM    2  N   UNL     1      -0.330  -0.095  -0.112  1.00  0.00    -0.333 N 
ATOM      3  HN  UNL     1       0.068  -0.878  -0.632  1.00  0.00     0.168 HD
HETATM    4  O   UNL     1      -0.208   0.088   2.227  1.00  0.00    -0.283 OA
ENDROOT
BRANCH   2   5
HETATM    5  C   UNL     1      -1.024   0.970  -0.739  1.00  0.00     0.050 A 
HETATM    6  C   UNL     1      -0.638   1.409  -2.022  1.00  0.00     0.033 A 
HETATM    7  I   UNL     1       0.990   0.553  -3.043  1.00  0.00    -0.042 I 
HETATM    8  C   UNL     1      -1.335   2.430  -2.683  1.00  0.00     0.020 A 
HETATM    9  C   UNL     1      -2.440   3.026  -2.077  1.00  0.00     0.001 A 
HETATM   10  C   UNL     1      -2.853   2.599  -0.821  1.00  0.00     0.002 A 
HETATM   11  C   UNL     1      -2.160   1.579  -0.163  1.00  0.00     0.031 A 
ENDBRANCH   2   5
TORSDOF 1
