REMARK  3 active torsions:
REMARK  status: ('A' for Active; 'I' for Inactive)
REMARK    1  A    between atoms: C_2  and  O_11 
REMARK    2  A    between atoms: N_3  and  C_6 
REMARK    3  A    between atoms: C_9  and  O_12 
ROOT
HETATM    1  C   UNL     1       0.793   0.354  -0.223  1.00  0.00     0.353 C 
HETATM    2  N   UNL     1      -0.355   0.121  -0.116  1.00  0.00    -0.332 N 
ATOM      3  HN  UNL     1      -0.907  -0.269  -0.880  1.00  0.00     0.168 HD
HETATM    4  O   UNL     1       1.937   0.569  -0.387  1.00  0.00    -0.283 OA
ENDROOT
BRANCH   2   5
HETATM    5  C   UNL     1      -0.916   0.421   1.148  1.00  0.00     0.068 A 
HETATM    6  C   UNL     1      -0.626   1.547   1.948  1.00  0.00     0.097 A 
HETATM    7  C   UNL     1      -1.302   1.742   3.161  1.00  0.00     0.075 A 
HETATM    8  C   UNL     1      -2.312   0.872   3.575  1.00  0.00     0.070 A 
HETATM    9  C   UNL     1      -2.640  -0.217   2.776  1.00  0.00     0.039 A 
HETATM   10  C   UNL     1      -1.943  -0.440   1.582  1.00  0.00     0.035 A 
BRANCH   6  11
HETATM   11  O   UNL     1       0.356   2.401   1.510  1.00  0.00    -0.354 OA
HETATM   12  C   UNL     1       0.212   3.764   1.893  1.00  0.00     0.210 C 
ENDBRANCH   6  11
BRANCH   8  13
HETATM   13  O   UNL     1      -2.884   1.210   4.769  1.00  0.00    -0.356 OA
HETATM   14  C   UNL     1      -3.957   0.404   5.232  1.00  0.00     0.210 C 
ENDBRANCH   8  13
ENDBRANCH   2   5
TORSDOF 3
