REMARK  3 active torsions:
REMARK  status: ('A' for Active; 'I' for Inactive)
REMARK    1  A    between atoms: C_2  and  C_3 
REMARK    2  A    between atoms: C_2  and  O_10 
REMARK    3  A    between atoms: N_4  and  C_9 
ROOT
HETATM    1  C   UNL     1       0.790   0.264   0.421  1.00  0.00     0.353 C 
HETATM    2  N   UNL     1      -0.330   0.044   0.140  1.00  0.00    -0.334 N 
ATOM      3  HN  UNL     1      -0.835   0.570  -0.573  1.00  0.00     0.168 HD
HETATM    4  O   UNL     1       1.903   0.488   0.726  1.00  0.00    -0.283 OA
ENDROOT
BRANCH   2   5
HETATM    5  C   UNL     1      -0.918  -1.010   0.873  1.00  0.00     0.035 A 
HETATM    6  C   UNL     1      -0.606  -1.323   2.208  1.00  0.00     0.047 A 
HETATM    7  C   UNL     1      -1.243  -2.382   2.872  1.00  0.00     0.041 A 
HETATM    8  C   UNL     1      -2.233  -3.117   2.210  1.00  0.00     0.018 A 
HETATM    9  C   UNL     1      -2.574  -2.802   0.895  1.00  0.00     0.003 A 
HETATM   10  C   UNL     1      -1.918  -1.759   0.236  1.00  0.00     0.029 A 
BRANCH   7  11
HETATM   11  C   UNL     1      -0.884  -2.766   4.264  1.00  0.00     0.293 C 
HETATM   12  O   UNL     1      -1.439  -3.658   4.886  1.00  0.00    -0.259 OA
BRANCH  11  13
HETATM   13  O   UNL     1       0.150  -2.009   4.706  1.00  0.00    -0.323 OA
HETATM   14  C   UNL     1       0.614  -2.349   6.013  1.00  0.00     0.213 C 
ENDBRANCH  11  13
ENDBRANCH   7  11
ENDBRANCH   2   5
TORSDOF 3
