REMARK  2 active torsions:
REMARK  status: ('A' for Active; 'I' for Inactive)
REMARK    1  A    between atoms: N_2  and  C_5 
REMARK    2  A    between atoms: C_4  and  C_7 
ROOT
HETATM    1  C   UNL     1      -0.165  -0.286  -1.267  1.00  0.00     0.353 C 
HETATM    2  N   UNL     1      -0.402   0.045  -0.164  1.00  0.00    -0.334 N 
ATOM      3  HN  UNL     1      -0.162   0.966   0.204  1.00  0.00     0.168 HD
HETATM    4  O   UNL     1       0.048  -0.608  -2.377  1.00  0.00    -0.283 OA
ENDROOT
BRANCH   2   5
HETATM    5  C   UNL     1      -1.054  -0.953   0.612  1.00  0.00     0.045 A 
HETATM    6  C   UNL     1      -0.717  -1.153   1.985  1.00  0.00     0.001 A 
HETATM    7  C   UNL     1      -1.463  -2.126   2.700  1.00  0.00     0.014 A 
HETATM    8  C   UNL     1      -2.510  -2.847   2.121  1.00  0.00     0.001 A 
HETATM    9  C   UNL     1      -2.843  -2.632   0.796  1.00  0.00     0.002 A 
HETATM   10  C   UNL     1      -2.128  -1.694   0.055  1.00  0.00     0.030 A 
BRANCH   6  11
HETATM   11  C   UNL     1       0.352  -0.395   2.715  1.00  0.00    -0.024 A 
HETATM   12  C   UNL     1       0.214  -0.074   4.085  1.00  0.00     0.012 A 
HETATM   13  C   UNL     1       1.205   0.617   4.795  1.00  0.00     0.001 A 
HETATM   14  C   UNL     1       2.360   1.033   4.146  1.00  0.00     0.000 A 
HETATM   15  C   UNL     1       2.529   0.736   2.799  1.00  0.00     0.001 A 
HETATM   16  C   UNL     1       1.548   0.016   2.103  1.00  0.00     0.012 A 
ENDBRANCH   6  11
ENDBRANCH   2   5
TORSDOF 2
