REMARK  2 active torsions:
REMARK  status: ('A' for Active; 'I' for Inactive)
REMARK    1  A    between atoms: C_2  and  C_7 
REMARK    2  A    between atoms: C_3  and  N_8 
ROOT
HETATM    1  N   UNL     1      -2.724  -1.445  -0.002  1.00  0.00    -0.332 N 
ATOM      2  HN  UNL     1      -3.618  -0.953   0.006  1.00  0.00     0.168 HD
HETATM    3  C   UNL     1      -2.654  -2.616  -0.014  1.00  0.00     0.353 C 
HETATM    4  O   UNL     1      -2.583  -3.790  -0.026  1.00  0.00    -0.283 OA
ENDROOT
BRANCH   1   5
HETATM    5  C   UNL     1      -1.498  -0.767   0.001  1.00  0.00     0.075 A 
HETATM    6  C   UNL     1      -1.392   0.607   0.012  1.00  0.00     0.186 A 
HETATM    7  O   UNL     1      -0.066   0.961   0.011  1.00  0.00    -0.308 OA
HETATM    8  C   UNL     1       0.662  -0.191   0.001  1.00  0.00     0.052 A 
HETATM    9  C   UNL     1      -0.178  -1.286  -0.005  1.00  0.00     0.064 A 
HETATM   10  C   UNL     1       2.132  -0.043  -0.000  1.00  0.00     0.077 C 
BRANCH   6  11
HETATM   11  C   UNL     1      -2.399   1.691   0.023  1.00  0.00     0.441 C 
HETATM   12  F   UNL     1      -1.841   2.931   0.026  1.00  0.00    -0.164 F 
HETATM   13  F   UNL     1      -3.215   1.639  -1.063  1.00  0.00    -0.164 F 
HETATM   14  F   UNL     1      -3.204   1.629   1.117  1.00  0.00    -0.164 F 
ENDBRANCH   6  11
ENDBRANCH   1   5
TORSDOF 2
