REMARK  1 active torsions:
REMARK  status: ('A' for Active; 'I' for Inactive)
REMARK    1  A    between atoms: C_3  and  N_4 
ROOT
HETATM    1  N   UNL     1       0.277   3.122   0.077  1.00  0.00    -0.332 N 
ATOM      2  HN  UNL     1      -0.535   3.498  -0.412  1.00  0.00     0.168 HD
HETATM    3  C   UNL     1       1.018   3.808   0.676  1.00  0.00     0.353 C 
HETATM    4  O   UNL     1       1.775   4.502   1.247  1.00  0.00    -0.283 OA
ENDROOT
BRANCH   1   5
HETATM    5  C   UNL     1       0.582   1.739   0.076  1.00  0.00     0.071 A 
HETATM    6  C   UNL     1      -0.482   0.809   0.006  1.00  0.00     0.106 A 
HETATM    7  C   UNL     1      -0.246  -0.575  -0.032  1.00  0.00     0.004 A 
HETATM    8  O   UNL     1      -1.764   1.307  -0.000  1.00  0.00    -0.323 OA
HETATM    9  C   UNL     1       1.069  -1.045  -0.049  1.00  0.00     0.054 A 
HETATM   10  C   UNL     1      -1.395  -1.533  -0.091  1.00  0.00     0.212 C 
HETATM   11  C   UNL     1       2.119  -0.140  -0.004  1.00  0.00     0.119 A 
HETATM   12  C   UNL     1       1.894   1.232   0.057  1.00  0.00     0.074 A 
HETATM   13  F   UNL     1       3.378  -0.598  -0.022  1.00  0.00    -0.206 F 
HETATM   14  O   UNL     1      -2.595  -0.901   0.330  1.00  0.00    -0.362 OA
HETATM   15  C   UNL     1      -2.749   0.337  -0.352  1.00  0.00     0.345 C 
ENDBRANCH   1   5
TORSDOF 1
