REMARK  1 active torsions:
REMARK  status: ('A' for Active; 'I' for Inactive)
REMARK    1  A    between atoms: N_1  and  C_3 
ROOT
HETATM    1  N   UNL     1       1.019   0.091   0.001  1.00  0.00    -0.334 N 
ATOM      2  HN  UNL     1       0.482  -0.661  -0.431  1.00  0.00     0.168 HD
HETATM    3  C   UNL     1       2.164   0.247  -0.200  1.00  0.00     0.353 C 
HETATM    4  O   UNL     1       3.308   0.427  -0.410  1.00  0.00    -0.283 OA
ENDROOT
BRANCH   1   5
HETATM    5  C   UNL     1       0.443   1.026   0.888  1.00  0.00     0.035 A 
HETATM    6  C   UNL     1      -0.603   0.568   1.715  1.00  0.00     0.043 A 
HETATM    7  C   UNL     1      -1.229   1.457   2.610  1.00  0.00     0.002 A 
HETATM    8  C   UNL     1      -2.273   1.373   3.570  1.00  0.00     0.039 A 
HETATM    9  C   UNL     1      -0.798   2.777   2.641  1.00  0.00     0.085 A 
HETATM   10  C   UNL     1      -2.392   2.627   4.126  1.00  0.00     0.143 A 
HETATM   11  O   UNL     1      -1.502   3.485   3.565  1.00  0.00    -0.322 OA
HETATM   12  C   UNL     1       0.210   3.287   1.832  1.00  0.00     0.040 A 
HETATM   13  C   UNL     1       0.815   2.385   0.946  1.00  0.00     0.032 A 
ENDBRANCH   1   5
TORSDOF 1
