REMARK  2 active torsions:
REMARK  status: ('A' for Active; 'I' for Inactive)
REMARK    1  A    between atoms: C_2  and  C_6 
REMARK    2  A    between atoms: C_9  and  N_12 
ROOT
HETATM    1  N   UNL     1      -1.194   6.823  -0.384  1.00  0.00    -0.334 N 
ATOM      2  HN  UNL     1      -1.287   7.392   0.457  1.00  0.00     0.168 HD
HETATM    3  C   UNL     1      -1.360   7.257  -1.462  1.00  0.00     0.353 C 
HETATM    4  O   UNL     1      -1.509   7.693  -2.544  1.00  0.00    -0.283 OA
ENDROOT
BRANCH   1   5
HETATM    5  C   UNL     1      -0.856   5.456  -0.341  1.00  0.00     0.034 A 
HETATM    6  C   UNL     1      -0.041   4.805  -1.280  1.00  0.00     0.030 A 
HETATM    7  C   UNL     1       0.277   3.447  -1.140  1.00  0.00     0.015 A 
HETATM    8  C   UNL     1      -0.197   2.698  -0.053  1.00  0.00    -0.019 A 
HETATM    9  C   UNL     1      -0.996   3.356   0.893  1.00  0.00     0.015 A 
HETATM   10  C   UNL     1      -1.315   4.713   0.751  1.00  0.00     0.030 A 
BRANCH   8  11
HETATM   11  C   UNL     1       0.117   1.261   0.049  1.00  0.00     0.015 A 
HETATM   12  S   UNL     1       0.305   0.497   1.579  1.00  0.00    -0.101 SA
HETATM   13  C   UNL     1       0.572  -1.034   0.871  1.00  0.00     0.050 A 
HETATM   14  C   UNL     1       0.564  -0.974  -0.503  1.00  0.00     0.008 A 
HETATM   15  C   UNL     1       0.315   0.348  -0.974  1.00  0.00     0.020 A 
ENDBRANCH   8  11
ENDBRANCH   1   5
TORSDOF 2
