REMARK  0 active torsions:
REMARK  status: ('A' for Active; 'I' for Inactive)
ROOT
HETATM    1  S   UNL     1      -1.008   0.155  -0.008  1.00  0.00    -0.084 SA
HETATM    2  C   UNL     1       0.240   1.354  -0.004  1.00  0.00     0.075 A 
HETATM    3  C   UNL     1       1.484   0.732   0.002  1.00  0.00     0.038 A 
HETATM    4  C   UNL     1       1.409  -0.692   0.002  1.00  0.00     0.010 A 
HETATM    5  C   UNL     1       0.109  -1.135  -0.005  1.00  0.00     0.052 A 
HETATM    6  N   UNL     1      -0.152   2.660  -0.007  1.00  0.00    -0.329 N 
ATOM      7  HN  UNL     1      -1.132   2.944  -0.011  1.00  0.00     0.168 HD
HETATM    8  C   UNL     1       0.733   3.429  -0.004  1.00  0.00     0.353 C 
HETATM    9  O   UNL     1       1.627   4.194  -0.002  1.00  0.00    -0.283 OA
ENDROOT
TORSDOF 0
