REMARK  1 active torsions:
REMARK  status: ('A' for Active; 'I' for Inactive)
REMARK    1  A    between atoms: N_4  and  C_10 
ROOT
HETATM    1  C   UNL     1       0.916   0.279  -0.119  1.00  0.00     0.353 C 
HETATM    2  N   UNL     1      -0.222   0.047   0.069  1.00  0.00    -0.334 N 
ATOM      3  HN  UNL     1      -0.724  -0.702  -0.409  1.00  0.00     0.168 HD
HETATM    4  O   UNL     1       2.045   0.539  -0.312  1.00  0.00    -0.283 OA
ENDROOT
BRANCH   2   5
HETATM    5  C   UNL     1      -0.830   0.900   1.017  1.00  0.00     0.036 A 
HETATM    6  C   UNL     1      -1.867   0.377   1.806  1.00  0.00     0.069 A 
HETATM    7  C   UNL     1      -2.523   1.165   2.763  1.00  0.00     0.104 A 
HETATM    8  C   UNL     1      -2.107   2.485   2.977  1.00  0.00     0.102 A 
HETATM    9  O   UNL     1      -3.544   0.542   3.440  1.00  0.00    -0.348 OA
HETATM   10  C   UNL     1      -1.123   3.034   2.157  1.00  0.00     0.042 A 
HETATM   11  O   UNL     1      -2.593   3.338   3.933  1.00  0.00    -0.348 OA
HETATM   12  C   UNL     1      -0.499   2.255   1.180  1.00  0.00     0.032 A 
HETATM   13  C   UNL     1      -2.979   2.689   5.144  1.00  0.00     0.178 C 
HETATM   14  C   UNL     1      -4.401   2.168   5.046  1.00  0.00     0.053 C 
HETATM   15  C   UNL     1      -4.637   1.412   3.748  1.00  0.00     0.178 C 
ENDBRANCH   2   5
TORSDOF 1
