REMARK  1 active torsions:
REMARK  status: ('A' for Active; 'I' for Inactive)
REMARK    1  A    between atoms: C_3  and  N_6 
ROOT
HETATM    1  N   UNL     1       2.574   1.555   0.004  1.00  0.00    -0.334 N 
ATOM      2  HN  UNL     1       3.489   1.104   0.006  1.00  0.00     0.168 HD
HETATM    3  C   UNL     1       2.451   2.721   0.004  1.00  0.00     0.353 C 
HETATM    4  O   UNL     1       2.324   3.891   0.003  1.00  0.00    -0.283 OA
ENDROOT
BRANCH   1   5
HETATM    5  C   UNL     1       1.374   0.820   0.001  1.00  0.00     0.041 A 
HETATM    6  C   UNL     1       0.077   1.292  -0.005  1.00  0.00     0.079 A 
HETATM    7  S   UNL     1      -1.069   0.016  -0.008  1.00  0.00    -0.111 SA
HETATM    8  C   UNL     1       0.167  -1.168  -0.004  1.00  0.00     0.052 A 
HETATM    9  C   UNL     1       1.425  -0.604   0.001  1.00  0.00     0.037 A 
ENDBRANCH   1   5
TORSDOF 1
