REMARK  1 active torsions:
REMARK  status: ('A' for Active; 'I' for Inactive)
REMARK    1  A    between atoms: C_3  and  N_10 
ROOT
HETATM    1  N   UNL     1      -0.787   2.644  -0.042  1.00  0.00    -0.331 N 
ATOM      2  HN  UNL     1      -0.200   3.288  -0.572  1.00  0.00     0.168 HD
HETATM    3  C   UNL     1      -1.731   3.002   0.555  1.00  0.00     0.353 C 
HETATM    4  O   UNL     1      -2.684   3.381   1.131  1.00  0.00    -0.283 OA
ENDROOT
BRANCH   1   5
HETATM    5  C   UNL     1      -0.522   1.270   0.024  1.00  0.00     0.082 A 
HETATM    6  C   UNL     1       0.759   0.757   0.010  1.00  0.00     0.053 A 
HETATM    7  N   UNL     1       0.601  -0.604   0.018  1.00  0.00    -0.299 N 
HETATM    8  C   UNL     1       2.085   1.422  -0.030  1.00  0.00     0.072 C 
HETATM    9  C   UNL     1       1.622  -1.627  -0.006  1.00  0.00     0.177 C 
HETATM   10  N   UNL     1      -0.685  -0.996   0.023  1.00  0.00    -0.301 N 
HETATM   11  C   UNL     1      -1.389   0.144   0.002  1.00  0.00     0.051 A 
ATOM     12  HN  UNL     1      -1.045  -1.950   0.039  1.00  0.00     0.187 HD
HETATM   13  C   UNL     1      -2.869   0.042  -0.071  1.00  0.00     0.072 C 
ENDBRANCH   1   5
TORSDOF 1
