REMARK  2 active torsions:
REMARK  status: ('A' for Active; 'I' for Inactive)
REMARK    1  A    between atoms: C_2  and  N_7 
REMARK    2  A    between atoms: C_5  and  N_14 
ROOT
HETATM    1  N   UNL     1      -1.594   2.134   1.389  1.00  0.00    -0.334 N 
ATOM      2  HN  UNL     1      -2.516   2.027   1.813  1.00  0.00     0.168 HD
HETATM    3  C   UNL     1      -1.078   3.180   1.266  1.00  0.00     0.353 C 
HETATM    4  O   UNL     1      -0.561   4.232   1.154  1.00  0.00    -0.283 OA
ENDROOT
BRANCH   1   5
HETATM    5  C   UNL     1      -0.854   1.036   0.912  1.00  0.00     0.034 A 
HETATM    6  C   UNL     1       0.545   0.943   0.905  1.00  0.00     0.031 A 
HETATM    7  C   UNL     1       1.180  -0.231   0.479  1.00  0.00     0.026 A 
HETATM    8  C   UNL     1       0.453  -1.352   0.054  1.00  0.00     0.010 A 
HETATM    9  C   UNL     1      -0.940  -1.241   0.041  1.00  0.00     0.026 A 
HETATM   10  C   UNL     1      -1.582  -0.071   0.470  1.00  0.00     0.031 A 
BRANCH   8  11
HETATM   11  N   UNL     1       1.141  -2.499  -0.353  1.00  0.00    -0.280 NA
HETATM   12  C   UNL     1       0.430  -3.463  -1.217  1.00  0.00     0.123 C 
HETATM   13  C   UNL     1       1.438  -4.476  -1.802  1.00  0.00     0.249 C 
HETATM   14  N   UNL     1       2.163  -5.216  -0.744  1.00  0.00    -0.073 N 
HETATM   15  C   UNL     1       2.837  -4.247   0.152  1.00  0.00     0.249 C 
HETATM   16  C   UNL     1       3.133  -6.131  -1.341  1.00  0.00     0.269 C 
HETATM   17  H   UNL     1       1.502  -5.770  -0.200  1.00  0.00     0.279 HD
HETATM   18  C   UNL     1       1.871  -3.187   0.741  1.00  0.00     0.123 C 
ENDBRANCH   8  11
ENDBRANCH   1   5
TORSDOF 2
