REMARK  2 active torsions:
REMARK  status: ('A' for Active; 'I' for Inactive)
REMARK    1  A    between atoms: C_1  and  C_10 
REMARK    2  A    between atoms: C_5  and  N_7 
ROOT
HETATM    1  N   UNL     1      -1.097   2.603   0.030  1.00  0.00    -0.334 N 
ATOM      2  HN  UNL     1      -0.593   3.362  -0.428  1.00  0.00     0.168 HD
HETATM    3  C   UNL     1      -2.119   2.769   0.586  1.00  0.00     0.353 C 
HETATM    4  O   UNL     1      -3.147   2.932   1.130  1.00  0.00    -0.283 OA
ENDROOT
BRANCH   1   5
HETATM    5  C   UNL     1      -0.620   1.276   0.044  1.00  0.00     0.035 A 
HETATM    6  C   UNL     1      -1.441   0.137  -0.035  1.00  0.00     0.029 A 
HETATM    7  C   UNL     1      -0.885  -1.142  -0.061  1.00  0.00     0.003 A 
HETATM    8  C   UNL     1       0.499  -1.304  -0.006  1.00  0.00     0.014 A 
HETATM    9  C   UNL     1       1.345  -0.192   0.083  1.00  0.00    -0.007 A 
HETATM   10  C   UNL     1       0.771   1.091   0.083  1.00  0.00     0.043 A 
BRANCH   9  11
HETATM   11  C   UNL     1       2.787  -0.396   0.200  1.00  0.00     0.049 A 
HETATM   12  C   UNL     1       3.646   0.495   0.817  1.00  0.00     0.081 A 
HETATM   13  S   UNL     1       5.241  -0.130   0.828  1.00  0.00    -0.087 SA
HETATM   14  C   UNL     1       4.682  -1.538   0.018  1.00  0.00     0.047 A 
HETATM   15  N   UNL     1       3.393  -1.562  -0.250  1.00  0.00    -0.353 N 
HETATM   16  C   UNL     1       5.639  -2.628  -0.313  1.00  0.00     0.076 C 
ATOM     17  HN  UNL     1       2.909  -2.327  -0.720  1.00  0.00     0.166 HD
ENDBRANCH   9  11
ENDBRANCH   1   5
TORSDOF 2
