REMARK  2 active torsions:
REMARK  status: ('A' for Active; 'I' for Inactive)
REMARK    1  A    between atoms: C_2  and  C_11 
REMARK    2  A    between atoms: C_3  and  N_8 
ROOT
HETATM    1  N   UNL     1       0.549  -2.657   0.210  1.00  0.00    -0.330 N 
ATOM      2  HN  UNL     1       0.109  -3.296   0.873  1.00  0.00     0.168 HD
HETATM    3  C   UNL     1       1.463  -2.964  -0.460  1.00  0.00     0.353 C 
HETATM    4  O   UNL     1       2.399  -3.264  -1.104  1.00  0.00    -0.283 OA
ENDROOT
BRANCH   1   5
HETATM    5  C   UNL     1       0.113  -1.336   0.021  1.00  0.00     0.095 A 
HETATM    6  C   UNL     1      -1.209  -0.944  -0.045  1.00  0.00     0.137 A 
HETATM    7  O   UNL     1      -1.241   0.414  -0.178  1.00  0.00    -0.235 OA
HETATM    8  N   UNL     1       0.041   0.924  -0.184  1.00  0.00    -0.263 N 
HETATM    9  C   UNL     1       0.860  -0.128  -0.053  1.00  0.00     0.058 A 
ATOM     10  HN  UNL     1       0.311   1.904  -0.271  1.00  0.00     0.194 HD
HETATM   11  C   UNL     1       2.320   0.123   0.010  1.00  0.00     0.072 C 
BRANCH   6  12
HETATM   12  C   UNL     1      -2.510  -1.601   0.014  1.00  0.00     0.002 A 
HETATM   13  C   UNL     1      -3.635  -1.025  -0.599  1.00  0.00     0.014 A 
HETATM   14  C   UNL     1      -4.884  -1.652  -0.541  1.00  0.00     0.001 A 
HETATM   15  C   UNL     1      -5.025  -2.861   0.133  1.00  0.00     0.000 A 
HETATM   16  C   UNL     1      -3.921  -3.445   0.748  1.00  0.00     0.001 A 
HETATM   17  C   UNL     1      -2.672  -2.820   0.688  1.00  0.00     0.014 A 
ENDBRANCH   6  12
ENDBRANCH   1   5
TORSDOF 2
