REMARK  2 active torsions:
REMARK  status: ('A' for Active; 'I' for Inactive)
REMARK    1  A    between atoms: C_1  and  N_10 
REMARK    2  A    between atoms: C_5  and  N_7 
ROOT
HETATM    1  N   UNL     1      -1.094   2.596   0.102  1.00  0.00    -0.334 N 
ATOM      2  HN  UNL     1      -0.542   3.367  -0.275  1.00  0.00     0.168 HD
HETATM    3  C   UNL     1      -2.151   2.756   0.578  1.00  0.00     0.353 C 
HETATM    4  O   UNL     1      -3.221   2.913   1.043  1.00  0.00    -0.283 OA
ENDROOT
BRANCH   1   5
HETATM    5  C   UNL     1      -0.637   1.262   0.087  1.00  0.00     0.036 A 
HETATM    6  C   UNL     1      -1.460   0.128  -0.034  1.00  0.00     0.029 A 
HETATM    7  C   UNL     1      -0.909  -1.150  -0.109  1.00  0.00     0.004 A 
HETATM    8  C   UNL     1       0.472  -1.321  -0.067  1.00  0.00     0.030 A 
HETATM    9  C   UNL     1       1.313  -0.212   0.076  1.00  0.00     0.040 A 
HETATM   10  C   UNL     1       0.749   1.071   0.139  1.00  0.00     0.059 A 
BRANCH   9  11
HETATM   11  N   UNL     1       2.722  -0.388   0.194  1.00  0.00    -0.333 N 
HETATM   12  C   UNL     1       3.410  -1.585   0.119  1.00  0.00     0.096 A 
HETATM   13  C   UNL     1       4.746  -1.358   0.365  1.00  0.00     0.019 A 
HETATM   14  C   UNL     1       4.899   0.023   0.588  1.00  0.00     0.019 A 
HETATM   15  C   UNL     1       3.656   0.598   0.449  1.00  0.00     0.096 A 
ENDBRANCH   9  11
ENDBRANCH   1   5
TORSDOF 2
