REMARK  1 active torsions:
REMARK  status: ('A' for Active; 'I' for Inactive)
REMARK    1  A    between atoms: C_3  and  N_5 
ROOT
HETATM    1  N   UNL     1      -3.997  -0.839  -0.003  1.00  0.00    -0.334 N 
ATOM      2  HN  UNL     1      -4.242  -1.708   0.472  1.00  0.00     0.168 HD
HETATM    3  C   UNL     1      -4.792  -0.185  -0.566  1.00  0.00     0.353 C 
HETATM    4  O   UNL     1      -5.593   0.480  -1.113  1.00  0.00    -0.283 OA
ENDROOT
BRANCH   1   5
HETATM    5  C   UNL     1      -2.678  -0.339  -0.030  1.00  0.00     0.035 A 
HETATM    6  C   UNL     1      -2.346   1.020  -0.002  1.00  0.00     0.031 A 
HETATM    7  C   UNL     1      -1.013   1.448   0.002  1.00  0.00     0.022 A 
HETATM    8  C   UNL     1       0.012   0.486  -0.003  1.00  0.00     0.015 A 
HETATM    9  S   UNL     1       1.710   0.779   0.001  1.00  0.00    -0.101 SA
HETATM   10  C   UNL     1      -0.272  -0.881  -0.009  1.00  0.00    -0.017 A 
HETATM   11  C   UNL     1       2.072  -0.887  -0.000  1.00  0.00     0.051 A 
HETATM   12  C   UNL     1       0.934  -1.660   0.000  1.00  0.00     0.020 A 
HETATM   13  C   UNL     1      -1.634  -1.278  -0.018  1.00  0.00     0.042 A 
ENDBRANCH   1   5
TORSDOF 1
