REMARK  1 active torsions:
REMARK  status: ('A' for Active; 'I' for Inactive)
REMARK    1  A    between atoms: C_9  and  N_11 
ROOT
HETATM    1  N   UNL     1       3.763  -1.321   0.030  1.00  0.00    -0.334 N 
ATOM      2  HN  UNL     1       3.854  -2.240  -0.403  1.00  0.00     0.168 HD
HETATM    3  C   UNL     1       4.661  -0.782   0.559  1.00  0.00     0.353 C 
HETATM    4  O   UNL     1       5.567  -0.237   1.074  1.00  0.00    -0.283 OA
ENDROOT
BRANCH   1   5
HETATM    5  C   UNL     1       2.548  -0.605   0.037  1.00  0.00     0.034 A 
HETATM    6  C   UNL     1       2.444   0.793  -0.055  1.00  0.00     0.032 A 
HETATM    7  C   UNL     1       1.195   1.417  -0.065  1.00  0.00     0.039 A 
HETATM    8  C   UNL     1       0.029   0.657  -0.003  1.00  0.00     0.075 A 
HETATM    9  O   UNL     1      -1.148   1.357  -0.012  1.00  0.00    -0.351 OA
HETATM   10  C   UNL     1       0.101  -0.737   0.025  1.00  0.00    -0.022 A 
HETATM   11  C   UNL     1      -2.291   0.589   0.378  1.00  0.00     0.176 C 
HETATM   12  C   UNL     1      -2.354  -0.730  -0.372  1.00  0.00     0.031 C 
HETATM   13  C   UNL     1      -1.149  -1.572   0.026  1.00  0.00     0.043 C 
HETATM   14  C   UNL     1       1.361  -1.355   0.065  1.00  0.00     0.039 A 
ENDBRANCH   1   5
TORSDOF 1
