REMARK  2 active torsions:
REMARK  status: ('A' for Active; 'I' for Inactive)
REMARK    1  A    between atoms: C_2  and  N_7 
REMARK    2  A    between atoms: C_5  and  N_13 
ROOT
HETATM    1  N   UNL     1      -1.276   2.519  -0.075  1.00  0.00    -0.334 N 
ATOM      2  HN  UNL     1      -0.703   3.351  -0.218  1.00  0.00     0.168 HD
HETATM    3  C   UNL     1      -2.435   2.576   0.120  1.00  0.00     0.353 C 
HETATM    4  O   UNL     1      -3.594   2.636   0.293  1.00  0.00    -0.283 OA
ENDROOT
BRANCH   1   5
HETATM    5  C   UNL     1      -0.737   1.218  -0.097  1.00  0.00     0.034 A 
HETATM    6  C   UNL     1      -1.413   0.077  -0.555  1.00  0.00     0.032 A 
HETATM    7  C   UNL     1      -0.795  -1.182  -0.538  1.00  0.00     0.031 A 
HETATM    8  C   UNL     1       0.504  -1.348  -0.050  1.00  0.00     0.030 A 
HETATM    9  C   UNL     1       1.195  -0.200   0.351  1.00  0.00     0.031 A 
HETATM   10  C   UNL     1       0.588   1.061   0.324  1.00  0.00     0.032 A 
BRANCH   8  11
HETATM   11  N   UNL     1       1.016  -2.622   0.115  1.00  0.00    -0.381 N 
HETATM   12  C   UNL     1       1.888  -2.905   1.251  1.00  0.00     0.123 C 
HETATM   13  C   UNL     1       1.554  -4.308   1.751  1.00  0.00     0.020 C 
HETATM   14  C   UNL     1       1.697  -5.340   0.632  1.00  0.00     0.003 C 
HETATM   15  C   UNL     1       0.913  -4.938  -0.621  1.00  0.00     0.020 C 
HETATM   16  C   UNL     1       1.196  -3.494  -1.046  1.00  0.00     0.123 C 
ENDBRANCH   8  11
ENDBRANCH   1   5
TORSDOF 2
