REMARK  2 active torsions:
REMARK  status: ('A' for Active; 'I' for Inactive)
REMARK    1  A    between atoms: C_1  and  C_2 
REMARK    2  A    between atoms: C_5  and  N_8 
ROOT
HETATM    1  N   UNL     1      -1.879   6.582  -0.403  1.00  0.00    -0.334 N 
ATOM      2  HN  UNL     1      -2.023   7.137   0.441  1.00  0.00     0.168 HD
HETATM    3  C   UNL     1      -2.067   7.011  -1.480  1.00  0.00     0.353 C 
HETATM    4  O   UNL     1      -2.236   7.442  -2.560  1.00  0.00    -0.283 OA
ENDROOT
BRANCH   1   5
HETATM    5  C   UNL     1      -1.440   5.245  -0.364  1.00  0.00     0.034 A 
HETATM    6  C   UNL     1      -0.573   4.667  -1.304  1.00  0.00     0.030 A 
HETATM    7  C   UNL     1      -0.154   3.336  -1.175  1.00  0.00     0.016 A 
HETATM    8  C   UNL     1      -0.575   2.543  -0.099  1.00  0.00    -0.002 A 
HETATM    9  C   UNL     1      -1.424   3.124   0.851  1.00  0.00     0.016 A 
HETATM   10  C   UNL     1      -1.846   4.456   0.719  1.00  0.00     0.030 A 
BRANCH   8  11
HETATM   11  C   UNL     1      -0.130   1.155   0.002  1.00  0.00     0.085 A 
HETATM   12  C   UNL     1       0.745   0.372  -0.729  1.00  0.00     0.040 A 
HETATM   13  C   UNL     1       0.721  -0.920  -0.154  1.00  0.00     0.027 A 
HETATM   14  C   UNL     1      -0.154  -0.849   0.903  1.00  0.00     0.142 A 
HETATM   15  O   UNL     1      -0.671   0.403   1.009  1.00  0.00    -0.322 OA
ENDBRANCH   8  11
ENDBRANCH   1   5
TORSDOF 2
