REMARK  2 active torsions:
REMARK  status: ('A' for Active; 'I' for Inactive)
REMARK    1  A    between atoms: C_1  and  C_9 
REMARK    2  A    between atoms: C_11  and  N_15 
ROOT
HETATM    1  N   UNL     1       3.908   4.223   2.271  1.00  0.00    -0.334 N 
ATOM      2  HN  UNL     1       4.428   5.088   2.121  1.00  0.00     0.168 HD
HETATM    3  C   UNL     1       3.428   3.953   3.308  1.00  0.00     0.353 C 
HETATM    4  O   UNL     1       2.939   3.696   4.346  1.00  0.00    -0.283 OA
ENDROOT
BRANCH   1   5
HETATM    5  C   UNL     1       3.718   3.272   1.247  1.00  0.00     0.035 A 
HETATM    6  C   UNL     1       2.572   2.473   1.097  1.00  0.00     0.044 A 
HETATM    7  C   UNL     1       2.448   1.562   0.033  1.00  0.00     0.012 A 
HETATM    8  C   UNL     1       3.473   1.485  -0.919  1.00  0.00     0.015 A 
HETATM    9  C   UNL     1       4.608   2.283  -0.797  1.00  0.00     0.003 A 
HETATM   10  C   UNL     1       4.727   3.164   0.280  1.00  0.00     0.029 A 
BRANCH   7  11
HETATM   11  C   UNL     1       1.279   0.695  -0.054  1.00  0.00     0.137 A 
HETATM   12  N   UNL     1       0.262   0.744   0.875  1.00  0.00    -0.323 N 
HETATM   13  C   UNL     1      -0.545  -0.204   0.463  1.00  0.00     0.144 A 
ATOM     14  HN  UNL     1       0.162   1.362   1.680  1.00  0.00     0.169 HD
HETATM   15  O   UNL     1      -0.104  -0.841  -0.657  1.00  0.00    -0.223 OA
HETATM   16  C   UNL     1      -1.825  -0.662   1.023  1.00  0.00     0.100 C 
HETATM   17  N   UNL     1       1.105  -0.241  -1.002  1.00  0.00    -0.242 N 
ATOM     18  HN  UNL     1       1.715  -0.461  -1.789  1.00  0.00     0.196 HD
ENDBRANCH   7  11
ENDBRANCH   1   5
TORSDOF 2
