REMARK  3 active torsions:
REMARK  status: ('A' for Active; 'I' for Inactive)
REMARK    1  A    between atoms: C_4  and  C_7 
REMARK    2  A    between atoms: C_6  and  N_14 
REMARK    3  A    between atoms: C_7  and  N_8 
ROOT
HETATM    1  N   UNL     1       0.715  -3.000  -0.384  1.00  0.00    -0.334 N 
ATOM      2  HN  UNL     1      -0.008  -3.719  -0.356  1.00  0.00     0.168 HD
HETATM    3  C   UNL     1       1.848  -3.250  -0.227  1.00  0.00     0.353 C 
HETATM    4  O   UNL     1       2.986  -3.511  -0.081  1.00  0.00    -0.283 OA
ENDROOT
BRANCH   1   5
HETATM    5  C   UNL     1       0.414  -1.643  -0.614  1.00  0.00     0.034 A 
HETATM    6  C   UNL     1       1.267  -0.718  -1.241  1.00  0.00     0.029 A 
HETATM    7  C   UNL     1       0.853   0.598  -1.464  1.00  0.00     0.003 A 
HETATM    8  C   UNL     1      -0.438   0.998  -1.106  1.00  0.00     0.009 A 
HETATM    9  C   UNL     1      -1.331   0.084  -0.537  1.00  0.00    -0.030 A 
HETATM   10  C   UNL     1      -0.877  -1.218  -0.268  1.00  0.00     0.038 A 
BRANCH   9  11
HETATM   11  C   UNL     1      -2.789   0.442  -0.314  1.00  0.00     0.273 C 
BRANCH  11  12
HETATM   12  N   UNL     1      -3.065   1.227   0.895  1.00  0.00    -0.063 N 
HETATM   13  C   UNL     1      -2.880   0.471   2.155  1.00  0.00     0.261 C 
HETATM   14  C   UNL     1      -4.008  -0.522   2.494  1.00  0.00     0.195 C 
HETATM   15  O   UNL     1      -5.290   0.116   2.491  1.00  0.00    -0.388 OA
HETATM   16  C   UNL     1      -5.542   0.724   1.221  1.00  0.00     0.195 C 
HETATM   17  C   UNL     1      -4.452   1.756   0.874  1.00  0.00     0.261 C 
HETATM   18  H   UNL     1      -2.382   1.984   0.881  1.00  0.00     0.280 HD
ENDBRANCH  11  12
ENDBRANCH   9  11
ENDBRANCH   1   5
TORSDOF 3
