REMARK  2 active torsions:
REMARK  status: ('A' for Active; 'I' for Inactive)
REMARK    1  A    between atoms: C_5  and  N_8 
REMARK    2  A    between atoms: C_7  and  N_14 
ROOT
HETATM    1  N   UNL     1       2.678   0.034   1.296  1.00  0.00    -0.334 N 
ATOM      2  HN  UNL     1       3.287  -0.780   1.212  1.00  0.00     0.168 HD
HETATM    3  C   UNL     1       3.002   1.005   1.864  1.00  0.00     0.353 C 
HETATM    4  O   UNL     1       3.331   1.988   2.421  1.00  0.00    -0.283 OA
ENDROOT
BRANCH   1   5
HETATM    5  C   UNL     1       1.382   0.072   0.735  1.00  0.00     0.039 A 
HETATM    6  C   UNL     1       0.798   1.194   0.156  1.00  0.00     0.046 A 
HETATM    7  C   UNL     1      -0.442   1.048  -0.431  1.00  0.00     0.092 A 
HETATM    8  N   UNL     1      -1.113  -0.121  -0.494  1.00  0.00    -0.352 N 
HETATM    9  C   UNL     1      -0.558  -1.225   0.050  1.00  0.00     0.105 A 
ATOM     10  HN  UNL     1      -2.026  -0.170  -0.946  1.00  0.00     0.166 HD
HETATM   11  C   UNL     1       0.684  -1.140   0.675  1.00  0.00     0.077 A 
BRANCH   9  12
HETATM   12  N   UNL     1      -1.172  -2.446  -0.140  1.00  0.00    -0.363 N 
HETATM   13  C   UNL     1      -2.349  -2.516  -1.017  1.00  0.00     0.150 C 
HETATM   14  C   UNL     1      -2.371  -3.913  -1.663  1.00  0.00     0.187 C 
HETATM   15  O   UNL     1      -2.394  -4.956  -0.669  1.00  0.00    -0.388 OA
HETATM   16  C   UNL     1      -1.245  -4.859   0.192  1.00  0.00     0.187 C 
HETATM   17  C   UNL     1      -1.171  -3.491   0.892  1.00  0.00     0.150 C 
ENDBRANCH   9  12
ENDBRANCH   1   5
TORSDOF 2
