REMARK  3 active torsions:
REMARK  status: ('A' for Active; 'I' for Inactive)
REMARK    1  A    between atoms: N_1  and  C_4 
REMARK    2  A    between atoms: C_7  and  C_9 
REMARK    3  A    between atoms: C_9  and  N_10 
ROOT
HETATM    1  N   UNL     1       0.958  -0.574  -0.333  1.00  0.00    -0.334 N 
ATOM      2  HN  UNL     1       0.292   0.162  -0.098  1.00  0.00     0.168 HD
HETATM    3  C   UNL     1       0.616  -1.664  -0.624  1.00  0.00     0.353 C 
HETATM    4  O   UNL     1       0.269  -2.740  -0.933  1.00  0.00    -0.283 OA
ENDROOT
BRANCH   1   5
HETATM    5  C   UNL     1       2.351  -0.358  -0.333  1.00  0.00     0.034 C 
HETATM    6  C   UNL     1       3.260  -0.976  -1.207  1.00  0.00     0.030 C 
HETATM    7  C   UNL     1       4.636  -0.732  -1.109  1.00  0.00     0.011 C 
HETATM    8  C   UNL     1       5.147   0.077  -0.083  1.00  0.00    -0.032 C 
HETATM    9  C   UNL     1       4.242   0.784   0.715  1.00  0.00     0.011 C 
HETATM   10  C   UNL     1       2.862   0.574   0.583  1.00  0.00     0.030 C 
BRANCH   8  11
HETATM   11  C   UNL     1       6.639   0.058   0.231  1.00  0.00     0.273 C 
BRANCH  11  12
HETATM   12  N   UNL     1       6.945  -0.521   1.563  1.00  0.00    -0.067 N 
HETATM   13  C   UNL     1       6.509  -1.924   1.677  1.00  0.00     0.235 C 
HETATM   14  C   UNL     1       6.780  -2.487   3.077  1.00  0.00     0.028 C 
HETATM   15  C   UNL     1       8.248  -2.352   3.456  1.00  0.00     0.003 C 
HETATM   16  C   UNL     1       8.697  -0.905   3.296  1.00  0.00     0.028 C 
HETATM   17  C   UNL     1       8.378  -0.397   1.886  1.00  0.00     0.235 C 
HETATM   18  H   UNL     1       6.411   0.019   2.245  1.00  0.00     0.280 HD
ENDBRANCH  11  12
ENDBRANCH   8  11
ENDBRANCH   1   5
TORSDOF 3
