REMARK  2 active torsions:
REMARK  status: ('A' for Active; 'I' for Inactive)
REMARK    1  A    between atoms: C_5  and  C_8 
REMARK    2  A    between atoms: C_11  and  N_14 
ROOT
HETATM    1  N   UNL     1       5.352  -4.355   1.148  1.00  0.00    -0.320 N 
ATOM      2  HN  UNL     1       5.684  -5.315   1.055  1.00  0.00     0.169 HD
HETATM    3  C   UNL     1       5.936  -3.519   1.730  1.00  0.00     0.354 C 
HETATM    4  O   UNL     1       6.555  -2.713   2.321  1.00  0.00    -0.283 OA
ENDROOT
BRANCH   1   5
HETATM    5  C   UNL     1       4.152  -3.893   0.596  1.00  0.00     0.114 A 
HETATM    6  C   UNL     1       3.342  -4.758  -0.106  1.00  0.00     0.100 A 
HETATM    7  S   UNL     1       1.948  -3.935  -0.657  1.00  0.00    -0.080 SA
HETATM    8  C   UNL     1       2.514  -2.488   0.091  1.00  0.00     0.086 A 
HETATM    9  N   UNL     1       3.686  -2.599   0.687  1.00  0.00    -0.336 N 
ATOM     10  HN  UNL     1       4.178  -1.835   1.150  1.00  0.00     0.168 HD
BRANCH   8  11
HETATM   11  C   UNL     1       1.740  -1.239   0.022  1.00  0.00    -0.001 A 
HETATM   12  C   UNL     1       2.419  -0.008   0.037  1.00  0.00     0.014 A 
HETATM   13  C   UNL     1       1.719   1.200   0.003  1.00  0.00     0.003 A 
HETATM   14  C   UNL     1       0.326   1.195  -0.034  1.00  0.00     0.024 A 
HETATM   15  C   UNL     1      -0.358  -0.018  -0.042  1.00  0.00     0.035 A 
HETATM   16 CL   UNL     1      -2.079  -0.029  -0.065  1.00  0.00    -0.084 Cl
HETATM   17  C   UNL     1       0.337  -1.227  -0.017  1.00  0.00     0.038 A 
ENDBRANCH   8  11
ENDBRANCH   1   5
TORSDOF 2
