REMARK  2 active torsions:
REMARK  status: ('A' for Active; 'I' for Inactive)
REMARK    1  A    between atoms: C_9  and  C_10 
REMARK    2  A    between atoms: C_10  and  N_11 
ROOT
HETATM    1  N   UNL     1       3.944   1.594   1.562  1.00  0.00    -0.364 N 
ATOM      2  HN  UNL     1       4.499   0.896   2.057  1.00  0.00     0.162 HD
HETATM    3  C   UNL     1       3.588   2.594   2.063  1.00  0.00     0.348 C 
HETATM    4  O   UNL     1       3.236   3.599   2.558  1.00  0.00    -0.284 OA
ENDROOT
BRANCH   1   5
HETATM    5  C   UNL     1       3.525   1.431   0.163  1.00  0.00     0.160 C 
BRANCH   5   6
HETATM    6  C   UNL     1       2.209   0.697   0.038  1.00  0.00    -0.038 A 
HETATM    7  C   UNL     1       0.997   1.408   0.016  1.00  0.00     0.048 A 
HETATM    8  C   UNL     1      -0.178   0.686  -0.009  1.00  0.00     0.105 A 
HETATM    9  C   UNL     1      -0.187  -0.689  -0.021  1.00  0.00     0.105 A 
HETATM   10  O   UNL     1      -1.433   1.211  -0.008  1.00  0.00    -0.323 OA
HETATM   11  C   UNL     1       0.979  -1.421  -0.024  1.00  0.00     0.040 A 
HETATM   12  O   UNL     1      -1.447  -1.200  -0.015  1.00  0.00    -0.323 OA
HETATM   13  C   UNL     1       2.188  -0.717   0.008  1.00  0.00     0.012 A 
HETATM   14  C   UNL     1      -2.228   0.010   0.075  1.00  0.00     0.352 A 
ENDBRANCH   5   6
ENDBRANCH   1   5
TORSDOF 2
