REMARK  3 active torsions:
REMARK  status: ('A' for Active; 'I' for Inactive)
REMARK    1  A    between atoms: C_1  and  O_7 
REMARK    2  A    between atoms: C_4  and  N_14 
REMARK    3  A    between atoms: O_7  and  C_8 
ROOT
HETATM    1  N   UNL     1       4.489   3.870   3.255  1.00  0.00    -0.334 N 
ATOM      2  HN  UNL     1       3.811   4.531   3.635  1.00  0.00     0.168 HD
HETATM    3  C   UNL     1       5.646   4.002   3.398  1.00  0.00     0.353 C 
HETATM    4  O   UNL     1       6.807   4.115   3.551  1.00  0.00    -0.283 OA
ENDROOT
BRANCH   1   5
HETATM    5  C   UNL     1       4.107   2.731   2.520  1.00  0.00     0.034 A 
HETATM    6  C   UNL     1       4.766   1.493   2.582  1.00  0.00     0.032 A 
HETATM    7  C   UNL     1       4.317   0.395   1.841  1.00  0.00     0.039 A 
HETATM    8  C   UNL     1       3.184   0.498   1.034  1.00  0.00     0.069 A 
HETATM    9  C   UNL     1       2.503   1.715   0.988  1.00  0.00     0.039 A 
HETATM   10  C   UNL     1       2.959   2.817   1.723  1.00  0.00     0.032 A 
BRANCH   8  11
HETATM   11  O   UNL     1       2.651  -0.502   0.271  1.00  0.00    -0.346 OA
BRANCH  11  12
HETATM   12  C   UNL     1       3.304  -1.779   0.250  1.00  0.00     0.133 C 
HETATM   13  C   UNL     1       2.915  -2.485  -1.052  1.00  0.00     0.058 C 
HETATM   14  C   UNL     1       3.391  -3.929  -1.048  1.00  0.00     0.170 C 
HETATM   15  O   UNL     1       2.902  -4.622   0.098  1.00  0.00    -0.391 OA
HETATM   16  C   UNL     1       3.377  -4.050   1.314  1.00  0.00     0.170 C 
HETATM   17  C   UNL     1       2.882  -2.621   1.458  1.00  0.00     0.058 C 
ENDBRANCH  11  12
ENDBRANCH   8  11
ENDBRANCH   1   5
TORSDOF 3
