REMARK  3 active torsions:
REMARK  status: ('A' for Active; 'I' for Inactive)
REMARK    1  A    between atoms: C_1  and  C_11 
REMARK    2  A    between atoms: C_4  and  N_18 
REMARK    3  A    between atoms: C_7  and  C_14 
ROOT
HETATM    1  N   UNL     1      -2.860   0.419  -0.201  1.00  0.00    -0.334 N 
ATOM      2  HN  UNL     1      -3.499  -0.374  -0.149  1.00  0.00     0.168 HD
HETATM    3  C   UNL     1      -3.233   1.523  -0.329  1.00  0.00     0.353 C 
HETATM    4  O   UNL     1      -3.608   2.633  -0.443  1.00  0.00    -0.283 OA
ENDROOT
BRANCH   1   5
HETATM    5  C   UNL     1      -1.461   0.273  -0.124  1.00  0.00     0.034 A 
HETATM    6  C   UNL     1      -0.599   1.167   0.528  1.00  0.00     0.030 A 
HETATM    7  C   UNL     1       0.779   0.917   0.598  1.00  0.00     0.016 A 
HETATM    8  C   UNL     1       1.347  -0.236   0.030  1.00  0.00    -0.009 A 
HETATM    9  C   UNL     1       0.470  -1.135  -0.600  1.00  0.00     0.016 A 
HETATM   10  C   UNL     1      -0.906  -0.884  -0.676  1.00  0.00     0.030 A 
BRANCH   8  11
HETATM   11  C   UNL     1       2.799  -0.497   0.125  1.00  0.00     0.042 A 
HETATM   12  N   UNL     1       3.431   0.036   1.202  1.00  0.00    -0.364 N 
HETATM   13  C   UNL     1       4.750  -0.222   1.364  1.00  0.00     0.104 A 
ATOM     14  HN  UNL     1       2.925   0.616   1.872  1.00  0.00     0.165 HD
HETATM   15  C   UNL     1       5.501  -0.994   0.494  1.00  0.00     0.063 A 
HETATM   16  C   UNL     1       4.850  -1.513  -0.625  1.00  0.00     0.020 A 
HETATM   17  C   UNL     1       3.492  -1.260  -0.814  1.00  0.00     0.031 A 
BRANCH  15  18
HETATM   18  C   UNL     1       6.949  -1.265   0.757  1.00  0.00     0.418 C 
HETATM   19  F   UNL     1       7.416  -0.681   1.895  1.00  0.00    -0.166 F 
HETATM   20  F   UNL     1       7.211  -2.595   0.885  1.00  0.00    -0.166 F 
HETATM   21  F   UNL     1       7.753  -0.822  -0.248  1.00  0.00    -0.166 F 
ENDBRANCH  15  18
ENDBRANCH   8  11
ENDBRANCH   1   5
TORSDOF 3
