REMARK  1 active torsions:
REMARK  status: ('A' for Active; 'I' for Inactive)
REMARK    1  A    between atoms: C_4  and  N_7 
ROOT
HETATM    1  N   UNL     1       0.014  -2.574   0.195  1.00  0.00    -0.333 N 
ATOM      2  HN  UNL     1       0.337  -3.267   0.870  1.00  0.00     0.168 HD
HETATM    3  C   UNL     1      -0.912  -2.759  -0.502  1.00  0.00     0.353 C 
HETATM    4  O   UNL     1      -1.847  -2.961  -1.188  1.00  0.00    -0.283 OA
ENDROOT
BRANCH   1   5
HETATM    5  C   UNL     1       0.647  -1.326   0.033  1.00  0.00     0.058 A 
HETATM    6  C   UNL     1       0.058  -0.025   0.016  1.00  0.00     0.044 A 
HETATM    7  C   UNL     1       0.998   0.977  -0.066  1.00  0.00     0.071 A 
HETATM    8 BR   UNL     1      -1.794   0.350   0.137  1.00  0.00    -0.048 Br
HETATM    9  S   UNL     1       2.591   0.354  -0.110  1.00  0.00    -0.110 SA
HETATM   10  C   UNL     1       2.024  -1.253  -0.013  1.00  0.00     0.080 A 
ENDBRANCH   1   5
TORSDOF 1
