REMARK  2 active torsions:
REMARK  status: ('A' for Active; 'I' for Inactive)
REMARK    1  A    between atoms: C_5  and  C_9 
REMARK    2  A    between atoms: C_13  and  N_15 
ROOT
HETATM    1  N   UNL     1       1.675   5.557  -1.993  1.00  0.00    -0.334 N 
ATOM      2  HN  UNL     1       1.666   5.192  -2.945  1.00  0.00     0.168 HD
HETATM    3  C   UNL     1       2.242   6.541  -1.703  1.00  0.00     0.353 C 
HETATM    4  O   UNL     1       2.795   7.537  -1.413  1.00  0.00    -0.283 OA
ENDROOT
BRANCH   1   5
HETATM    5  C   UNL     1       1.005   4.914  -0.930  1.00  0.00     0.035 A 
HETATM    6  C   UNL     1       0.403   5.582   0.148  1.00  0.00     0.029 A 
HETATM    7  C   UNL     1      -0.273   4.872   1.138  1.00  0.00     0.003 A 
HETATM    8  C   UNL     1      -0.371   3.484   1.056  1.00  0.00     0.015 A 
HETATM    9  C   UNL     1       0.197   2.768  -0.013  1.00  0.00     0.010 A 
HETATM   10  C   UNL     1       0.881   3.516  -0.996  1.00  0.00     0.044 A 
BRANCH   9  11
HETATM   11  C   UNL     1       0.064   1.300  -0.103  1.00  0.00     0.115 A 
HETATM   12  N   UNL     1      -0.599   0.671   0.891  1.00  0.00    -0.352 N 
HETATM   13  C   UNL     1      -0.742  -0.662   0.774  1.00  0.00     0.091 A 
ATOM     14  HN  UNL     1      -0.973   1.181   1.691  1.00  0.00     0.166 HD
HETATM   15  C   UNL     1      -0.254  -1.386  -0.285  1.00  0.00     0.034 A 
HETATM   16  C   UNL     1       0.412  -0.658  -1.241  1.00  0.00     0.091 A 
HETATM   17  N   UNL     1       0.586   0.676  -1.177  1.00  0.00    -0.352 N 
ATOM     18  HN  UNL     1       1.087   1.187  -1.904  1.00  0.00     0.166 HD
ENDBRANCH   9  11
ENDBRANCH   1   5
TORSDOF 2
