REMARK  1 active torsions:
REMARK  status: ('A' for Active; 'I' for Inactive)
REMARK    1  A    between atoms: C_4  and  N_7 
ROOT
HETATM    1  N   UNL     1      -0.252   2.691   0.165  1.00  0.00    -0.333 N 
ATOM      2  HN  UNL     1      -0.575   3.378   0.846  1.00  0.00     0.168 HD
HETATM    3  C   UNL     1       0.642   2.901  -0.568  1.00  0.00     0.353 C 
HETATM    4  O   UNL     1       1.549   3.126  -1.280  1.00  0.00    -0.283 OA
ENDROOT
BRANCH   1   5
HETATM    5  C   UNL     1      -0.845   1.421   0.033  1.00  0.00     0.059 A 
HETATM    6  C   UNL     1      -2.270   1.319   0.013  1.00  0.00     0.038 A 
HETATM    7  C   UNL     1      -2.699   0.009  -0.035  1.00  0.00     0.053 A 
HETATM    8  S   UNL     1      -1.389  -1.091  -0.063  1.00  0.00    -0.092 SA
HETATM    9  C   UNL     1      -0.252   0.175   0.022  1.00  0.00     0.078 A 
HETATM   10 BR   UNL     1       1.589  -0.192   0.125  1.00  0.00    -0.041 Br
ENDBRANCH   1   5
TORSDOF 1
