REMARK  3 active torsions:
REMARK  status: ('A' for Active; 'I' for Inactive)
REMARK    1  A    between atoms: C_2  and  O_8 
REMARK    2  A    between atoms: C_6  and  N_15 
REMARK    3  A    between atoms: O_8  and  C_9 
ROOT
HETATM    1  N   UNL     1      -4.916   1.376  -4.282  1.00  0.00    -0.333 N 
ATOM      2  HN  UNL     1      -5.817   1.853  -4.254  1.00  0.00     0.168 HD
HETATM    3  C   UNL     1      -4.601   0.671  -5.165  1.00  0.00     0.353 C 
HETATM    4  O   UNL     1      -4.293  -0.050  -6.042  1.00  0.00    -0.283 OA
ENDROOT
BRANCH   1   5
HETATM    5  C   UNL     1      -3.952   1.512  -3.263  1.00  0.00     0.049 A 
HETATM    6  C   UNL     1      -3.797   2.753  -2.645  1.00  0.00     0.119 A 
HETATM    7  N   UNL     1      -2.934   3.020  -1.637  1.00  0.00    -0.345 N 
HETATM    8  C   UNL     1      -2.183   1.992  -1.197  1.00  0.00     0.142 A 
ATOM      9  HN  UNL     1      -2.856   3.953  -1.231  1.00  0.00     0.167 HD
HETATM   10  C   UNL     1      -2.274   0.707  -1.707  1.00  0.00     0.058 A 
HETATM   11  C   UNL     1      -3.168   0.468  -2.754  1.00  0.00     0.035 A 
BRANCH   8  12
HETATM   12  O   UNL     1      -1.276   2.202  -0.180  1.00  0.00    -0.330 OA
BRANCH  12  13
HETATM   13  C   UNL     1      -0.858   3.572  -0.042  1.00  0.00     0.134 C 
HETATM   14  C   UNL     1       0.086   3.955  -1.188  1.00  0.00     0.059 C 
HETATM   15  C   UNL     1       0.789   5.272  -0.916  1.00  0.00     0.170 C 
HETATM   16  O   UNL     1       1.466   5.229   0.337  1.00  0.00    -0.391 OA
HETATM   17  C   UNL     1       0.559   5.050   1.422  1.00  0.00     0.170 C 
HETATM   18  C   UNL     1      -0.150   3.710   1.310  1.00  0.00     0.059 C 
ENDBRANCH  12  13
ENDBRANCH   8  12
ENDBRANCH   1   5
TORSDOF 3
