REMARK  1 active torsions:
REMARK  status: ('A' for Active; 'I' for Inactive)
REMARK    1  A    between atoms: C_7  and  N_11 
ROOT
HETATM    1  N   UNL     1       3.965  -0.368  -0.221  1.00  0.00    -0.334 N 
ATOM      2  HN  UNL     1       4.359  -1.217   0.185  1.00  0.00     0.168 HD
HETATM    3  C   UNL     1       4.624   0.419  -0.790  1.00  0.00     0.353 C 
HETATM    4  O   UNL     1       5.294   1.210  -1.346  1.00  0.00    -0.283 OA
ENDROOT
BRANCH   1   5
HETATM    5  C   UNL     1       2.591  -0.060  -0.137  1.00  0.00     0.034 A 
HETATM    6  C   UNL     1       1.695  -1.138  -0.103  1.00  0.00     0.038 A 
HETATM    7  C   UNL     1       0.333  -0.888   0.007  1.00  0.00    -0.034 A 
HETATM    8  C   UNL     1      -0.796  -1.863   0.075  1.00  0.00     0.055 C 
HETATM    9  C   UNL     1      -0.175   0.409   0.113  1.00  0.00     0.016 A 
HETATM   10  C   UNL     1      -1.980  -0.918  -0.204  1.00  0.00     0.100 C 
HETATM   11  N   UNL     1      -1.574   0.422   0.257  1.00  0.00    -0.287 NA
HETATM   12  C   UNL     1      -2.304   1.572  -0.243  1.00  0.00     0.116 C 
HETATM   13  C   UNL     1       0.693   1.484   0.110  1.00  0.00     0.026 A 
HETATM   14  C   UNL     1       2.071   1.250  -0.018  1.00  0.00     0.031 A 
ENDBRANCH   1   5
TORSDOF 1
