REMARK  4 active torsions:
REMARK  status: ('A' for Active; 'I' for Inactive)
REMARK    1  A    between atoms: C_1  and  O_11 
REMARK    2  A    between atoms: C_1  and  C_2 
REMARK    3  A    between atoms: C_3  and  N_8 
REMARK    4  A    between atoms: O_11  and  C_12 
ROOT
HETATM    1  N   UNL     1       1.531  -2.268   1.929  1.00  0.00    -0.334 N 
ATOM      2  HN  UNL     1       1.270  -2.894   2.691  1.00  0.00     0.168 HD
HETATM    3  C   UNL     1       2.385  -1.476   2.075  1.00  0.00     0.353 C 
HETATM    4  O   UNL     1       3.213  -0.669   2.276  1.00  0.00    -0.283 OA
ENDROOT
BRANCH   1   5
HETATM    5  C   UNL     1       0.869  -2.342   0.682  1.00  0.00     0.042 A 
HETATM    6  C   UNL     1       0.477  -1.275  -0.168  1.00  0.00    -0.007 A 
HETATM    7  C   UNL     1      -0.313  -1.563  -1.305  1.00  0.00     0.011 A 
HETATM    8  C   UNL     1      -0.742  -2.855  -1.595  1.00  0.00     0.001 A 
HETATM    9  C   UNL     1      -0.367  -3.898  -0.768  1.00  0.00     0.002 A 
HETATM   10  C   UNL     1       0.436  -3.641   0.345  1.00  0.00     0.030 A 
BRANCH   6  11
HETATM   11  C   UNL     1       0.806   0.178   0.124  1.00  0.00     0.216 C 
BRANCH  11  12
HETATM   12  O   UNL     1       0.301   1.048  -0.899  1.00  0.00    -0.347 OA
BRANCH  12  13
HETATM   13  C   UNL     1       0.555   2.383  -0.757  1.00  0.00     0.069 A 
HETATM   14  C   UNL     1       1.214   2.962   0.326  1.00  0.00     0.037 A 
HETATM   15  C   UNL     1       1.423   4.339   0.365  1.00  0.00     0.003 A 
HETATM   16  C   UNL     1       0.979   5.145  -0.681  1.00  0.00     0.000 A 
HETATM   17  C   UNL     1       0.319   4.573  -1.767  1.00  0.00     0.003 A 
HETATM   18  C   UNL     1       0.104   3.193  -1.802  1.00  0.00     0.037 A 
ENDBRANCH  12  13
ENDBRANCH  11  12
ENDBRANCH   6  11
ENDBRANCH   1   5
TORSDOF 4
