REMARK  2 active torsions:
REMARK  status: ('A' for Active; 'I' for Inactive)
REMARK    1  A    between atoms: C_1  and  C_8 
REMARK    2  A    between atoms: C_12  and  N_14 
ROOT
HETATM    1  N   UNL     1       0.393  -5.797   1.943  1.00  0.00    -0.334 N 
ATOM      2  HN  UNL     1       0.516  -5.474   2.903  1.00  0.00     0.168 HD
HETATM    3  C   UNL     1       0.650  -6.888   1.608  1.00  0.00     0.353 C 
HETATM    4  O   UNL     1       0.886  -7.991   1.270  1.00  0.00    -0.283 OA
ENDROOT
BRANCH   1   5
HETATM    5  C   UNL     1      -0.100  -4.963   0.919  1.00  0.00     0.035 A 
HETATM    6  C   UNL     1      -0.973  -5.385  -0.095  1.00  0.00     0.029 A 
HETATM    7  C   UNL     1      -1.455  -4.479  -1.040  1.00  0.00     0.003 A 
HETATM    8  C   UNL     1      -1.092  -3.135  -0.960  1.00  0.00     0.014 A 
HETATM    9  C   UNL     1      -0.238  -2.671   0.054  1.00  0.00    -0.006 A 
HETATM   10  C   UNL     1       0.266  -3.609   0.966  1.00  0.00     0.043 A 
BRANCH   9  11
HETATM   11  C   UNL     1       0.139  -1.251   0.089  1.00  0.00     0.062 A 
HETATM   12  C   UNL     1       0.347  -0.398  -0.986  1.00  0.00     0.050 A 
HETATM   13  C   UNL     1       0.667   0.850  -0.438  1.00  0.00     0.109 A 
HETATM   14  N   UNL     1       0.663   0.825   0.891  1.00  0.00    -0.310 N 
HETATM   15  N   UNL     1       0.323  -0.447   1.200  1.00  0.00    -0.296 N 
ATOM     16  HN  UNL     1       0.869   1.591   1.532  1.00  0.00     0.186 HD
HETATM   17  C   UNL     1       0.156  -0.740   2.604  1.00  0.00     0.178 C 
ENDBRANCH   9  11
ENDBRANCH   1   5
TORSDOF 2
