REMARK  3 active torsions:
REMARK  status: ('A' for Active; 'I' for Inactive)
REMARK    1  A    between atoms: C_5  and  O_9 
REMARK    2  A    between atoms: O_9  and  C_11 
REMARK    3  A    between atoms: C_15  and  N_17 
ROOT
HETATM    1  N   UNL     1      -5.375  -5.201   1.161  1.00  0.00    -0.334 N 
ATOM      2  HN  UNL     1      -5.005  -5.496   2.064  1.00  0.00     0.168 HD
HETATM    3  C   UNL     1      -6.267  -5.752   0.632  1.00  0.00     0.353 C 
HETATM    4  O   UNL     1      -7.170  -6.293   0.106  1.00  0.00    -0.283 OA
ENDROOT
BRANCH   1   5
HETATM    5  C   UNL     1      -4.854  -4.096   0.448  1.00  0.00     0.036 A 
HETATM    6  C   UNL     1      -5.635  -3.233  -0.339  1.00  0.00     0.029 A 
HETATM    7  C   UNL     1      -5.054  -2.170  -1.029  1.00  0.00     0.005 A 
HETATM    8  C   UNL     1      -3.688  -1.936  -0.919  1.00  0.00     0.037 A 
HETATM    9  C   UNL     1      -2.905  -2.719  -0.066  1.00  0.00     0.080 A 
HETATM   10  C   UNL     1      -3.485  -3.812   0.589  1.00  0.00     0.066 A 
BRANCH   9  11
HETATM   11  O   UNL     1      -1.554  -2.512   0.134  1.00  0.00    -0.292 OA
BRANCH  11  12
HETATM   12  C   UNL     1      -1.083  -1.205   0.099  1.00  0.00     0.164 A 
HETATM   13  C   UNL     1       0.228  -0.990  -0.296  1.00  0.00     0.144 A 
HETATM   14  N   UNL     1       0.754   0.255  -0.430  1.00  0.00    -0.370 N 
HETATM   15  C   UNL     1      -0.096   1.274  -0.152  1.00  0.00     0.112 A 
ATOM     16  HN  UNL     1       1.719   0.412  -0.719  1.00  0.00     0.164 HD
HETATM   17  C   UNL     1      -1.406   1.069   0.266  1.00  0.00     0.022 A 
HETATM   18  N   UNL     1      -1.905  -0.179   0.425  1.00  0.00    -0.338 N 
HETATM   19  C   UNL     1      -2.350   2.202   0.505  1.00  0.00     0.069 C 
ATOM     20  HN  UNL     1      -2.851  -0.339   0.772  1.00  0.00     0.168 HD
ENDBRANCH  11  12
ENDBRANCH   9  11
ENDBRANCH   1   5
TORSDOF 3
