REMARK  2 active torsions:
REMARK  status: ('A' for Active; 'I' for Inactive)
REMARK    1  A    between atoms: C_2  and  C_6 
REMARK    2  A    between atoms: C_6  and  N_12 
ROOT
HETATM    1  N   UNL     1      -1.900   2.757  -0.305  1.00  0.00    -0.354 N 
ATOM      2  HN  UNL     1      -2.273   3.250  -1.116  1.00  0.00     0.163 HD
HETATM    3  C   UNL     1      -2.610   2.212   0.455  1.00  0.00     0.349 C 
HETATM    4  O   UNL     1      -3.331   1.683   1.217  1.00  0.00    -0.284 OA
ENDROOT
BRANCH   1   5
HETATM    5  C   UNL     1      -0.435   2.702  -0.042  1.00  0.00     0.070 C 
HETATM    6  C   UNL     1      -0.066   3.544   1.207  1.00  0.00     0.063 C 
HETATM    7  C   UNL     1      -0.269   5.038   0.996  1.00  0.00     0.170 C 
HETATM    8  O   UNL     1       0.448   5.490  -0.146  1.00  0.00    -0.391 OA
HETATM    9  C   UNL     1      -0.013   4.864  -1.338  1.00  0.00     0.170 C 
HETATM   10  C   UNL     1       0.238   3.363  -1.278  1.00  0.00     0.063 C 
BRANCH   5  11
HETATM   11  C   UNL     1       0.030   1.233   0.067  1.00  0.00     0.011 A 
HETATM   12  S   UNL     1       0.141   0.433   1.593  1.00  0.00    -0.104 SA
HETATM   13  C   UNL     1       0.611  -1.043   0.882  1.00  0.00     0.050 A 
HETATM   14  C   UNL     1       0.702  -0.948  -0.486  1.00  0.00     0.008 A 
HETATM   15  C   UNL     1       0.364   0.355  -0.955  1.00  0.00     0.018 A 
ENDBRANCH   5  11
ENDBRANCH   1   5
TORSDOF 2
