REMARK  2 active torsions:
REMARK  status: ('A' for Active; 'I' for Inactive)
REMARK    1  A    between atoms: C_6  and  C_7 
REMARK    2  A    between atoms: C_7  and  N_8 
ROOT
HETATM    1  N   UNL     1       2.406  -1.409   2.129  1.00  0.00    -0.368 N 
ATOM      2  HN  UNL     1       2.711  -2.093   1.436  1.00  0.00     0.161 HD
HETATM    3  C   UNL     1       2.569  -1.550   3.282  1.00  0.00     0.348 C 
HETATM    4  O   UNL     1       2.714  -1.677   4.440  1.00  0.00    -0.284 OA
ENDROOT
BRANCH   1   5
HETATM    5  C   UNL     1       1.721  -0.155   1.773  1.00  0.00     0.126 C 
BRANCH   5   6
HETATM    6  C   UNL     1       1.509  -0.081   0.244  1.00  0.00     0.007 C 
HETATM    7  C   UNL     1       0.696  -1.252  -0.326  1.00  0.00     0.032 C 
HETATM    8  C   UNL     1      -0.755  -1.186   0.129  1.00  0.00     0.168 C 
HETATM    9  O   UNL     1      -1.348   0.047  -0.280  1.00  0.00    -0.391 OA
HETATM   10  C   UNL     1      -0.687   1.194   0.251  1.00  0.00     0.168 C 
HETATM   11  C   UNL     1       0.788   1.223  -0.144  1.00  0.00     0.032 C 
ENDBRANCH   5   6
ENDBRANCH   1   5
TORSDOF 2
