REMARK  1 active torsions:
REMARK  status: ('A' for Active; 'I' for Inactive)
REMARK    1  A    between atoms: C_4  and  N_8 
ROOT
HETATM    1  N   UNL     1       3.055   2.559   0.057  1.00  0.00    -0.333 N 
ATOM      2  HN  UNL     1       3.952   2.611   0.540  1.00  0.00     0.168 HD
HETATM    3  C   UNL     1       2.580   3.486  -0.484  1.00  0.00     0.353 C 
HETATM    4  O   UNL     1       2.095   4.417  -1.012  1.00  0.00    -0.283 OA
ENDROOT
BRANCH   1   5
HETATM    5  C   UNL     1       2.301   1.368  -0.007  1.00  0.00     0.051 A 
HETATM    6  C   UNL     1       0.900   1.294  -0.007  1.00  0.00     0.051 A 
HETATM    7  C   UNL     1       0.269   0.049  -0.025  1.00  0.00     0.028 A 
HETATM    8  C   UNL     1       1.048  -1.096  -0.033  1.00  0.00     0.106 A 
HETATM    9 BR   UNL     1      -1.613  -0.070  -0.029  1.00  0.00    -0.050 Br
HETATM   10  N   UNL     1       2.400  -1.076  -0.020  1.00  0.00    -0.372 N 
HETATM   11  C   UNL     1       2.984   0.149  -0.001  1.00  0.00     0.117 A 
ATOM     12  HN  UNL     1       2.951  -1.935  -0.024  1.00  0.00     0.164 HD
ENDBRANCH   1   5
TORSDOF 1
