REMARK  2 active torsions:
REMARK  status: ('A' for Active; 'I' for Inactive)
REMARK    1  A    between atoms: C_3  and  N_15 
REMARK    2  A    between atoms: C_6  and  N_7 
ROOT
HETATM    1  N   UNL     1      -1.262  -2.297   1.334  1.00  0.00    -0.334 N 
ATOM      2  HN  UNL     1      -0.753  -3.154   1.550  1.00  0.00     0.168 HD
HETATM    3  C   UNL     1      -2.422  -2.208   1.465  1.00  0.00     0.353 C 
HETATM    4  O   UNL     1      -3.588  -2.125   1.609  1.00  0.00    -0.283 OA
ENDROOT
BRANCH   1   5
HETATM    5  C   UNL     1      -0.620  -1.139   0.858  1.00  0.00     0.034 A 
HETATM    6  C   UNL     1      -0.970   0.178   1.199  1.00  0.00     0.032 A 
HETATM    7  C   UNL     1      -0.197   1.265   0.763  1.00  0.00     0.034 A 
HETATM    8  C   UNL     1       0.934   1.057  -0.039  1.00  0.00     0.056 A 
HETATM    9  C   UNL     1       1.282  -0.250  -0.387  1.00  0.00     0.034 A 
HETATM   10  C   UNL     1       0.513  -1.330   0.061  1.00  0.00     0.032 A 
BRANCH   8  11
HETATM   11  N   UNL     1       1.750   2.167  -0.410  1.00  0.00    -0.261 N 
HETATM   12  C   UNL     1       2.645   2.301  -1.466  1.00  0.00     0.032 C 
HETATM   13  C   UNL     1       3.336   3.473  -1.235  1.00  0.00     0.052 C 
HETATM   14  C   UNL     1       2.751   1.395  -2.636  1.00  0.00     0.070 C 
HETATM   15  C   UNL     1       2.753   4.034  -0.087  1.00  0.00     0.024 C 
HETATM   16  C   UNL     1       3.129   5.296   0.594  1.00  0.00     0.070 C 
HETATM   17  N   UNL     1       1.739   3.290   0.362  1.00  0.00    -0.298 N 
ATOM     18  HN  UNL     1       1.095   3.514   1.120  1.00  0.00     0.187 HD
ENDBRANCH   8  11
ENDBRANCH   1   5
TORSDOF 2
