REMARK  3 active torsions:
REMARK  status: ('A' for Active; 'I' for Inactive)
REMARK    1  A    between atoms: C_2  and  C_6 
REMARK    2  A    between atoms: C_6  and  C_7 
REMARK    3  A    between atoms: C_7  and  N_8 
ROOT
HETATM    1  N   UNL     1      -1.529   4.249  -1.337  1.00  0.00    -0.368 N 
ATOM      2  HN  UNL     1      -1.347   4.934  -0.603  1.00  0.00     0.161 HD
HETATM    3  C   UNL     1      -2.140   4.492  -2.309  1.00  0.00     0.348 C 
HETATM    4  O   UNL     1      -2.744   4.722  -3.289  1.00  0.00    -0.284 OA
ENDROOT
BRANCH   1   5
HETATM    5  C   UNL     1      -1.051   2.859  -1.282  1.00  0.00     0.127 C 
BRANCH   5   6
HETATM    6  C   UNL     1      -0.301   2.629   0.037  1.00  0.00     0.066 C 
BRANCH   6   7
HETATM    7  C   UNL     1       0.173   1.208   0.134  1.00  0.00    -0.016 A 
HETATM    8  S   UNL     1      -0.869  -0.008   0.748  1.00  0.00    -0.106 SA
HETATM    9  C   UNL     1       0.268  -1.238   0.414  1.00  0.00     0.050 A 
HETATM   10  C   UNL     1       1.440  -0.733  -0.102  1.00  0.00     0.008 A 
HETATM   11  C   UNL     1       1.393   0.684  -0.245  1.00  0.00     0.015 A 
ENDBRANCH   6   7
ENDBRANCH   5   6
ENDBRANCH   1   5
TORSDOF 3
