REMARK  1 active torsions:
REMARK  status: ('A' for Active; 'I' for Inactive)
REMARK    1  A    between atoms: N_2  and  C_4 
ROOT
HETATM    1  C   UNL     1       0.900   0.087   0.428  1.00  0.00     0.353 C 
HETATM    2  N   UNL     1      -0.226   0.045   0.095  1.00  0.00    -0.334 N 
ATOM      3  HN  UNL     1      -0.680   0.803  -0.414  1.00  0.00     0.168 HD
HETATM    4  O   UNL     1       2.021   0.133   0.779  1.00  0.00    -0.283 OA
ENDROOT
BRANCH   2   5
HETATM    5  C   UNL     1      -0.900  -1.142   0.458  1.00  0.00     0.035 A 
HETATM    6  C   UNL     1      -0.607  -1.917   1.595  1.00  0.00     0.036 A 
HETATM    7  C   UNL     1      -1.343  -3.069   1.903  1.00  0.00    -0.059 A 
HETATM    8  C   UNL     1      -2.403  -3.445   1.071  1.00  0.00     0.013 A 
HETATM    9  C   UNL     1      -1.002  -3.892   3.111  1.00  0.00     0.048 C 
HETATM   10  C   UNL     1      -2.730  -2.685  -0.057  1.00  0.00    -0.059 A 
HETATM   11  C   UNL     1      -1.976  -1.540  -0.350  1.00  0.00     0.036 A 
HETATM   12  C   UNL     1      -3.879  -3.097  -0.931  1.00  0.00     0.048 C 
ENDBRANCH   2   5
TORSDOF 1
