REMARK  1 active torsions:
REMARK  status: ('A' for Active; 'I' for Inactive)
REMARK    1  A    between atoms: N_3  and  C_5 
ROOT
HETATM    1  C   UNL     1      -0.195   0.126  -1.252  1.00  0.00     0.353 C 
HETATM    2  N   UNL     1      -0.245  -0.093  -0.098  1.00  0.00    -0.334 N 
ATOM      3  HN  UNL     1       0.207   0.501   0.597  1.00  0.00     0.168 HD
HETATM    4  O   UNL     1      -0.177   0.347  -2.406  1.00  0.00    -0.283 OA
ENDROOT
BRANCH   2   5
HETATM    5  C   UNL     1      -0.987  -1.252   0.248  1.00  0.00     0.041 A 
HETATM    6  C   UNL     1      -0.620  -1.993   1.397  1.00  0.00    -0.013 A 
HETATM    7  C   UNL     1      -1.349  -3.156   1.723  1.00  0.00     0.042 A 
HETATM    8  C   UNL     1       0.535  -1.569   2.272  1.00  0.00     0.052 C 
HETATM    9 CL   UNL     1      -0.928  -4.148   3.078  1.00  0.00    -0.084 Cl
HETATM   10  C   UNL     1      -2.447  -3.558   0.961  1.00  0.00     0.024 A 
HETATM   11  C   UNL     1      -2.842  -2.806  -0.137  1.00  0.00     0.004 A 
HETATM   12  C   UNL     1      -2.124  -1.664  -0.484  1.00  0.00     0.030 A 
ENDBRANCH   2   5
TORSDOF 1
