REMARK  3 active torsions:
REMARK  status: ('A' for Active; 'I' for Inactive)
REMARK    1  A    between atoms: C_1  and  O_5 
REMARK    2  A    between atoms: N_3  and  C_10 
REMARK    3  A    between atoms: O_5  and  C_11 
ROOT
HETATM    1  C   UNL     1       3.121  -6.762   0.865  1.00  0.00     0.353 C 
HETATM    2  N   UNL     1       2.060  -6.479   0.443  1.00  0.00    -0.334 N 
ATOM      3  HN  UNL     1       1.411  -7.168   0.064  1.00  0.00     0.168 HD
HETATM    4  O   UNL     1       4.189  -7.037   1.268  1.00  0.00    -0.283 OA
ENDROOT
BRANCH   2   5
HETATM    5  C   UNL     1       1.766  -5.102   0.508  1.00  0.00     0.034 A 
HETATM    6  C   UNL     1       2.691  -4.083   0.228  1.00  0.00     0.032 A 
HETATM    7  C   UNL     1       2.323  -2.732   0.287  1.00  0.00     0.039 A 
HETATM    8  C   UNL     1       1.032  -2.370   0.658  1.00  0.00     0.078 A 
HETATM    9  C   UNL     1       0.085  -3.375   0.867  1.00  0.00     0.039 A 
HETATM   10  C   UNL     1       0.449  -4.726   0.793  1.00  0.00     0.032 A 
BRANCH   8  11
HETATM   11  O   UNL     1       0.568  -1.098   0.775  1.00  0.00    -0.255 OA
BRANCH  11  12
HETATM   12  C   UNL     1       1.441  -0.073   1.237  1.00  0.00     0.530 C 
HETATM   13  F   UNL     1       2.680  -0.495   1.565  1.00  0.00    -0.144 F 
HETATM   14  F   UNL     1       0.898   0.496   2.336  1.00  0.00    -0.144 F 
HETATM   15  F   UNL     1       1.550   0.877   0.282  1.00  0.00    -0.144 F 
ENDBRANCH  11  12
ENDBRANCH   8  11
ENDBRANCH   2   5
TORSDOF 3
