REMARK  1 active torsions:
REMARK  status: ('A' for Active; 'I' for Inactive)
REMARK    1  A    between atoms: N_2  and  C_5 
ROOT
HETATM    1  C   UNL     1       0.841  -0.273   0.034  1.00  0.00     0.353 C 
HETATM    2  N   UNL     1      -0.301  -0.016  -0.000  1.00  0.00    -0.332 N 
ATOM      3  HN  UNL     1      -0.761   0.549   0.714  1.00  0.00     0.168 HD
HETATM    4  O   UNL     1       1.990  -0.520   0.083  1.00  0.00    -0.283 OA
ENDROOT
BRANCH   2   5
HETATM    5  C   UNL     1      -0.992  -0.553  -1.114  1.00  0.00     0.073 A 
HETATM    6  C   UNL     1      -0.663  -1.747  -1.785  1.00  0.00     0.143 A 
HETATM    7  F   UNL     1       0.396  -2.474  -1.399  1.00  0.00    -0.204 F 
HETATM    8  C   UNL     1      -1.421  -2.225  -2.853  1.00  0.00     0.044 A 
HETATM    9  C   UNL     1      -2.548  -1.521  -3.269  1.00  0.00     0.003 A 
HETATM   10  C   UNL     1      -2.909  -0.345  -2.614  1.00  0.00     0.002 A 
HETATM   11  C   UNL     1      -2.138   0.131  -1.547  1.00  0.00     0.033 A 
ENDBRANCH   2   5
TORSDOF 1
