REMARK  1 active torsions:
REMARK  status: ('A' for Active; 'I' for Inactive)
REMARK    1  A    between atoms: N_3  and  C_5 
ROOT
HETATM    1  C   UNL     1      -0.537   3.529  -0.548  1.00  0.00     0.353 C 
HETATM    2  N   UNL     1      -1.297   2.883   0.074  1.00  0.00    -0.333 N 
ATOM      3  HN  UNL     1      -2.008   3.316   0.664  1.00  0.00     0.168 HD
HETATM    4  O   UNL     1       0.211   4.213  -1.142  1.00  0.00    -0.283 OA
ENDROOT
BRANCH   2   5
HETATM    5  C   UNL     1      -1.180   1.475  -0.034  1.00  0.00     0.057 A 
HETATM    6  C   UNL     1       0.006   0.694  -0.012  1.00  0.00     0.082 A 
HETATM    7  C   UNL     1      -0.077  -0.713   0.001  1.00  0.00     0.058 A 
HETATM    8 CL   UNL     1       1.573   1.446   0.058  1.00  0.00    -0.080 Cl
HETATM    9 CL   UNL     1       1.325  -1.731   0.027  1.00  0.00    -0.082 Cl
HETATM   10  C   UNL     1      -1.317  -1.356   0.014  1.00  0.00     0.026 A 
HETATM   11  C   UNL     1      -2.485  -0.605   0.000  1.00  0.00     0.004 A 
HETATM   12  C   UNL     1      -2.413   0.785  -0.028  1.00  0.00     0.031 A 
ENDBRANCH   2   5
TORSDOF 1
