REMARK  2 active torsions:
REMARK  status: ('A' for Active; 'I' for Inactive)
REMARK    1  A    between atoms: N_2  and  C_9 
REMARK    2  A    between atoms: C_4  and  C_5 
ROOT
HETATM    1  C   UNL     1      -0.854  -0.820  -0.494  1.00  0.00     0.353 C 
HETATM    2  N   UNL     1      -0.247   0.150  -0.249  1.00  0.00    -0.334 N 
ATOM      3  HN  UNL     1       0.745   0.253  -0.461  1.00  0.00     0.168 HD
HETATM    4  O   UNL     1      -1.486  -1.783  -0.747  1.00  0.00    -0.283 OA
ENDROOT
BRANCH   2   5
HETATM    5  C   UNL     1      -1.011   1.165   0.367  1.00  0.00     0.034 A 
HETATM    6  C   UNL     1      -0.352   2.048   1.227  1.00  0.00     0.030 A 
HETATM    7  C   UNL     1      -1.030   3.113   1.840  1.00  0.00     0.010 A 
HETATM    8  C   UNL     1      -2.395   3.347   1.597  1.00  0.00    -0.051 A 
HETATM    9  C   UNL     1      -3.054   2.438   0.754  1.00  0.00     0.010 A 
HETATM   10  C   UNL     1      -2.377   1.377   0.143  1.00  0.00     0.030 A 
BRANCH   8  11
HETATM   11  C   UNL     1      -3.117   4.553   2.226  1.00  0.00    -0.024 C 
HETATM   12  C   UNL     1      -4.597   4.642   1.786  1.00  0.00     0.019 C 
HETATM   13  C   UNL     1      -3.073   4.454   3.764  1.00  0.00     0.019 C 
HETATM   14  C   UNL     1      -2.442   5.881   1.815  1.00  0.00     0.019 C 
ENDBRANCH   8  11
ENDBRANCH   2   5
TORSDOF 2
