REMARK  3 active torsions:
REMARK  status: ('A' for Active; 'I' for Inactive)
REMARK    1  A    between atoms: C_1  and  C_7 
REMARK    2  A    between atoms: C_7  and  N_10 
REMARK    3  A    between atoms: C_11  and  O_13 
ROOT
HETATM    1  C   LIG     1      -1.392   0.211  -0.079  1.00  0.00    -0.002 A 
HETATM    2  C   LIG     1      -0.180   0.975  -0.001  1.00  0.00     0.003 A 
HETATM    3  N   LIG     1      -1.864   2.369  -0.427  1.00  0.00    -0.365 N 
ATOM      4  HN  LIG     1      -2.393   3.224  -0.599  1.00  0.00     0.165 HD
HETATM    5  C   LIG     1      -2.407   1.117  -0.350  1.00  0.00     0.098 A 
HETATM    6  C   LIG     1      -0.503   2.313  -0.240  1.00  0.00     0.043 A 
HETATM    7  C   LIG     1       1.171   0.643   0.242  1.00  0.00     0.051 A 
HETATM    8  C   LIG     1       0.458   3.328  -0.276  1.00  0.00     0.033 A 
HETATM    9  C   LIG     1       2.149   1.642   0.216  1.00  0.00     0.069 A 
HETATM   10  C   LIG     1       1.793   2.963  -0.060  1.00  0.00     0.039 A 
ENDROOT
BRANCH   1  11
HETATM   11  C   LIG     1      -1.527  -1.270   0.124  1.00  0.00     0.312 C 
BRANCH  11  12
HETATM   12  N   LIG     1      -2.097  -1.938  -1.060  1.00  0.00     0.084 N 
HETATM   13  C   LIG     1      -1.186  -1.888  -2.207  1.00  0.00     0.309 C 
HETATM   14  C   LIG     1      -2.393  -3.337  -0.738  1.00  0.00     0.309 C 
ENDBRANCH  11  12
ENDBRANCH   1  11
BRANCH   9  15
HETATM   15  O   LIG     1       3.491   1.424   0.393  1.00  0.00    -0.356 OA
HETATM   16  C   LIG     1       3.824   0.293   1.192  1.00  0.00     0.210 C 
ENDBRANCH   9  15
TORSDOF 3
