REMARK  3 active torsions:
REMARK  status: ('A' for Active; 'I' for Inactive)
REMARK    1  A    between atoms: N_1  and  C_2 
REMARK    2  A    between atoms: C_2  and  C_5 
REMARK    3  A    between atoms: C_6  and  O_7 
ROOT
HETATM    1 CL   LIG     2       3.960   0.160  -2.266  1.00  0.00     0.000 Cl
ENDROOT
TORSDOF 3
