REMARK  1 active torsions:
REMARK  status: ('A' for Active; 'I' for Inactive)
REMARK    1  A    between atoms: C_1  and  N_2 
ROOT
HETATM    1  C   LIG     1       0.213  -1.467   0.347  1.00  0.00     0.036 A 
HETATM    2  C   LIG     1       1.315  -0.661  -0.026  1.00  0.00    -0.029 A 
HETATM    3  C   LIG     1       1.164   0.753  -0.060  1.00  0.00    -0.054 A 
HETATM    4  C   LIG     1      -1.025  -0.842   0.590  1.00  0.00     0.030 A 
HETATM    5  C   LIG     1       2.657  -1.261  -0.361  1.00  0.00     0.051 C 
HETATM    6  C   LIG     1      -1.181   0.538   0.511  1.00  0.00     0.003 A 
HETATM    7  C   LIG     1      -0.089   1.332   0.195  1.00  0.00     0.007 A 
HETATM    8  C   LIG     1       2.311   1.672  -0.396  1.00  0.00     0.049 C 
ENDROOT
BRANCH   1   9
HETATM    9  N   LIG     1       0.221  -2.856   0.495  1.00  0.00    -0.377 N 
HETATM   10  C   LIG     1      -0.044  -3.617  -0.736  1.00  0.00     0.150 C 
HETATM   11  C   LIG     1      -0.382  -5.086  -0.386  1.00  0.00     0.252 C 
HETATM   12  N   LIG     1       0.626  -5.745   0.476  1.00  0.00    -0.072 N 
HETATM   13  C   LIG     1       0.799  -4.929   1.700  1.00  0.00     0.252 C 
ATOM     14  HN2 LIG     1       1.507  -5.915  -0.010  1.00  0.00     0.277 HD
ATOM     15  HN1 LIG     1       0.391  -6.716   0.682  1.00  0.00     0.277 HD
HETATM   16  C   LIG     1       1.199  -3.463   1.408  1.00  0.00     0.150 C 
ENDBRANCH   1   9
TORSDOF 1
