REMARK  2 active torsions:
REMARK  status: ('A' for Active; 'I' for Inactive)
REMARK    1  A    between atoms: C_4  and  C_10 
REMARK    2  A    between atoms: N_5  and  C_10 
ROOT
HETATM    1  C   LIG     1      -0.810   1.134  -0.177  1.00  0.00     0.051 A 
HETATM    2  C   LIG     1      -1.410  -0.120  -0.110  1.00  0.00     0.117 A 
HETATM    3  F   LIG     1      -2.744  -0.215  -0.188  1.00  0.00    -0.206 F 
HETATM    4  C   LIG     1       0.584   1.247  -0.099  1.00  0.00    -0.030 A 
HETATM    5  C   LIG     1       0.737  -1.175   0.123  1.00  0.00     0.004 A 
HETATM    6  C   LIG     1      -0.650  -1.274   0.038  1.00  0.00     0.042 A 
HETATM    7  C   LIG     1       1.350   0.079   0.056  1.00  0.00     0.009 A 
ENDROOT
BRANCH   4   8
HETATM    8  C   LIG     1       1.254   2.595  -0.167  1.00  0.00     0.268 C 
BRANCH   8   9
HETATM    9  N   LIG     1       1.846   2.955   1.114  1.00  0.00    -0.075 N 
ATOM     10  HN3 LIG     1       1.160   2.915   1.868  1.00  0.00     0.274 HD
ATOM     11  HN2 LIG     1       2.487   2.234   1.447  1.00  0.00     0.274 HD
ATOM     12  HN1 LIG     1       2.300   3.867   1.068  1.00  0.00     0.274 HD
ENDBRANCH   8   9
ENDBRANCH   4   8
TORSDOF 2
