REMARK  1 active torsions:
REMARK  status: ('A' for Active; 'I' for Inactive)
REMARK    1  A    between atoms: C_1  and  C_2 
ROOT
HETATM    1  C   LIG     1       0.279  -0.774   0.848  1.00  0.00     0.112 C 
HETATM    2  N   LIG     1      -0.541  -2.145  -1.084  1.00  0.00    -0.074 N 
ATOM      3  HN1 LIG     1      -0.546  -3.070  -1.515  1.00  0.00     0.277 HD
ATOM      4  HN2 LIG     1      -0.035  -1.634  -1.808  1.00  0.00     0.277 HD
HETATM    5  C   LIG     1       0.197  -2.150   0.177  1.00  0.00     0.247 C 
HETATM    6  C   LIG     1      -1.111  -0.130   0.956  1.00  0.00     0.019 C 
HETATM    7  C   LIG     1      -1.898  -1.628  -0.918  1.00  0.00     0.232 C 
HETATM    8  C   LIG     1      -1.886  -0.209  -0.359  1.00  0.00     0.028 C 
ENDROOT
BRANCH   1   9
HETATM    9  C   LIG     1       1.283   0.146   0.166  1.00  0.00     0.178 C 
HETATM   10  O   LIG     1       1.016   1.214  -0.364  1.00  0.00    -0.648 OA
HETATM   11  O   LIG     1       2.566  -0.275   0.287  1.00  0.00    -0.648 OA
ENDBRANCH   1   9
TORSDOF 1
