REMARK  0 active torsions:
REMARK  status: ('A' for Active; 'I' for Inactive)
ROOT
HETATM    1  C   LIG     1       2.345   0.077   0.000  1.00  0.00     0.222 A 
HETATM    2  N   LIG     1       1.603  -1.086  -0.000  1.00  0.00    -0.320 N 
HETATM    3  O   LIG     1       1.543   1.218   0.001  1.00  0.00    -0.282 OA
HETATM    4  C   LIG     1       0.275  -0.709   0.000  1.00  0.00     0.070 A 
HETATM    5  C   LIG     1       0.268   0.673   0.001  1.00  0.00     0.105 A 
HETATM    6  S   LIG     1       3.990   0.290   0.000  1.00  0.00    -0.032 SA
HETATM    7  C   LIG     1       2.046  -2.460  -0.002  1.00  0.00     0.159 C 
HETATM    8  C   LIG     1      -0.889  -1.448  -0.000  1.00  0.00     0.033 A 
HETATM    9  C   LIG     1      -0.906   1.394   0.000  1.00  0.00     0.040 A 
HETATM   10  C   LIG     1      -2.095  -0.738  -0.000  1.00  0.00     0.002 A 
HETATM   11  C   LIG     1      -2.103   0.672  -0.000  1.00  0.00     0.003 A 
ENDROOT
TORSDOF 0
