REMARK  1 active torsions:
REMARK  status: ('A' for Active; 'I' for Inactive)
REMARK    1  A    between atoms: C_3  and  O_9 
ROOT
HETATM    1  N   LIG     1       1.614   1.170   0.000  1.00  0.00    -0.314 N 
ATOM      2  HN  LIG     1       1.962   2.129   0.000  1.00  0.00     0.170 HD
HETATM    3  C   LIG     1       2.289   0.049   0.000  1.00  0.00     0.268 A 
HETATM    4  O   LIG     1       1.586  -1.107   0.000  1.00  0.00    -0.272 OA
HETATM    5  C   LIG     1       0.291  -0.668   0.000  1.00  0.00     0.108 A 
HETATM    6  C   LIG     1       0.315   0.722   0.000  1.00  0.00     0.070 A 
HETATM    7  C   LIG     1      -0.861  -1.444   0.001  1.00  0.00     0.063 A 
HETATM    8  C   LIG     1      -0.900   1.419   0.000  1.00  0.00     0.034 A 
HETATM    9  C   LIG     1      -2.061  -0.728   0.001  1.00  0.00     0.036 A 
HETATM   10  C   LIG     1      -2.090   0.673   0.000  1.00  0.00     0.026 A 
HETATM   11 CL   LIG     1      -3.550  -1.596   0.003  1.00  0.00    -0.084 Cl
ENDROOT
BRANCH   3  12
HETATM   12  O   LIG     1       3.597  -0.044   0.001  1.00  0.00    -0.326 OA
ATOM     13  HO  LIG     1       4.087  -0.858   0.001  1.00  0.00     0.221 HD
ENDBRANCH   3  12
TORSDOF 1
