REMARK  1 active torsions:
REMARK  status: ('A' for Active; 'I' for Inactive)
REMARK    1  A    between atoms: C_3  and  C_8 
ROOT
HETATM    1  N   LIG     1      -0.244  -1.050   0.394  1.00  0.00    -0.300 N 
ATOM      2  HN  LIG     1      -0.471  -2.006   0.669  1.00  0.00     0.187 HD
HETATM    3  C   LIG     1       0.950  -0.572   0.000  1.00  0.00     0.059 A 
HETATM    4  N   LIG     1      -1.070   0.003   0.347  1.00  0.00    -0.311 N 
ATOM      5  HN  LIG     1      -2.057  -0.051   0.597  1.00  0.00     0.186 HD
HETATM    6  C   LIG     1       0.843   0.816  -0.300  1.00  0.00     0.050 A 
HETATM    7  C   LIG     1      -0.469   1.151  -0.065  1.00  0.00     0.109 A 
ENDROOT
BRANCH   3   8
HETATM    8  C   LIG     1       2.138  -1.434  -0.080  1.00  0.00    -0.008 A 
HETATM    9  C   LIG     1       3.407  -0.904  -0.360  1.00  0.00     0.014 A 
HETATM   10  C   LIG     1       4.529  -1.736  -0.435  1.00  0.00     0.001 A 
HETATM   11  C   LIG     1       4.399  -3.108  -0.233  1.00  0.00     0.000 A 
HETATM   12  C   LIG     1       3.147  -3.650   0.046  1.00  0.00     0.001 A 
HETATM   13  C   LIG     1       2.026  -2.819   0.122  1.00  0.00     0.014 A 
ENDBRANCH   3   8
TORSDOF 1
