REMARK  0 active torsions:
REMARK  status: ('A' for Active; 'I' for Inactive)
ROOT
HETATM    1  N   LIG     1      -2.392   0.019   0.204  1.00  0.00    -0.311 N 
ATOM      2  HN  LIG     1      -3.410   0.051   0.267  1.00  0.00     0.186 HD
HETATM    3  C   LIG     1      -0.229  -0.719   0.071  1.00  0.00     0.011 A 
HETATM    4  N   LIG     1      -1.528   1.047   0.131  1.00  0.00    -0.300 N 
ATOM      5  HN  LIG     1      -1.825   2.023   0.138  1.00  0.00     0.187 HD
HETATM    6  C   LIG     1      -0.213   0.669   0.047  1.00  0.00     0.059 A 
HETATM    7  C   LIG     1      -1.597  -1.055   0.174  1.00  0.00     0.120 A 
HETATM    8  C   LIG     1       0.988  -1.422   0.011  1.00  0.00     0.041 A 
HETATM    9  C   LIG     1       0.967   1.412  -0.026  1.00  0.00     0.034 A 
HETATM   10  C   LIG     1       2.189  -0.710  -0.122  1.00  0.00     0.047 A 
HETATM   11  N   LIG     1       3.414  -1.390  -0.053  1.00  0.00    -0.102 NA
HETATM   12  C   LIG     1       2.167   0.689  -0.087  1.00  0.00     0.029 A 
ENDROOT
TORSDOF 0
