REMARK  2 active torsions:
REMARK  status: ('A' for Active; 'I' for Inactive)
REMARK    1  A    between atoms: C_1  and  C_6 
REMARK    2  A    between atoms: C_6  and  O_9 
ROOT
HETATM    1  C   LIG     1      -1.547  -0.844   0.081  1.00  0.00     0.067 A 
HETATM    2  C   LIG     1      -2.269   0.340   0.060  1.00  0.00     0.107 A 
HETATM    3  C   LIG     1      -0.161  -0.473   0.033  1.00  0.00     0.008 A 
HETATM    4  N   LIG     1      -1.390   1.387   0.008  1.00  0.00    -0.364 N 
ATOM      5  HN  LIG     1      -1.656   2.372  -0.014  1.00  0.00     0.165 HD
HETATM    6  C   LIG     1      -0.098   0.921  -0.011  1.00  0.00     0.043 A 
HETATM    7  C   LIG     1       1.052  -1.196   0.023  1.00  0.00     0.015 A 
HETATM    8  C   LIG     1       1.111   1.626  -0.063  1.00  0.00     0.030 A 
HETATM    9  C   LIG     1       2.269  -0.507  -0.031  1.00  0.00     0.001 A 
HETATM   10  C   LIG     1       2.296   0.884  -0.073  1.00  0.00     0.002 A 
ENDROOT
BRANCH   1  11
HETATM   11  C   LIG     1      -2.108  -2.189   0.139  1.00  0.00     0.295 C 
HETATM   12  O   LIG     1      -1.427  -3.209   0.175  1.00  0.00    -0.259 OA
BRANCH  11  13
HETATM   13  O   LIG     1      -3.475  -2.186   0.149  1.00  0.00    -0.322 OA
HETATM   14  C   LIG     1      -4.061  -3.485   0.203  1.00  0.00     0.213 C 
ENDBRANCH  11  13
ENDBRANCH   1  11
TORSDOF 2
