REMARK  0 active torsions:
REMARK  status: ('A' for Active; 'I' for Inactive)
ROOT
HETATM    1  N   LIG     1      -1.592   1.036  -0.155  1.00  0.00    -0.359 N 
ATOM      2  HN  LIG     1      -1.906   2.006  -0.158  1.00  0.00     0.166 HD
HETATM    3  C   LIG     1      -0.271  -0.756  -0.052  1.00  0.00    -0.006 A 
HETATM    4  C   LIG     1      -2.422  -0.057  -0.218  1.00  0.00     0.006 A 
HETATM    5  C   LIG     1      -1.628  -1.180  -0.099  1.00  0.00     0.038 A 
HETATM    6  C   LIG     1      -0.277   0.637  -0.087  1.00  0.00     0.042 A 
HETATM    7  C   LIG     1       0.965  -1.428   0.006  1.00  0.00     0.040 A 
HETATM    8  C   LIG     1       0.898   1.393  -0.051  1.00  0.00     0.032 A 
HETATM    9  C   LIG     1       2.161  -0.699  -0.056  1.00  0.00     0.047 A 
HETATM   10  N   LIG     1       3.392  -1.362   0.065  1.00  0.00    -0.102 NA
HETATM   11  C   LIG     1       2.112   0.696  -0.020  1.00  0.00     0.029 A 
HETATM   12  C   LIG     1      -3.888   0.070  -0.404  1.00  0.00     0.068 C 
ENDROOT
TORSDOF 0
