REMARK  1 active torsions:
REMARK  status: ('A' for Active; 'I' for Inactive)
REMARK    1  A    between atoms: C_5  and  C_6 
ROOT
HETATM    1  N   LIG     1       1.368   0.080  -0.085  1.00  0.00    -0.364 N 
ATOM      2  HN  LIG     1       2.381   0.156  -0.173  1.00  0.00     0.165 HD
HETATM    3  N   LIG     1      -1.445  -0.161   0.143  1.00  0.00    -0.372 N 
ATOM      4  HN  LIG     1      -2.458  -0.244   0.224  1.00  0.00     0.164 HD
HETATM    5  C   LIG     1       0.572   1.174   0.013  1.00  0.00     0.046 A 
HETATM    6  C   LIG     1      -0.811   1.041   0.117  1.00  0.00     0.117 A 
HETATM    7  C   LIG     1       0.739  -1.119  -0.059  1.00  0.00     0.105 A 
HETATM    8  C   LIG     1      -0.635  -1.237   0.054  1.00  0.00     0.104 A 
ENDROOT
BRANCH   5   9
HETATM    9  C   LIG     1       1.286   2.454  -0.035  1.00  0.00     0.021 C 
HETATM   10  C   LIG     1       0.790   3.667   0.248  1.00  0.00     0.013 C 
ENDBRANCH   5   9
TORSDOF 1
