REMARK  1 active torsions:
REMARK  status: ('A' for Active; 'I' for Inactive)
REMARK    1  A    between atoms: C_3  and  O_7 
ROOT
HETATM    1  N   LIG     1       1.637   1.069   0.001  1.00  0.00    -0.330 N 
ATOM      2  HN  LIG     1       1.897   2.055   0.002  1.00  0.00     0.168 HD
HETATM    3  C   LIG     1       2.468   0.062   0.001  1.00  0.00     0.185 A 
HETATM    4  S   LIG     1       1.815  -1.503   0.000  1.00  0.00    -0.045 SA
HETATM    5  C   LIG     1       0.341   0.573   0.000  1.00  0.00     0.051 A 
HETATM    6  C   LIG     1       0.231  -0.821   0.000  1.00  0.00     0.035 A 
HETATM    7  C   LIG     1      -0.841   1.343   0.000  1.00  0.00     0.031 A 
HETATM    8  C   LIG     1      -1.014  -1.470   0.000  1.00  0.00     0.021 A 
HETATM    9  C   LIG     1      -2.170  -0.682   0.000  1.00  0.00     0.002 A 
HETATM   10  C   LIG     1      -2.087   0.707  -0.000  1.00  0.00     0.002 A 
ENDROOT
BRANCH   3  11
HETATM   11  O   LIG     1       3.766   0.301   0.001  1.00  0.00    -0.341 OA
ATOM     12  HO  LIG     1       4.371  -0.432   0.001  1.00  0.00     0.220 HD
ENDBRANCH   3  11
TORSDOF 1
