REMARK  0 active torsions:
REMARK  status: ('A' for Active; 'I' for Inactive)
ROOT
HETATM    1  N   LIG     1       0.673   1.185  -0.007  1.00  0.00    -0.405 N 
ATOM      2  HN  LIG     1       1.125   1.996  -0.429  1.00  0.00     0.154 HD
HETATM    3  C   LIG     1       1.440  -0.041   0.304  1.00  0.00     0.025 C 
HETATM    4  C   LIG     1      -0.771   1.198   0.314  1.00  0.00     0.025 C 
HETATM    5  C   LIG     1      -0.718  -1.285   0.195  1.00  0.00     0.131 C 
HETATM    6  C   LIG     1      -1.484  -0.054  -0.210  1.00  0.00     0.108 C 
HETATM    7  C   LIG     1       0.735  -1.309  -0.193  1.00  0.00     0.108 C 
HETATM    8  O   LIG     1      -1.273  -2.258   0.707  1.00  0.00    -0.298 OA
HETATM    9  C   LIG     1      -1.029   1.387   1.821  1.00  0.00     0.038 C 
HETATM   10  C   LIG     1       2.794   0.079  -0.433  1.00  0.00     0.038 C 
HETATM   11  C   LIG     1       1.769  -0.148   1.805  1.00  0.00     0.038 C 
HETATM   12  C   LIG     1      -1.376   2.432  -0.393  1.00  0.00     0.038 C 
ENDROOT
TORSDOF 0
