REMARK  5 active torsions:
REMARK  status: ('A' for Active; 'I' for Inactive)
REMARK    1  A    between atoms: N_1  and  C_3 
REMARK    2  A    between atoms: N_2  and  C_15 
REMARK    3  A    between atoms: C_3  and  C_8 
REMARK    4  A    between atoms: C_15  and  C_18 
REMARK    5  A    between atoms: O_16  and  C_18 
ROOT
HETATM    1  N   LIG     1      -0.288   0.157  -0.768  1.00  0.00     0.096 N 
HETATM    2  N   LIG     1      -0.482  -0.159   2.257  1.00  0.00     0.093 N 
HETATM    3  C   LIG     1       0.908   0.077   0.112  1.00  0.00     0.303 C 
HETATM    4  C   LIG     1      -1.468   0.539   0.032  1.00  0.00     0.303 C 
HETATM    5  C   LIG     1       0.709  -0.610   1.496  1.00  0.00     0.302 C 
HETATM    6  C   LIG     1      -1.642  -0.245   1.351  1.00  0.00     0.302 C 
ENDROOT
BRANCH   1   7
HETATM    7  C   LIG     1      -0.474  -1.102  -1.509  1.00  0.00     0.311 C 
BRANCH   7   8
HETATM    8  C   LIG     1      -1.669  -1.127  -2.461  1.00  0.00    -0.030 A 
HETATM    9  C   LIG     1      -2.688  -2.074  -2.261  1.00  0.00     0.012 A 
HETATM   10  C   LIG     1      -3.762  -2.163  -3.159  1.00  0.00     0.043 A 
HETATM   11  C   LIG     1      -3.811  -1.310  -4.248  1.00  0.00     0.116 A 
HETATM   12  C   LIG     1      -2.833  -0.356  -4.461  1.00  0.00     0.043 A 
HETATM   13  F   LIG     1      -4.829  -1.420  -5.124  1.00  0.00    -0.206 F 
HETATM   14  C   LIG     1      -1.758  -0.264  -3.561  1.00  0.00     0.012 A 
ENDBRANCH   7   8
ENDBRANCH   1   7
BRANCH   2  15
HETATM   15  C   LIG     1      -0.270   1.201   2.810  1.00  0.00     0.298 C 
BRANCH  15  16
HETATM   16  C   LIG     1      -1.439   1.763   3.644  1.00  0.00     0.194 C 
BRANCH  16  17
HETATM   17  O   LIG     1      -1.724   0.968   4.789  1.00  0.00    -0.399 OA
ATOM     18  HO  LIG     1      -2.444   1.314   5.303  1.00  0.00     0.209 HD
ENDBRANCH  16  17
ENDBRANCH  15  16
ENDBRANCH   2  15
TORSDOF 5
