REMARK  2 active torsions:
REMARK  status: ('A' for Active; 'I' for Inactive)
REMARK    1  A    between atoms: C_1  and  C_2 
REMARK    2  A    between atoms: C_2  and  N_3 
ROOT
HETATM    1  N   LIG     1       3.242  -0.789  -1.646  1.00  0.00     0.094 N 
HETATM    2  N   LIG     1       4.503  -2.149  -4.288  1.00  0.00    -0.073 N 
ATOM      3  HN1 LIG     1       3.594  -2.063  -4.743  1.00  0.00     0.277 HD
ATOM      4  HN2 LIG     1       4.943  -2.824  -4.913  1.00  0.00     0.277 HD
HETATM    5  C   LIG     1       3.560   0.210  -2.679  1.00  0.00     0.274 C 
HETATM    6  C   LIG     1       5.009   0.085  -3.152  1.00  0.00     0.057 C 
HETATM    7  C   LIG     1       5.217  -0.877  -4.319  1.00  0.00     0.234 C 
HETATM    8  C   LIG     1       3.123  -2.153  -2.203  1.00  0.00     0.300 C 
HETATM    9  C   LIG     1       4.357  -2.709  -2.945  1.00  0.00     0.262 C 
ENDROOT
BRANCH   1  10
HETATM   10  C   LIG     1       1.992  -0.459  -0.929  1.00  0.00     0.316 C 
BRANCH  10  11
HETATM   11  C   LIG     1       2.047   0.803  -0.098  1.00  0.00     0.030 A 
HETATM   12  C   LIG     1       2.916   0.978   0.990  1.00  0.00     0.045 A 
HETATM   13 CL   LIG     1       4.026  -0.249   1.492  1.00  0.00    -0.084 Cl
HETATM   14  C   LIG     1       2.900   2.166   1.735  1.00  0.00     0.024 A 
HETATM   15  C   LIG     1       2.012   3.192   1.415  1.00  0.00     0.005 A 
HETATM   16  C   LIG     1       1.139   3.031   0.345  1.00  0.00     0.043 A 
HETATM   17  C   LIG     1       1.164   1.850  -0.394  1.00  0.00     0.126 A 
HETATM   18  F   LIG     1       0.303   1.730  -1.417  1.00  0.00    -0.205 F 
ENDBRANCH  10  11
ENDBRANCH   1  10
TORSDOF 2
