REMARK  2 active torsions:
REMARK  status: ('A' for Active; 'I' for Inactive)
REMARK    1  A    between atoms: C_1  and  C_2 
REMARK    2  A    between atoms: C_3  and  N_6 
ROOT
HETATM    1  C   LIG     1       0.294  -1.325  -2.894  1.00  0.00     0.063 A 
HETATM    2  C   LIG     1       0.090  -3.951  -2.012  1.00  0.00     0.082 A 
HETATM    3  N   LIG     1       0.551  -3.704  -3.257  1.00  0.00    -0.356 N 
ATOM      4  HN  LIG     1       0.825  -4.470  -3.873  1.00  0.00     0.166 HD
HETATM    5  C   LIG     1       0.641  -2.417  -3.670  1.00  0.00     0.105 A 
HETATM    6  C   LIG     1      -0.181  -1.586  -1.609  1.00  0.00     0.021 A 
HETATM    7  C   LIG     1      -0.283  -2.904  -1.167  1.00  0.00     0.043 A 
ENDROOT
BRANCH   2   8
HETATM    8  N   LIG     1      -0.002  -5.281  -1.527  1.00  0.00    -0.268 NA
HETATM    9  C   LIG     1       0.894  -6.185  -2.273  1.00  0.00     0.098 C 
HETATM   10  C   LIG     1       1.175  -7.434  -1.443  1.00  0.00     0.042 C 
HETATM   11  C   LIG     1       0.159  -8.557  -1.646  1.00  0.00     0.233 C 
HETATM   12  N   LIG     1      -1.256  -8.202  -1.717  1.00  0.00    -0.074 N 
HETATM   13  C   LIG     1      -1.642  -7.083  -0.852  1.00  0.00     0.247 C 
ATOM     14  HN2 LIG     1      -1.838  -9.018  -1.525  1.00  0.00     0.277 HD
ATOM     15  HN1 LIG     1      -1.529  -8.017  -2.682  1.00  0.00     0.277 HD
HETATM   16  C   LIG     1      -1.421  -5.699  -1.503  1.00  0.00     0.124 C 
ENDBRANCH   2   8
BRANCH   1  17
HETATM   17  C   LIG     1       0.437   0.069  -3.416  1.00  0.00     0.418 C 
HETATM   18  F   LIG     1       0.922   0.131  -4.688  1.00  0.00    -0.166 F 
HETATM   19  F   LIG     1       1.280   0.825  -2.660  1.00  0.00    -0.166 F 
HETATM   20  F   LIG     1      -0.747   0.741  -3.438  1.00  0.00    -0.166 F 
ENDBRANCH   1  17
TORSDOF 2
