REMARK  2 active torsions:
REMARK  status: ('A' for Active; 'I' for Inactive)
REMARK    1  A    between atoms: N_1  and  C_5 
REMARK    2  A    between atoms: C_5  and  C_6 
ROOT
HETATM    1  N   LIG     1      -0.974   0.604  -0.107  1.00  0.00     0.094 N 
HETATM    2  N   LIG     1       1.471  -1.327   0.772  1.00  0.00    -0.073 N 
ATOM      3  HN1 LIG     1       1.558  -1.601  -0.207  1.00  0.00     0.277 HD
ATOM      4  HN2 LIG     1       2.005  -2.079   1.207  1.00  0.00     0.277 HD
HETATM    5  C   LIG     1       0.345   1.200  -0.390  1.00  0.00     0.274 C 
HETATM    6  C   LIG     1       1.253   1.215   0.839  1.00  0.00     0.057 C 
HETATM    7  C   LIG     1       2.111  -0.037   1.006  1.00  0.00     0.234 C 
HETATM    8  C   LIG     1      -0.893  -0.859   0.107  1.00  0.00     0.300 C 
HETATM    9  C   LIG     1       0.073  -1.371   1.199  1.00  0.00     0.262 C 
ENDROOT
BRANCH   1  10
HETATM   10  C   LIG     1      -1.923   0.848  -1.218  1.00  0.00     0.311 C 
BRANCH  10  11
HETATM   11  C   LIG     1      -2.221   2.309  -1.487  1.00  0.00    -0.030 A 
HETATM   12  C   LIG     1      -1.944   2.867  -2.747  1.00  0.00     0.012 A 
HETATM   13  C   LIG     1      -2.207   4.214  -2.996  1.00  0.00     0.043 A 
HETATM   14  C   LIG     1      -2.753   5.004  -1.990  1.00  0.00     0.116 A 
HETATM   15  C   LIG     1      -3.043   4.470  -0.740  1.00  0.00     0.043 A 
HETATM   16  F   LIG     1      -3.002   6.298  -2.229  1.00  0.00    -0.206 F 
HETATM   17  C   LIG     1      -2.779   3.123  -0.488  1.00  0.00     0.012 A 
ENDBRANCH  10  11
ENDBRANCH   1  10
TORSDOF 2
