REMARK  1 active torsions:
REMARK  status: ('A' for Active; 'I' for Inactive)
REMARK    1  A    between atoms: C_3  and  C_7 
ROOT
HETATM    1  N   LIG     1      -1.401  -0.073   0.178  1.00  0.00    -0.353 N 
ATOM      2  HN  LIG     1      -2.400  -0.277   0.220  1.00  0.00     0.166 HD
HETATM    3  C   LIG     1      -0.401  -1.029   0.050  1.00  0.00     0.049 A 
HETATM    4  C   LIG     1      -0.877   1.132   0.237  1.00  0.00     0.047 A 
HETATM    5  S   LIG     1       0.835   1.199   0.123  1.00  0.00    -0.087 SA
HETATM    6  C   LIG     1       0.879  -0.511  -0.010  1.00  0.00     0.081 A 
HETATM    7  C   LIG     1      -1.664   2.385   0.388  1.00  0.00     0.076 C 
ENDROOT
BRANCH   3   8
HETATM    8  C   LIG     1      -0.727  -2.451  -0.037  1.00  0.00    -0.009 A 
HETATM    9  C   LIG     1       0.216  -3.454   0.221  1.00  0.00     0.015 A 
HETATM   10  C   LIG     1      -0.137  -4.807   0.130  1.00  0.00     0.027 A 
HETATM   11  C   LIG     1      -1.422  -5.188  -0.259  1.00  0.00     0.046 A 
HETATM   12  C   LIG     1      -2.381  -4.193  -0.447  1.00  0.00     0.027 A 
HETATM   13  N   LIG     1      -1.799  -6.536  -0.226  1.00  0.00    -0.102 NA
HETATM   14  C   LIG     1      -2.034  -2.840  -0.357  1.00  0.00     0.015 A 
ENDBRANCH   3   8
TORSDOF 1
