REMARK  6 active torsions:
REMARK  status: ('A' for Active; 'I' for Inactive)
REMARK    1  A    between atoms: C_1  and  C_2 
REMARK    2  A    between atoms: C_5  and  N_12 
REMARK    3  A    between atoms: N_12  and  C_20 
REMARK    4  A    between atoms: N_15  and  C_21 
REMARK    5  A    between atoms: C_19  and  C_20 
REMARK    6  A    between atoms: C_19  and  C_21 
ROOT
HETATM    1  C   LIG     1      -0.544   0.645  -0.754  1.00  0.00     0.065 A 
HETATM    2  N   LIG     1      -1.280   1.669  -2.815  1.00  0.00    -0.350 N 
ATOM      3  HN  LIG     1      -1.993   1.763  -3.539  1.00  0.00     0.166 HD
HETATM    4  C   LIG     1      -0.124   2.372  -2.889  1.00  0.00     0.123 A 
HETATM    5  C   LIG     1       0.646   1.371  -0.826  1.00  0.00     0.045 A 
HETATM    6  C   LIG     1       0.859   2.243  -1.895  1.00  0.00     0.078 A 
HETATM    7  C   LIG     1      -1.471   0.841  -1.765  1.00  0.00     0.106 A 
HETATM    8 CL   LIG     1       2.342   3.128  -1.956  1.00  0.00    -0.080 Cl
ENDROOT
BRANCH   4   9
HETATM    9  N   LIG     1       0.101   3.179  -4.018  1.00  0.00    -0.375 N 
ATOM     10  HN  LIG     1       0.968   3.697  -4.162  1.00  0.00     0.161 HD
BRANCH   9  11
HETATM   11  C   LIG     1      -1.007   3.216  -4.968  1.00  0.00     0.123 C 
BRANCH  11  12
HETATM   12  C   LIG     1      -0.668   4.104  -6.164  1.00  0.00     0.047 C 
BRANCH  12  13
HETATM   13  C   LIG     1       0.483   3.538  -6.991  1.00  0.00     0.231 C 
BRANCH  13  14
HETATM   14  N   LIG     1       0.749   4.399  -8.142  1.00  0.00    -0.079 N 
ATOM     15  HN3 LIG     1      -0.087   4.550  -8.706  1.00  0.00     0.274 HD
ATOM     16  HN2 LIG     1       0.919   5.365  -7.864  1.00  0.00     0.274 HD
ATOM     17  HN1 LIG     1       1.518   4.021  -8.695  1.00  0.00     0.274 HD
ENDBRANCH  13  14
ENDBRANCH  12  13
ENDBRANCH  11  12
ENDBRANCH   9  11
ENDBRANCH   4   9
BRANCH   1  18
HETATM   18  C   LIG     1      -0.851  -0.330   0.334  1.00  0.00     0.418 C 
HETATM   19  F   LIG     1       0.147  -0.454   1.253  1.00  0.00    -0.166 F 
HETATM   20  F   LIG     1      -1.078  -1.585  -0.142  1.00  0.00    -0.166 F 
HETATM   21  F   LIG     1      -1.967   0.008   1.037  1.00  0.00    -0.166 F 
ENDBRANCH   1  18
TORSDOF 6
