REMARK  5 active torsions:
REMARK  status: ('A' for Active; 'I' for Inactive)
REMARK    1  A    between atoms: N_1  and  C_4 
REMARK    2  A    between atoms: C_2  and  C_4 
REMARK    3  A    between atoms: N_3  and  C_11 
REMARK    4  A    between atoms: C_11  and  C_16 
REMARK    5  A    between atoms: O_13  and  C_16 
ROOT
HETATM    1  N   LIG     1       0.459   1.150  -0.649  1.00  0.00     0.096 N 
HETATM    2  N   LIG     1      -0.664  -1.122   1.054  1.00  0.00     0.093 N 
HETATM    3  C   LIG     1       1.300   0.273   0.194  1.00  0.00     0.303 C 
HETATM    4  C   LIG     1      -0.944   1.108  -0.178  1.00  0.00     0.303 C 
HETATM    5  C   LIG     1       0.711  -1.129   0.495  1.00  0.00     0.302 C 
HETATM    6  C   LIG     1      -1.505  -0.294   0.174  1.00  0.00     0.302 C 
ENDROOT
BRANCH   1   7
HETATM    7  C   LIG     1       0.534   0.810  -2.077  1.00  0.00     0.314 C 
BRANCH   7   8
HETATM    8  C   LIG     1       1.921   0.947  -2.671  1.00  0.00     0.009 A 
HETATM    9  C   LIG     1       2.547  -0.171  -3.240  1.00  0.00     0.124 A 
HETATM   10  F   LIG     1       1.919  -1.349  -3.269  1.00  0.00    -0.205 F 
HETATM   11  C   LIG     1       3.832  -0.082  -3.772  1.00  0.00     0.043 A 
HETATM   12  C   LIG     1       4.506   1.132  -3.753  1.00  0.00     0.003 A 
HETATM   13  C   LIG     1       3.897   2.262  -3.199  1.00  0.00     0.001 A 
HETATM   14  C   LIG     1       2.610   2.166  -2.658  1.00  0.00     0.012 A 
ENDBRANCH   7   8
ENDBRANCH   1   7
BRANCH   2  15
HETATM   15  C   LIG     1      -0.650  -0.695   2.471  1.00  0.00     0.298 C 
BRANCH  15  16
HETATM   16  C   LIG     1      -2.011  -0.656   3.199  1.00  0.00     0.194 C 
BRANCH  16  17
HETATM   17  O   LIG     1      -2.678  -1.912   3.195  1.00  0.00    -0.399 OA
ATOM     18  HO  LIG     1      -3.515  -1.888   3.643  1.00  0.00     0.209 HD
ENDBRANCH  16  17
ENDBRANCH  15  16
ENDBRANCH   2  15
TORSDOF 5
