REMARK  2 active torsions:
REMARK  status: ('A' for Active; 'I' for Inactive)
REMARK    1  A    between atoms: C_1  and  C_2 
REMARK    2  A    between atoms: C_2  and  N_3 
ROOT
HETATM    1  C   LIG     1       1.565  -0.929  -1.353  1.00  0.00     0.316 C 
ENDROOT
BRANCH   1   2
HETATM    2  C   LIG     1       0.616  -1.825  -0.588  1.00  0.00     0.030 A 
HETATM    3  C   LIG     1       0.284  -1.633   0.762  1.00  0.00     0.045 A 
HETATM    4 CL   LIG     1       0.941  -0.336   1.696  1.00  0.00    -0.084 Cl
HETATM    5  C   LIG     1      -0.621  -2.489   1.405  1.00  0.00     0.024 A 
HETATM    6  C   LIG     1      -1.191  -3.564   0.723  1.00  0.00     0.005 A 
HETATM    7  C   LIG     1      -0.862  -3.777  -0.611  1.00  0.00     0.043 A 
HETATM    8  C   LIG     1       0.018  -2.907  -1.248  1.00  0.00     0.126 A 
HETATM    9  F   LIG     1       0.298  -3.136  -2.543  1.00  0.00    -0.205 F 
ENDBRANCH   1   2
BRANCH   1  10
HETATM   10  N   LIG     1       2.986  -1.317  -1.248  1.00  0.00     0.096 N 
HETATM   11  C   LIG     1       3.859  -0.241  -1.773  1.00  0.00     0.300 C 
HETATM   12  C   LIG     1       3.878  -0.109  -3.316  1.00  0.00     0.262 C 
HETATM   13  N   LIG     1       4.194  -1.371  -4.006  1.00  0.00    -0.072 N 
HETATM   14  C   LIG     1       3.289  -2.430  -3.523  1.00  0.00     0.262 C 
ATOM     15  HN2 LIG     1       5.176  -1.629  -3.910  1.00  0.00     0.277 HD
ATOM     16  HN1 LIG     1       4.168  -1.274  -5.021  1.00  0.00     0.277 HD
HETATM   17  C   LIG     1       3.302  -2.564  -1.982  1.00  0.00     0.300 C 
ENDBRANCH   1  10
TORSDOF 2
