REMARK  1 active torsions:
REMARK  status: ('A' for Active; 'I' for Inactive)
REMARK    1  A    between atoms: C_1  and  N_6 
ROOT
HETATM    1  C   LIG     1       2.604  -0.119  -0.250  1.00  0.00     0.147 A 
HETATM    2  N   LIG     1       2.020  -1.172   0.281  1.00  0.00    -0.336 N 
ATOM      3  HN  LIG     1       2.516  -2.009   0.586  1.00  0.00     0.168 HD
HETATM    4  S   LIG     1       1.493   1.142  -0.678  1.00  0.00    -0.052 SA
HETATM    5  C   LIG     1       0.171   0.213  -0.103  1.00  0.00     0.036 A 
HETATM    6  C   LIG     1       0.653  -1.003   0.374  1.00  0.00     0.051 A 
HETATM    7  C   LIG     1      -1.196   0.536  -0.076  1.00  0.00     0.045 A 
HETATM    8  C   LIG     1      -0.262  -1.939   0.899  1.00  0.00     0.032 A 
HETATM    9  C   LIG     1      -2.080  -0.409   0.450  1.00  0.00     0.035 A 
HETATM   10  C   LIG     1      -1.627  -1.633   0.933  1.00  0.00     0.026 A 
HETATM   11 CL   LIG     1      -3.764  -0.050   0.500  1.00  0.00    -0.084 Cl
ENDROOT
BRANCH   1  12
HETATM   12  N   LIG     1       3.957  -0.041  -0.464  1.00  0.00    -0.360 N 
HETATM   13  C   LIG     1       4.655   1.247  -0.494  1.00  0.00     0.126 C 
HETATM   14  C   LIG     1       4.802   1.818   0.916  1.00  0.00     0.039 C 
HETATM   15  C   LIG     1       6.011   1.287   1.691  1.00  0.00     0.115 C 
HETATM   16  N   LIG     1       6.376  -0.123   1.575  1.00  0.00    -0.420 N 
HETATM   17  C   LIG     1       5.249  -1.054   1.429  1.00  0.00     0.133 C 
ATOM     18  HN  LIG     1       7.346  -0.439   1.594  1.00  0.00     0.153 HD
HETATM   19  C   LIG     1       4.773  -1.184  -0.033  1.00  0.00     0.144 C 
ENDBRANCH   1  12
TORSDOF 1
