REMARK  2 active torsions:
REMARK  status: ('A' for Active; 'I' for Inactive)
REMARK    1  A    between atoms: C_1  and  C_5 
REMARK    2  A    between atoms: N_4  and  C_5 
ROOT
HETATM    1  C   LIG     1      -0.054   2.098   1.271  1.00  0.00     0.312 C 
ENDROOT
BRANCH   1   2
HETATM    2  C   LIG     1       1.192   1.639   2.025  1.00  0.00    -0.018 A 
HETATM    3  C   LIG     1       2.250   2.545   2.290  1.00  0.00    -0.053 A 
HETATM    4  C   LIG     1       3.431   2.088   2.901  1.00  0.00     0.014 A 
HETATM    5  C   LIG     1       2.154   4.011   1.948  1.00  0.00     0.049 C 
HETATM    6  C   LIG     1       3.593   0.742   3.244  1.00  0.00    -0.061 A 
HETATM    7  C   LIG     1       2.541  -0.141   3.014  1.00  0.00     0.014 A 
HETATM    8  C   LIG     1       4.867   0.252   3.865  1.00  0.00     0.048 C 
HETATM    9  C   LIG     1       1.336   0.284   2.429  1.00  0.00    -0.053 A 
HETATM   10  C   LIG     1       0.264  -0.751   2.215  1.00  0.00     0.049 C 
ENDBRANCH   1   2
BRANCH   1  11
HETATM   11  N   LIG     1      -0.846   3.165   1.922  1.00  0.00     0.094 N 
HETATM   12  C   LIG     1      -1.347   2.750   3.241  1.00  0.00     0.274 C 
HETATM   13  C   LIG     1      -1.840   3.946   4.056  1.00  0.00     0.057 C 
HETATM   14  C   LIG     1      -3.311   4.298   3.845  1.00  0.00     0.234 C 
HETATM   15  N   LIG     1      -3.826   4.272   2.479  1.00  0.00    -0.073 N 
HETATM   16  C   LIG     1      -2.856   4.713   1.478  1.00  0.00     0.262 C 
ATOM     17  HN2 LIG     1      -4.688   4.813   2.409  1.00  0.00     0.277 HD
ATOM     18  HN1 LIG     1      -4.187   3.346   2.248  1.00  0.00     0.277 HD
HETATM   19  C   LIG     1      -1.932   3.571   1.005  1.00  0.00     0.300 C 
ENDBRANCH   1  11
TORSDOF 2
