REMARK  2 active torsions:
REMARK  status: ('A' for Active; 'I' for Inactive)
REMARK    1  A    between atoms: C_1  and  N_6 
REMARK    2  A    between atoms: C_2  and  C_3 
ROOT
HETATM    1  C   LIG     1      -1.476   1.064  -0.363  1.00  0.00     0.104 A 
HETATM    2  C   LIG     1      -1.367  -1.338  -1.763  1.00  0.00     0.065 A 
HETATM    3  N   LIG     1      -2.624   0.503  -0.821  1.00  0.00    -0.354 N 
ATOM      4  HN  LIG     1      -3.525   0.952  -0.656  1.00  0.00     0.166 HD
HETATM    5  C   LIG     1      -0.234   0.440  -0.584  1.00  0.00     0.073 A 
HETATM    6  C   LIG     1      -0.186  -0.765  -1.289  1.00  0.00     0.044 A 
HETATM    7  C   LIG     1      -2.549  -0.665  -1.501  1.00  0.00     0.105 A 
HETATM    8 CL   LIG     1       1.255   1.085   0.015  1.00  0.00    -0.081 Cl
ENDROOT
BRANCH   1   9
HETATM    9  N   LIG     1      -1.550   2.296   0.339  1.00  0.00    -0.266 NA
HETATM   10  C   LIG     1      -2.805   2.408   1.103  1.00  0.00     0.098 C 
HETATM   11  C   LIG     1      -2.632   3.436   2.217  1.00  0.00     0.042 C 
HETATM   12  C   LIG     1      -2.942   4.873   1.798  1.00  0.00     0.233 C 
HETATM   13  N   LIG     1      -2.457   5.345   0.504  1.00  0.00    -0.074 N 
HETATM   14  C   LIG     1      -1.175   4.772   0.084  1.00  0.00     0.247 C 
ATOM     15  HN2 LIG     1      -2.409   6.364   0.494  1.00  0.00     0.277 HD
ATOM     16  HN1 LIG     1      -3.164   5.195  -0.215  1.00  0.00     0.277 HD
HETATM   17  C   LIG     1      -1.322   3.403  -0.615  1.00  0.00     0.124 C 
ENDBRANCH   1   9
BRANCH   2  18
HETATM   18  C   LIG     1      -1.398  -2.625  -2.523  1.00  0.00     0.418 C 
HETATM   19  F   LIG     1      -0.167  -3.177  -2.706  1.00  0.00    -0.166 F 
HETATM   20  F   LIG     1      -2.146  -3.578  -1.904  1.00  0.00    -0.166 F 
HETATM   21  F   LIG     1      -1.930  -2.482  -3.767  1.00  0.00    -0.166 F 
ENDBRANCH   2  18
TORSDOF 2
