REMARK  1 active torsions:
REMARK  status: ('A' for Active; 'I' for Inactive)
REMARK       I    between atoms: C_1  and  N_2 
REMARK    1  A    between atoms: C_1  and  C_3 
ROOT
HETATM    1  C   LIG     1       0.954  -0.356  -0.296  1.00  0.00     0.260 C 
HETATM    2  N   LIG     1       0.164  -1.118  -1.182  1.00  0.00    -0.346 N 
HETATM    3  O   LIG     1       2.045  -0.795   0.091  1.00  0.00    -0.267 OA
HETATM    4  N   LIG     1      -2.118  -3.314  -0.966  1.00  0.00    -0.420 N 
ATOM      5  HN  LIG     1      -2.934  -3.637  -1.486  1.00  0.00     0.153 HD
HETATM    6  C   LIG     1       0.701  -2.394  -1.656  1.00  0.00     0.127 C 
HETATM    7  C   LIG     1      -1.291  -0.991  -1.290  1.00  0.00     0.145 C 
HETATM    8  C   LIG     1       0.447  -3.528  -0.667  1.00  0.00     0.039 C 
HETATM    9  C   LIG     1      -0.946  -4.161  -0.758  1.00  0.00     0.115 C 
HETATM   10  C   LIG     1      -2.050  -1.975  -0.383  1.00  0.00     0.133 C 
ENDROOT
BRANCH   1  11
HETATM   11  C   LIG     1       0.465   0.953   0.128  1.00  0.00     0.072 A 
HETATM   12  S   LIG     1       0.762   1.486   1.735  1.00  0.00    -0.097 SA
HETATM   13  C   LIG     1      -0.122   2.932   1.496  1.00  0.00     0.050 A 
HETATM   14  C   LIG     1      -0.572   3.051   0.201  1.00  0.00     0.009 A 
HETATM   15  C   LIG     1      -0.188   1.936  -0.598  1.00  0.00     0.025 A 
ENDBRANCH   1  11
TORSDOF 1
