REMARK  3 active torsions:
REMARK  status: ('A' for Active; 'I' for Inactive)
REMARK    1  A    between atoms: C_3  and  N_8 
REMARK    2  A    between atoms: C_4  and  C_7 
REMARK    3  A    between atoms: C_13  and  O_16 
ROOT
HETATM    1  N   LIG     1       0.535   0.593   0.866  1.00  0.00    -0.336 N 
ATOM      2  HN  LIG     1       1.117   1.227   1.414  1.00  0.00     0.168 HD
HETATM    3  C   LIG     1       0.671  -0.708   0.838  1.00  0.00     0.142 A 
HETATM    4  C   LIG     1      -0.513   0.991   0.045  1.00  0.00     0.051 A 
HETATM    5  S   LIG     1      -0.416  -1.541  -0.193  1.00  0.00    -0.064 SA
HETATM    6  C   LIG     1      -1.139  -0.046  -0.621  1.00  0.00     0.083 A 
ENDROOT
BRANCH   4   7
HETATM    7  C   LIG     1      -0.870   2.404  -0.086  1.00  0.00    -0.009 A 
HETATM    8  C   LIG     1      -2.081   2.825  -0.657  1.00  0.00     0.016 A 
HETATM    9  C   LIG     1      -2.385   4.186  -0.762  1.00  0.00     0.037 A 
HETATM   10  C   LIG     1      -1.484   5.134  -0.295  1.00  0.00     0.065 A 
HETATM   11  C   LIG     1      -0.281   4.745   0.280  1.00  0.00     0.037 A 
HETATM   12  C   LIG     1       0.021   3.384   0.384  1.00  0.00     0.016 A 
BRANCH  10  13
HETATM   13  O   LIG     1      -1.823   6.448  -0.417  1.00  0.00    -0.361 OA
ATOM     14  HO  LIG     1      -2.646   6.714  -0.810  1.00  0.00     0.217 HD
ENDBRANCH  10  13
ENDBRANCH   4   7
BRANCH   3  15
HETATM   15  N   LIG     1       1.606  -1.363   1.545  1.00  0.00    -0.380 N 
ATOM     16  HN2 LIG     1       2.253  -0.867   2.158  1.00  0.00     0.158 HD
ATOM     17  HN1 LIG     1       1.712  -2.377   1.523  1.00  0.00     0.158 HD
ENDBRANCH   3  15
TORSDOF 3
