REMARK  0 active torsions:
REMARK  status: ('A' for Active; 'I' for Inactive)
ROOT
HETATM    1  C   LIG     1      -0.020   0.706   0.013  1.00  0.00     0.040 A 
HETATM    2  N   LIG     1      -1.243   1.393   0.131  1.00  0.00    -0.389 N 
ATOM      3  HN  LIG     1      -1.290   2.349   0.483  1.00  0.00     0.159 HD
HETATM    4  C   LIG     1       0.012  -0.706  -0.018  1.00  0.00    -0.031 A 
HETATM    5  C   LIG     1       1.202   1.412   0.079  1.00  0.00    -0.035 A 
HETATM    6  C   LIG     1       2.436  -0.680  -0.039  1.00  0.00     0.001 A 
HETATM    7  C   LIG     1      -2.437   0.666  -0.276  1.00  0.00     0.120 C 
HETATM    8  C   LIG     1       1.239  -1.386  -0.066  1.00  0.00     0.009 A 
HETATM    9  C   LIG     1       2.418   0.710   0.039  1.00  0.00     0.009 A 
HETATM   10  C   LIG     1      -1.263  -1.509  -0.066  1.00  0.00     0.042 C 
HETATM   11  C   LIG     1       1.239   2.913   0.187  1.00  0.00     0.050 C 
HETATM   12  C   LIG     1      -2.469  -0.698   0.389  1.00  0.00     0.024 C 
ENDROOT
TORSDOF 0
