REMARK  4 active torsions:
REMARK  status: ('A' for Active; 'I' for Inactive)
REMARK    1  A    between atoms: C_3  and  C_7 
REMARK    2  A    between atoms: C_5  and  C_8 
REMARK    3  A    between atoms: C_8  and  C_12 
REMARK    4  A    between atoms: O_10  and  C_12 
ROOT
HETATM    1  N   LIG     1       0.082  -0.549  -0.101  1.00  0.00    -0.337 N 
ATOM      2  HN  LIG     1      -0.309  -1.487  -0.187  1.00  0.00     0.168 HD
HETATM    3  C   LIG     1       1.352  -0.207   0.056  1.00  0.00     0.158 A 
HETATM    4  O   LIG     1       1.553   1.145   0.124  1.00  0.00    -0.296 OA
HETATM    5  C   LIG     1      -0.592   0.658  -0.122  1.00  0.00     0.043 A 
HETATM    6  C   LIG     1       0.311   1.692   0.009  1.00  0.00     0.074 A 
HETATM    7  C   LIG     1       0.232   3.161   0.053  1.00  0.00     0.079 C 
ENDROOT
BRANCH   3   8
HETATM    8  C   LIG     1       2.545  -1.039   0.163  1.00  0.00     0.015 A 
HETATM    9  C   LIG     1       2.446  -2.437   0.124  1.00  0.00     0.016 A 
HETATM   10  C   LIG     1       3.590  -3.236   0.224  1.00  0.00     0.001 A 
HETATM   11  C   LIG     1       4.845  -2.647   0.365  1.00  0.00     0.000 A 
HETATM   12  C   LIG     1       4.961  -1.260   0.408  1.00  0.00     0.001 A 
HETATM   13  C   LIG     1       3.820  -0.465   0.308  1.00  0.00     0.016 A 
ENDBRANCH   3   8
BRANCH   5  14
HETATM   14  C   LIG     1      -2.074   0.694  -0.268  1.00  0.00     0.085 C 
BRANCH  14  15
HETATM   15  C   LIG     1      -2.539   0.101  -1.597  1.00  0.00     0.170 C 
BRANCH  15  16
HETATM   16  O   LIG     1      -2.319  -1.307  -1.645  1.00  0.00    -0.400 OA
ATOM     17  HO  LIG     1      -2.608  -1.676  -2.471  1.00  0.00     0.209 HD
ENDBRANCH  15  16
ENDBRANCH  14  15
ENDBRANCH   5  14
TORSDOF 4
