REMARK  2 active torsions:
REMARK  status: ('A' for Active; 'I' for Inactive)
REMARK    1  A    between atoms: C_1  and  O_2 
REMARK    2  A    between atoms: O_2  and  C_3 
ROOT
HETATM    1  C   LIG     1      -0.894  -2.208  -1.467  1.00  0.00     0.172 A 
HETATM    2  N   LIG     1      -1.364  -2.807  -2.591  1.00  0.00    -0.345 N 
ATOM      3  HN  LIG     1      -0.739  -3.235  -3.274  1.00  0.00     0.167 HD
HETATM    4  C   LIG     1      -1.700  -1.621  -0.477  1.00  0.00     0.097 A 
HETATM    5  N   LIG     1      -1.190  -1.176   0.757  1.00  0.00    -0.098 NA
HETATM    6  C   LIG     1      -2.701  -2.804  -2.754  1.00  0.00     0.090 A 
HETATM    7  C   LIG     1      -3.079  -1.701  -0.669  1.00  0.00     0.032 A 
HETATM    8  C   LIG     1      -3.590  -2.272  -1.834  1.00  0.00     0.019 A 
ENDROOT
BRANCH   1   9
HETATM    9  O   LIG     1       0.482  -2.176  -1.240  1.00  0.00    -0.289 OA
BRANCH   9  10
HETATM   10  C   LIG     1       1.303  -2.161  -2.343  1.00  0.00     0.116 A 
HETATM   11  C   LIG     1       1.119  -1.308  -3.435  1.00  0.00     0.150 A 
HETATM   12  F   LIG     1       0.106  -0.430  -3.463  1.00  0.00    -0.203 F 
HETATM   13  C   LIG     1       2.012  -1.324  -4.504  1.00  0.00     0.045 A 
HETATM   14  C   LIG     1       3.119  -2.170  -4.471  1.00  0.00     0.003 A 
HETATM   15  C   LIG     1       3.335  -2.991  -3.363  1.00  0.00     0.003 A 
HETATM   16  C   LIG     1       2.430  -2.984  -2.298  1.00  0.00     0.040 A 
ENDBRANCH   9  10
ENDBRANCH   1   9
TORSDOF 2
