REMARK  3 active torsions:
REMARK  status: ('A' for Active; 'I' for Inactive)
REMARK    1  A    between atoms: C_1  and  C_2 
REMARK    2  A    between atoms: C_2  and  C_3 
REMARK    3  A    between atoms: C_2  and  O_10 
ROOT
HETATM    1  C   LIG     1      -1.150  -0.282  -0.128  1.00  0.00    -0.013 A 
HETATM    2  C   LIG     1      -0.287  -1.393  -0.006  1.00  0.00    -0.053 A 
HETATM    3  C   LIG     1      -0.589   1.012  -0.134  1.00  0.00     0.017 A 
HETATM    4  C   LIG     1       1.099  -1.180   0.086  1.00  0.00     0.008 A 
HETATM    5  C   LIG     1       0.792   1.217  -0.035  1.00  0.00    -0.061 A 
HETATM    6  C   LIG     1       1.632   0.109   0.069  1.00  0.00     0.007 A 
HETATM    7  C   LIG     1      -0.792  -2.811  -0.013  1.00  0.00     0.049 C 
HETATM    8  C   LIG     1       1.370   2.599  -0.099  1.00  0.00     0.048 C 
ENDROOT
BRANCH   1   9
HETATM    9  C   LIG     1      -2.659  -0.433  -0.225  1.00  0.00     0.252 C 
BRANCH   9  10
HETATM   10  C   LIG     1      -3.348  -0.448   1.153  1.00  0.00     0.207 C 
HETATM   11  O   LIG     1      -2.935  -0.875   2.213  1.00  0.00    -0.646 OA
HETATM   12  O   LIG     1      -4.617   0.040   1.070  1.00  0.00    -0.646 OA
ENDBRANCH   9  10
BRANCH   9  13
HETATM   13  O   LIG     1      -3.192   0.609  -1.055  1.00  0.00    -0.380 OA
ATOM     14  HO  LIG     1      -4.135   0.515  -1.116  1.00  0.00     0.211 HD
ENDBRANCH   9  13
ENDBRANCH   1   9
TORSDOF 3
