REMARK  4 active torsions:
REMARK  status: ('A' for Active; 'I' for Inactive)
REMARK    1  A    between atoms: C_1  and  C_4 
REMARK    2  A    between atoms: C_1  and  O_7 
REMARK    3  A    between atoms: C_3  and  C_4 
REMARK    4  A    between atoms: C_6  and  O_8 
ROOT
HETATM    1  C   LIG     1       0.594   1.182  -2.163  1.00  0.00    -0.046 A 
HETATM    2  C   LIG     1       0.415   2.400  -1.487  1.00  0.00     0.044 A 
HETATM    3  C   LIG     1       0.548   3.616  -2.160  1.00  0.00     0.068 A 
HETATM    4  C   LIG     1       1.060   2.408  -4.199  1.00  0.00     0.003 A 
HETATM    5  C   LIG     1       0.925   1.196  -3.523  1.00  0.00     0.008 A 
HETATM    6  C   LIG     1       0.871   3.611  -3.518  1.00  0.00     0.037 A 
ENDROOT
BRANCH   1   7
HETATM    7  C   LIG     1       0.485  -0.117  -1.408  1.00  0.00     0.149 C 
BRANCH   7   8
HETATM    8  C   LIG     1       1.810  -0.557  -0.838  1.00  0.00     0.262 C 
HETATM    9  O   LIG     1       2.594  -1.305  -1.411  1.00  0.00    -0.265 OA
BRANCH   8  10
HETATM   10  O   LIG     1       2.022   0.012   0.385  1.00  0.00    -0.326 OA
HETATM   11  C   LIG     1       3.289  -0.299   0.958  1.00  0.00     0.213 C 
ENDBRANCH   8  10
ENDBRANCH   7   8
ENDBRANCH   1   7
BRANCH   3  12
HETATM   12  O   LIG     1       0.392   4.856  -1.604  1.00  0.00    -0.356 OA
HETATM   13  C   LIG     1       0.067   4.894  -0.219  1.00  0.00     0.210 C 
ENDBRANCH   3  12
TORSDOF 4
