REMARK  2 active torsions:
REMARK  status: ('A' for Active; 'I' for Inactive)
REMARK    1  A    between atoms: C_3  and  C_7 
REMARK    2  A    between atoms: C_4  and  N_13 
ROOT
HETATM    1  N   LIG     1      -1.072   0.079  -0.714  1.00  0.00    -0.336 N 
ATOM      2  HN  LIG     1      -1.880   0.296  -1.297  1.00  0.00     0.168 HD
HETATM    3  C   LIG     1      -0.345   1.015   0.009  1.00  0.00     0.051 A 
HETATM    4  C   LIG     1      -0.576  -1.120  -0.543  1.00  0.00     0.142 A 
HETATM    5  S   LIG     1       0.768  -1.216   0.517  1.00  0.00    -0.064 SA
HETATM    6  C   LIG     1       0.692   0.481   0.750  1.00  0.00     0.083 A 
ENDROOT
BRANCH   3   7
HETATM    7  C   LIG     1      -0.704   2.433  -0.031  1.00  0.00    -0.006 A 
HETATM    8  C   LIG     1       0.151   3.437   0.447  1.00  0.00     0.059 A 
HETATM    9  C   LIG     1      -0.238   4.774   0.382  1.00  0.00     0.155 A 
HETATM   10  C   LIG     1      -1.468   5.131  -0.155  1.00  0.00     0.154 A 
HETATM   11  F   LIG     1       0.594   5.718   0.844  1.00  0.00    -0.203 F 
HETATM   12  C   LIG     1      -2.328   4.155  -0.639  1.00  0.00     0.046 A 
HETATM   13  F   LIG     1      -1.832   6.419  -0.213  1.00  0.00    -0.203 F 
HETATM   14  C   LIG     1      -1.945   2.811  -0.578  1.00  0.00     0.017 A 
ENDBRANCH   3   7
BRANCH   4  15
HETATM   15  N   LIG     1      -1.082  -2.214  -1.133  1.00  0.00    -0.380 N 
ATOM     16  HN2 LIG     1      -1.882  -2.157  -1.764  1.00  0.00     0.158 HD
ATOM     17  HN1 LIG     1      -0.695  -3.148  -1.000  1.00  0.00     0.158 HD
ENDBRANCH   4  15
TORSDOF 2
