REMARK  3 active torsions:
REMARK  status: ('A' for Active; 'I' for Inactive)
REMARK    1  A    between atoms: C_1  and  C_6 
REMARK    2  A    between atoms: C_3  and  O_8 
REMARK    3  A    between atoms: C_6  and  O_10 
ROOT
HETATM    1  C   LIG     1       2.180   0.456  -0.128  1.00  0.00     0.115 A 
HETATM    2  S   LIG     1       1.143   1.813  -0.062  1.00  0.00    -0.081 SA
HETATM    3  C   LIG     1       1.450  -0.715  -0.162  1.00  0.00     0.100 A 
HETATM    4  C   LIG     1       0.034  -0.516  -0.069  1.00  0.00     0.016 A 
HETATM    5  C   LIG     1      -0.273   0.843   0.005  1.00  0.00     0.018 A 
HETATM    6  C   LIG     1      -1.037  -1.443  -0.026  1.00  0.00     0.015 A 
HETATM    7  C   LIG     1      -1.600   1.299   0.122  1.00  0.00     0.020 A 
HETATM    8  C   LIG     1      -2.357  -0.997   0.095  1.00  0.00     0.001 A 
HETATM    9  C   LIG     1      -2.633   0.361   0.170  1.00  0.00     0.001 A 
ENDROOT
BRANCH   1  10
HETATM   10  C   LIG     1       3.622   0.585  -0.129  1.00  0.00     0.302 C 
HETATM   11  O   LIG     1       4.390  -0.366  -0.218  1.00  0.00    -0.259 OA
BRANCH  10  12
HETATM   12  O   LIG     1       4.012   1.882   0.026  1.00  0.00    -0.322 OA
HETATM   13  C   LIG     1       5.418   2.075   0.162  1.00  0.00     0.213 C 
ENDBRANCH  10  12
ENDBRANCH   1  10
BRANCH   3  14
HETATM   14  O   LIG     1       2.020  -1.941  -0.238  1.00  0.00    -0.358 OA
ATOM     15  HO  LIG     1       1.518  -2.747  -0.261  1.00  0.00     0.217 HD
ENDBRANCH   3  14
TORSDOF 3
