REMARK  1 active torsions:
REMARK  status: ('A' for Active; 'I' for Inactive)
REMARK    1  A    between atoms: C_1  and  C_2 
REMARK       I    between atoms: C_2  and  N_8 
ROOT
HETATM    1  C   LIG     1      -0.348  -1.170   0.134  1.00  0.00     0.072 A 
HETATM    2  S   LIG     1       1.306  -0.763   0.335  1.00  0.00    -0.097 SA
HETATM    3  C   LIG     1      -1.112  -0.039  -0.096  1.00  0.00     0.025 A 
HETATM    4  C   LIG     1       0.997   0.904   0.116  1.00  0.00     0.050 A 
HETATM    5  C   LIG     1      -0.337   1.156  -0.106  1.00  0.00     0.009 A 
ENDROOT
BRANCH   1   6
HETATM    6  C   LIG     1      -0.830  -2.540   0.205  1.00  0.00     0.256 C 
HETATM    7  O   LIG     1      -2.006  -2.863   0.062  1.00  0.00    -0.267 OA
HETATM    8  N   LIG     1       0.100  -3.513   0.447  1.00  0.00    -0.366 N 
ATOM      9  HN2 LIG     1       1.077  -3.245   0.566  1.00  0.00     0.159 HD
ATOM     10  HN1 LIG     1      -0.238  -4.474   0.497  1.00  0.00     0.159 HD
ENDBRANCH   1   6
TORSDOF 1
