REMARK  2 active torsions:
REMARK  status: ('A' for Active; 'I' for Inactive)
REMARK    1  A    between atoms: N_1  and  C_3 
REMARK    2  A    between atoms: C_3  and  C_5 
ROOT
HETATM    1  N   LIG     1      -0.452  -0.845  -2.648  1.00  0.00    -0.195 NA
HETATM    2  C   LIG     1       0.712   1.282  -1.725  1.00  0.00     0.361 C 
HETATM    3  C   LIG     1       0.064   0.098  -2.238  1.00  0.00     0.100 C 
ENDROOT
BRANCH   2   4
HETATM    4  N   LIG     1      -0.083   2.099  -0.752  1.00  0.00     0.115 N 
HETATM    5  C   LIG     1       0.638   3.291  -0.230  1.00  0.00     0.300 C 
HETATM    6  C   LIG     1       1.564   3.039   0.975  1.00  0.00     0.198 C 
HETATM    7  O   LIG     1       0.869   2.390   2.040  1.00  0.00    -0.388 OA
HETATM    8  C   LIG     1       0.317   1.149   1.593  1.00  0.00     0.198 C 
HETATM    9  C   LIG     1      -0.641   1.361   0.406  1.00  0.00     0.300 C 
ENDBRANCH   2   4
BRANCH   2  10
HETATM   10  C   LIG     1       1.132   2.152  -2.927  1.00  0.00    -0.011 A 
HETATM   11  C   LIG     1       2.493   2.370  -3.215  1.00  0.00     0.012 A 
HETATM   12  C   LIG     1       2.873   3.202  -4.277  1.00  0.00     0.024 A 
HETATM   13  C   LIG     1       1.901   3.812  -5.060  1.00  0.00     0.034 A 
HETATM   14  C   LIG     1       0.550   3.579  -4.817  1.00  0.00     0.024 A 
HETATM   15 CL   LIG     1       2.367   4.879  -6.330  1.00  0.00    -0.084 Cl
HETATM   16  C   LIG     1       0.166   2.749  -3.759  1.00  0.00     0.012 A 
ENDBRANCH   2  10
TORSDOF 2
