REMARK  2 active torsions:
REMARK  status: ('A' for Active; 'I' for Inactive)
REMARK    1  A    between atoms: C_7  and  O_11 
REMARK    2  A    between atoms: C_9  and  O_12 
ROOT
HETATM    1  C   LIG     1       0.351  -0.785   0.030  1.00  0.00    -0.005 A 
HETATM    2  C   LIG     1      -0.823  -1.543  -0.036  1.00  0.00     0.053 A 
HETATM    3  C   LIG     1       0.287   0.605   0.138  1.00  0.00    -0.042 A 
HETATM    4  N   LIG     1       2.792  -0.737  -0.247  1.00  0.00    -0.392 N 
ATOM      5  HN  LIG     1       3.707  -1.186  -0.212  1.00  0.00     0.159 HD
HETATM    6  C   LIG     1       1.708  -1.400  -0.001  1.00  0.00     0.012 C 
HETATM    7  C   LIG     1      -2.081  -0.922   0.018  1.00  0.00     0.102 A 
HETATM    8  C   LIG     1      -0.960   1.228   0.205  1.00  0.00     0.047 A 
HETATM    9  C   LIG     1      -2.145   0.478   0.155  1.00  0.00     0.102 A 
HETATM   10  C   LIG     1       2.653   0.688  -0.579  1.00  0.00     0.124 C 
HETATM   11  C   LIG     1       1.569   1.379   0.242  1.00  0.00     0.059 C 
HETATM   12  C   LIG     1       1.840  -2.880   0.273  1.00  0.00     0.068 C 
ENDROOT
BRANCH   7  13
HETATM   13  O   LIG     1      -3.260  -1.613  -0.079  1.00  0.00    -0.353 OA
HETATM   14  C   LIG     1      -3.208  -3.024  -0.238  1.00  0.00     0.210 C 
ENDBRANCH   7  13
BRANCH   9  15
HETATM   15  O   LIG     1      -3.267   1.266   0.207  1.00  0.00    -0.353 OA
HETATM   16  C   LIG     1      -4.467   0.676   0.688  1.00  0.00     0.210 C 
ENDBRANCH   9  15
TORSDOF 2
