REMARK  2 active torsions:
REMARK  status: ('A' for Active; 'I' for Inactive)
REMARK    1  A    between atoms: S_1  and  C_2 
REMARK    2  A    between atoms: S_1  and  N_9 
ROOT
HETATM    1  C   LIG     1       0.442   0.064  -1.708  1.00  0.00     0.082 A 
HETATM    2  C   LIG     1       0.228   1.293  -2.341  1.00  0.00     0.049 A 
HETATM    3  C   LIG     1       0.185  -1.137  -2.373  1.00  0.00     0.049 A 
HETATM    4  C   LIG     1      -0.246   1.310  -3.650  1.00  0.00     0.037 A 
HETATM    5  C   LIG     1      -0.289  -1.096  -3.684  1.00  0.00     0.037 A 
HETATM    6  C   LIG     1      -0.506   0.121  -4.328  1.00  0.00     0.047 A 
HETATM    7 CL   LIG     1      -0.512   2.816  -4.439  1.00  0.00    -0.084 Cl
HETATM    8 CL   LIG     1      -0.609  -2.568  -4.516  1.00  0.00    -0.084 Cl
ENDROOT
BRANCH   1   9
HETATM    9  S   LIG     1       1.043   0.091  -0.049  1.00  0.00     0.256 S 
HETATM   10  O   LIG     1       0.006   0.639   0.791  1.00  0.00    -0.201 OA
HETATM   11  O   LIG     1       2.392   0.603  -0.073  1.00  0.00    -0.201 OA
BRANCH   9  12
HETATM   12  N   LIG     1       1.177  -1.524   0.390  1.00  0.00    -0.324 N 
ATOM     13  HN2 LIG     1       0.955  -2.334  -0.188  1.00  0.00     0.169 HD
ATOM     14  HN1 LIG     1       1.524  -1.508   1.349  1.00  0.00     0.169 HD
ENDBRANCH   9  12
ENDBRANCH   1   9
TORSDOF 2
