REMARK  0 active torsions:
REMARK  status: ('A' for Active; 'I' for Inactive)
ROOT
HETATM    1  C   LIG     1       0.271   0.710   0.001  1.00  0.00     0.091 A 
HETATM    2  C   LIG     1       0.290  -0.748  -0.000  1.00  0.00     0.085 A 
HETATM    3  N   LIG     1       1.539   1.141   0.002  1.00  0.00    -0.239 N 
ATOM      4  HN  LIG     1       1.859   2.110   0.004  1.00  0.00     0.197 HD
HETATM    5  O   LIG     1       2.327   0.003   0.000  1.00  0.00    -0.156 OA
HETATM    6  N   LIG     1       1.565  -1.153  -0.000  1.00  0.00    -0.240 N 
ATOM      7  HN  LIG     1       1.905  -2.115   0.000  1.00  0.00     0.197 HD
HETATM    8  C   LIG     1      -0.930   1.458   0.003  1.00  0.00    -0.031 A 
HETATM    9  C   LIG     1      -2.075  -0.768  -0.000  1.00  0.00     0.003 A 
HETATM   10  C   LIG     1      -0.886  -1.519  -0.001  1.00  0.00     0.034 A 
HETATM   11  C   LIG     1      -2.096   0.653   0.001  1.00  0.00     0.009 A 
HETATM   12  C   LIG     1      -0.994   2.950   0.007  1.00  0.00     0.050 C 
ENDROOT
TORSDOF 0
