REMARK  1 active torsions:
REMARK  status: ('A' for Active; 'I' for Inactive)
REMARK    1  A    between atoms: N_1  and  C_2 
ROOT
HETATM    1  C   LIG     1       1.119   2.247  -0.844  1.00  0.00     0.054 A 
HETATM    2  C   LIG     1       0.822   3.639  -0.833  1.00  0.00     0.072 A 
HETATM    3  N   LIG     1      -0.002   4.179   0.187  1.00  0.00    -0.100 NA
HETATM    4  C   LIG     1       1.931   1.769  -1.881  1.00  0.00     0.031 A 
HETATM    5  C   LIG     1       1.204   4.458  -1.901  1.00  0.00     0.029 A 
HETATM    6  C   LIG     1       2.361   2.608  -2.915  1.00  0.00     0.002 A 
HETATM    7  C   LIG     1       1.984   3.946  -2.935  1.00  0.00     0.002 A 
ENDROOT
BRANCH   1   8
HETATM    8  N   LIG     1       0.623   1.430   0.189  1.00  0.00    -0.375 N 
HETATM    9  C   LIG     1       1.368   0.226   0.606  1.00  0.00     0.149 C 
HETATM   10  C   LIG     1       0.902  -1.047  -0.122  1.00  0.00     0.187 C 
HETATM   11  O   LIG     1      -0.521  -1.219  -0.051  1.00  0.00    -0.388 OA
HETATM   12  C   LIG     1      -1.182  -0.083  -0.630  1.00  0.00     0.187 C 
HETATM   13  C   LIG     1      -0.844   1.205   0.134  1.00  0.00     0.149 C 
ENDBRANCH   1   8
TORSDOF 1
