REMARK  2 active torsions:
REMARK  status: ('A' for Active; 'I' for Inactive)
REMARK    1  A    between atoms: C_1  and  C_5 
REMARK    2  A    between atoms: C_2  and  N_3 
ROOT
HETATM    1  C   LIG     1      -0.314  -0.111  -4.002  1.00  0.00     0.054 A 
HETATM    2  C   LIG     1      -0.161   1.109  -3.287  1.00  0.00     0.073 A 
HETATM    3  C   LIG     1       0.739  -0.070  -1.358  1.00  0.00     0.049 A 
HETATM    4  C   LIG     1       0.412   1.125  -2.009  1.00  0.00     0.045 A 
HETATM    5  C   LIG     1      -0.010  -1.297  -3.323  1.00  0.00     0.032 A 
HETATM    6  C   LIG     1       0.508  -1.281  -2.022  1.00  0.00     0.018 A 
HETATM    7  N   LIG     1      -0.441   2.342  -3.926  1.00  0.00    -0.100 NA
ENDROOT
BRANCH   1   8
HETATM    8  N   LIG     1      -0.790  -0.078  -5.323  1.00  0.00    -0.375 N 
HETATM    9  C   LIG     1      -1.569  -1.210  -5.863  1.00  0.00     0.149 C 
HETATM   10  C   LIG     1      -0.695  -2.237  -6.604  1.00  0.00     0.187 C 
HETATM   11  O   LIG     1       0.146  -1.619  -7.589  1.00  0.00    -0.388 OA
HETATM   12  C   LIG     1       0.999  -0.645  -6.967  1.00  0.00     0.187 C 
HETATM   13  C   LIG     1       0.177   0.473  -6.309  1.00  0.00     0.149 C 
ENDBRANCH   1   8
BRANCH   3  14
HETATM   14  C   LIG     1       1.333  -0.067   0.027  1.00  0.00     0.417 C 
HETATM   15  F   LIG     1       1.450   1.175   0.572  1.00  0.00    -0.166 F 
HETATM   16  F   LIG     1       2.582  -0.608   0.059  1.00  0.00    -0.166 F 
HETATM   17  F   LIG     1       0.592  -0.792   0.911  1.00  0.00    -0.166 F 
ENDBRANCH   3  14
TORSDOF 2
