REMARK  3 active torsions:
REMARK  status: ('A' for Active; 'I' for Inactive)
REMARK    1  A    between atoms: C_4  and  O_5 
REMARK    2  A    between atoms: O_5  and  C_7 
REMARK    3  A    between atoms: C_7  and  C_8 
ROOT
HETATM    1  C   LIG     1       2.004   2.450  -0.755  1.00  0.00     0.149 A 
HETATM    2  N   LIG     1       1.122   2.626  -1.758  1.00  0.00    -0.352 N 
ATOM      3  HN  LIG     1       1.381   2.450  -2.729  1.00  0.00     0.166 HD
HETATM    4  C   LIG     1       1.671   2.607   0.598  1.00  0.00     0.110 A 
HETATM    5  N   LIG     1       3.301   2.161  -1.182  1.00  0.00    -0.080 NA
HETATM    6  C   LIG     1      -0.119   3.044  -1.428  1.00  0.00     0.089 A 
HETATM    7  C   LIG     1       0.397   3.088   0.898  1.00  0.00     0.041 A 
HETATM    8  C   LIG     1      -0.517   3.313  -0.132  1.00  0.00     0.020 A 
ENDROOT
BRANCH   4   9
HETATM    9  O   LIG     1       2.516   2.416   1.665  1.00  0.00    -0.343 OA
BRANCH   9  10
HETATM   10  C   LIG     1       3.235   1.176   1.618  1.00  0.00     0.214 C 
BRANCH  10  11
HETATM   11  C   LIG     1       3.938   0.933   2.938  1.00  0.00    -0.034 A 
HETATM   12  C   LIG     1       5.243   1.412   3.142  1.00  0.00     0.009 A 
HETATM   13  C   LIG     1       5.927   1.132   4.327  1.00  0.00     0.001 A 
HETATM   14  C   LIG     1       5.310   0.382   5.327  1.00  0.00     0.000 A 
HETATM   15  C   LIG     1       4.006  -0.073   5.148  1.00  0.00     0.001 A 
HETATM   16  C   LIG     1       3.319   0.203   3.965  1.00  0.00     0.009 A 
ENDBRANCH  10  11
ENDBRANCH   9  10
ENDBRANCH   4   9
TORSDOF 3
