REMARK  2 active torsions:
REMARK  status: ('A' for Active; 'I' for Inactive)
REMARK    1  A    between atoms: C_3  and  C_4 
REMARK    2  A    between atoms: C_4  and  O_10 
ROOT
HETATM    1  N   LIG     1       2.269  -0.886   0.154  1.00  0.00    -0.360 N 
ATOM      2  HN  LIG     1       3.127  -1.434   0.210  1.00  0.00     0.165 HD
HETATM    3  C   LIG     1       2.291   0.473   0.120  1.00  0.00     0.108 A 
HETATM    4  C   LIG     1       1.142   1.254   0.032  1.00  0.00     0.048 A 
HETATM    5  C   LIG     1      -0.106   0.621  -0.010  1.00  0.00    -0.022 A 
HETATM    6  C   LIG     1       1.052  -1.475   0.110  1.00  0.00     0.100 A 
HETATM    7  C   LIG     1      -0.160  -0.787   0.034  1.00  0.00    -0.011 A 
HETATM    8  C   LIG     1      -1.304   1.350  -0.088  1.00  0.00     0.012 A 
HETATM    9  C   LIG     1      -1.406  -1.437   0.004  1.00  0.00     0.013 A 
HETATM   10  C   LIG     1      -2.536   0.693  -0.116  1.00  0.00     0.001 A 
HETATM   11  C   LIG     1      -2.587  -0.698  -0.069  1.00  0.00     0.001 A 
ENDROOT
BRANCH   3  12
HETATM   12  C   LIG     1       3.616   1.161   0.188  1.00  0.00     0.309 C 
HETATM   13  O   LIG     1       3.748   2.376   0.164  1.00  0.00    -0.258 OA
BRANCH  12  14
HETATM   14  O   LIG     1       4.624   0.260   0.292  1.00  0.00    -0.321 OA
HETATM   15  C   LIG     1       5.924   0.841   0.388  1.00  0.00     0.213 C 
ENDBRANCH  12  14
ENDBRANCH   3  12
TORSDOF 2
