REMARK  3 active torsions:
REMARK  status: ('A' for Active; 'I' for Inactive)
REMARK    1  A    between atoms: C_1  and  C_5 
REMARK       I    between atoms: C_5  and  N_8 
REMARK    2  A    between atoms: N_8  and  C_13 
REMARK    3  A    between atoms: N_8  and  C_14 
ROOT
HETATM    1  C   LIG     1       1.621   3.316   0.184  1.00  0.00     0.107 C 
HETATM    2  N   LIG     1       0.300   2.961   0.376  1.00  0.00    -0.355 N 
ATOM      3  HN  LIG     1      -0.021   2.002   0.509  1.00  0.00     0.166 HD
HETATM    4  C   LIG     1       1.634   4.723   0.307  1.00  0.00    -0.022 C 
HETATM    5  C   LIG     1       0.274   5.171   0.250  1.00  0.00    -0.032 C 
HETATM    6  C   LIG     1      -0.530   4.057   0.366  1.00  0.00     0.012 C 
HETATM    7  C   LIG     1       2.776   5.674   0.401  1.00  0.00     0.051 C 
HETATM    8  C   LIG     1      -0.150   6.592   0.118  1.00  0.00     0.050 C 
HETATM    9  C   LIG     1      -2.008   3.947   0.485  1.00  0.00     0.068 C 
ENDROOT
BRANCH   1  10
HETATM   10  C   LIG     1       2.626   2.273  -0.037  1.00  0.00     0.270 C 
HETATM   11  N   LIG     1       3.741   2.483  -0.867  1.00  0.00    -0.347 N 
HETATM   12  O   LIG     1       2.433   1.133   0.460  1.00  0.00    -0.266 OA
BRANCH  11  13
HETATM   13  C   LIG     1       4.084   3.739  -1.527  1.00  0.00     0.121 C 
HETATM   14  C   LIG     1       3.080   4.285  -2.531  1.00  0.00     0.026 C 
ENDBRANCH  11  13
BRANCH  11  15
HETATM   15  C   LIG     1       4.767   1.442  -0.969  1.00  0.00     0.121 C 
HETATM   16  C   LIG     1       4.581   0.570  -2.198  1.00  0.00     0.026 C 
ENDBRANCH  11  15
ENDBRANCH   1  10
TORSDOF 3
