REMARK  1 active torsions:
REMARK  status: ('A' for Active; 'I' for Inactive)
REMARK    1  A    between atoms: N_1  and  C_2 
ROOT
HETATM    1  C   LIG     1       1.121   2.058  -1.114  1.00  0.00     0.030 A 
HETATM    2  C   LIG     1       0.748   3.412  -1.131  1.00  0.00     0.031 A 
HETATM    3  C   LIG     1       1.809   1.595  -2.242  1.00  0.00     0.031 A 
HETATM    4  C   LIG     1       1.597   3.734  -3.382  1.00  0.00     0.046 A 
HETATM    5  N   LIG     1       1.952   4.585  -4.434  1.00  0.00    -0.102 NA
HETATM    6  C   LIG     1       0.995   4.241  -2.235  1.00  0.00     0.029 A 
HETATM    7  C   LIG     1       2.054   2.420  -3.351  1.00  0.00     0.029 A 
ENDROOT
BRANCH   1   8
HETATM    8  N   LIG     1       0.861   1.275   0.012  1.00  0.00    -0.377 N 
HETATM    9  C   LIG     1       1.473  -0.062   0.166  1.00  0.00     0.149 C 
HETATM   10  C   LIG     1       0.585  -1.150  -0.463  1.00  0.00     0.187 C 
HETATM   11  O   LIG     1      -0.747  -1.124   0.078  1.00  0.00    -0.388 OA
HETATM   12  C   LIG     1      -1.350   0.165  -0.138  1.00  0.00     0.187 C 
HETATM   13  C   LIG     1      -0.532   1.287   0.524  1.00  0.00     0.149 C 
ENDBRANCH   1   8
TORSDOF 1
