REMARK  2 active torsions:
REMARK  status: ('A' for Active; 'I' for Inactive)
REMARK    1  A    between atoms: C_1  and  O_2 
REMARK    2  A    between atoms: O_2  and  C_3 
ROOT
HETATM    1  O   LIG     1       0.991  -1.961  -0.004  1.00  0.00    -0.289 OA
ENDROOT
BRANCH   1   2
HETATM    2  C   LIG     1      -0.089  -1.082  -0.001  1.00  0.00     0.172 A 
HETATM    3  N   LIG     1      -0.923  -1.046   1.067  1.00  0.00    -0.345 N 
HETATM    4  C   LIG     1      -1.939  -0.159   1.000  1.00  0.00     0.090 A 
ATOM      5  HN  LIG     1      -0.791  -1.654   1.875  1.00  0.00     0.167 HD
HETATM    6  C   LIG     1      -2.161   0.682  -0.078  1.00  0.00     0.019 A 
HETATM    7  C   LIG     1      -1.269   0.641  -1.148  1.00  0.00     0.032 A 
HETATM    8  C   LIG     1      -0.167  -0.211  -1.101  1.00  0.00     0.097 A 
HETATM    9  N   LIG     1       0.670  -0.334  -2.227  1.00  0.00    -0.098 NA
ENDBRANCH   1   2
BRANCH   1  10
HETATM   10  C   LIG     1       0.899  -3.151   0.677  1.00  0.00     0.116 A 
HETATM   11  C   LIG     1       2.088  -3.638   1.230  1.00  0.00     0.153 A 
HETATM   12  C   LIG     1       2.135  -4.865   1.879  1.00  0.00     0.087 A 
HETATM   13  F   LIG     1       3.219  -2.922   1.124  1.00  0.00    -0.203 F 
HETATM   14  C   LIG     1       0.973  -5.620   1.966  1.00  0.00     0.119 A 
HETATM   15  C   LIG     1      -0.219  -5.170   1.404  1.00  0.00     0.045 A 
HETATM   16  F   LIG     1       1.001  -6.804   2.589  1.00  0.00    -0.206 F 
HETATM   17  C   LIG     1      -0.256  -3.938   0.744  1.00  0.00     0.043 A 
ENDBRANCH   1  10
TORSDOF 2
