REMARK  3 active torsions:
REMARK  status: ('A' for Active; 'I' for Inactive)
REMARK    1  A    between atoms: C_1  and  C_2 
REMARK    2  A    between atoms: C_3  and  O_6 
REMARK    3  A    between atoms: C_4  and  O_8 
ROOT
HETATM    1  C   LIG     1       1.136  -0.713   0.054  1.00  0.00     0.075 A 
HETATM    2  C   LIG     1      -0.099  -1.369  -0.001  1.00  0.00     0.082 A 
HETATM    3  C   LIG     1       1.151   0.691   0.049  1.00  0.00     0.082 A 
HETATM    4  C   LIG     1      -1.249   0.750  -0.182  1.00  0.00     0.005 A 
HETATM    5  C   LIG     1      -1.283  -0.643  -0.139  1.00  0.00     0.037 A 
HETATM    6  C   LIG     1      -0.031   1.419  -0.077  1.00  0.00     0.037 A 
ENDROOT
BRANCH   1   7
HETATM    7  C   LIG     1       2.436  -1.432   0.081  1.00  0.00     0.161 C 
HETATM    8  O   LIG     1       3.387  -0.906   0.662  1.00  0.00    -0.293 OA
HETATM    9  C   LIG     1       2.579  -2.747  -0.636  1.00  0.00     0.097 C 
ENDBRANCH   1   7
BRANCH   2  10
HETATM   10  O   LIG     1      -0.245  -2.723   0.111  1.00  0.00    -0.360 OA
ATOM     11  HO  LIG     1      -1.083  -3.168   0.074  1.00  0.00     0.217 HD
ENDBRANCH   2  10
BRANCH   3  12
HETATM   12  O   LIG     1       2.303   1.427   0.156  1.00  0.00    -0.360 OA
ATOM     13  HO  LIG     1       2.313   2.377   0.153  1.00  0.00     0.217 HD
ENDBRANCH   3  12
TORSDOF 3
