REMARK  0 active torsions:
REMARK  status: ('A' for Active; 'I' for Inactive)
ROOT
HETATM    1  N   LIG     1       1.186   1.363  -0.031  1.00  0.00    -0.359 N 
ATOM      2  HN  LIG     1       1.171   2.383  -0.039  1.00  0.00     0.166 HD
HETATM    3  C   LIG     1       0.039   0.660  -0.016  1.00  0.00     0.042 A 
HETATM    4  C   LIG     1       0.015  -0.747   0.007  1.00  0.00    -0.008 A 
HETATM    5  C   LIG     1      -1.213  -1.437   0.004  1.00  0.00     0.040 A 
HETATM    6  C   LIG     1      -1.175   1.330  -0.049  1.00  0.00     0.032 A 
HETATM    7  C   LIG     1       2.361   0.690  -0.035  1.00  0.00     0.005 A 
HETATM    8  C   LIG     1       1.242  -1.420   0.014  1.00  0.00     0.015 A 
HETATM    9  C   LIG     1      -2.426  -0.748   0.017  1.00  0.00     0.047 A 
HETATM   10  C   LIG     1       2.430  -0.697  -0.007  1.00  0.00     0.025 A 
HETATM   11  N   LIG     1      -3.633  -1.436  -0.135  1.00  0.00    -0.102 NA
HETATM   12  C   LIG     1      -2.395   0.643  -0.058  1.00  0.00     0.029 A 
HETATM   13  C   LIG     1       3.607   1.522  -0.079  1.00  0.00     0.068 C 
ENDROOT
TORSDOF 0
