REMARK  2 active torsions:
REMARK  status: ('A' for Active; 'I' for Inactive)
REMARK    1  A    between atoms: C_1  and  C_2 
REMARK    2  A    between atoms: C_1  and  O_10 
ROOT
HETATM    1  C   LIG     1       0.815   1.244  -0.232  1.00  0.00     0.088 C 
HETATM    2  N   LIG     1      -0.767  -1.193   0.230  1.00  0.00    -0.075 N 
ATOM      3  HN1 LIG     1      -1.255  -2.056  -0.010  1.00  0.00     0.277 HD
ATOM      4  HN2 LIG     1      -0.942  -1.184   1.235  1.00  0.00     0.277 HD
HETATM    5  C   LIG     1       1.424  -0.039   0.367  1.00  0.00     0.070 C 
HETATM    6  C   LIG     1      -0.711   1.274  -0.016  1.00  0.00     0.070 C 
HETATM    7  C   LIG     1       0.662  -1.292  -0.060  1.00  0.00     0.235 C 
HETATM    8  C   LIG     1      -1.377  -0.038  -0.426  1.00  0.00     0.235 C 
ENDROOT
BRANCH   1   9
HETATM    9  C   LIG     1       1.479   2.489   0.375  1.00  0.00    -0.024 A 
HETATM   10  C   LIG     1       2.221   3.386  -0.415  1.00  0.00     0.012 A 
HETATM   11  C   LIG     1       2.827   4.516   0.142  1.00  0.00     0.024 A 
HETATM   12  C   LIG     1       2.702   4.768   1.504  1.00  0.00     0.034 A 
HETATM   13  C   LIG     1       1.976   3.899   2.312  1.00  0.00     0.024 A 
HETATM   14 CL   LIG     1       3.447   6.157   2.192  1.00  0.00    -0.084 Cl
HETATM   15  C   LIG     1       1.372   2.769   1.752  1.00  0.00     0.012 A 
ENDBRANCH   1   9
BRANCH   1  16
HETATM   16  O   LIG     1       1.069   1.247  -1.646  1.00  0.00    -0.385 OA
ATOM     17  HO  LIG     1       0.658   0.477  -2.021  1.00  0.00     0.211 HD
ENDBRANCH   1  16
TORSDOF 2
