REMARK  1 active torsions:
REMARK  status: ('A' for Active; 'I' for Inactive)
REMARK    1  A    between atoms: N_2  and  C_3 
ROOT
HETATM    1  C   LIG     1      -0.554  -1.345  -0.104  1.00  0.00     0.073 A 
HETATM    2  C   LIG     1      -1.389  -0.214  -0.141  1.00  0.00     0.059 A 
HETATM    3  C   LIG     1      -1.011  -2.701  -0.219  1.00  0.00     0.102 C 
HETATM    4  N   LIG     1      -1.338  -3.811  -0.313  1.00  0.00    -0.191 NA
HETATM    5  C   LIG     1      -0.793   1.061  -0.112  1.00  0.00     0.033 A 
HETATM    6  C   LIG     1       0.844  -1.173  -0.034  1.00  0.00     0.051 A 
HETATM    7  C   LIG     1       1.431   0.092  -0.053  1.00  0.00     0.048 A 
HETATM    8  C   LIG     1       0.597   1.205  -0.042  1.00  0.00     0.029 A 
HETATM    9  N   LIG     1       2.806   0.237   0.146  1.00  0.00    -0.102 NA
ENDROOT
BRANCH   2  10
HETATM   10  N   LIG     1      -2.818  -0.285  -0.187  1.00  0.00    -0.331 N 
HETATM   11  C   LIG     1      -3.655   0.693  -0.702  1.00  0.00     0.096 A 
HETATM   12  C   LIG     1      -4.965   0.287  -0.581  1.00  0.00     0.019 A 
HETATM   13  C   LIG     1      -4.951  -0.969   0.052  1.00  0.00     0.019 A 
HETATM   14  C   LIG     1      -3.633  -1.290   0.295  1.00  0.00     0.096 A 
ENDBRANCH   2  10
TORSDOF 1
