REMARK  1 active torsions:
REMARK  status: ('A' for Active; 'I' for Inactive)
REMARK    1  A    between atoms: N_1  and  C_2 
ROOT
HETATM    1  C   LIG     1       1.070   2.263  -1.134  1.00  0.00     0.054 A 
HETATM    2  C   LIG     1       0.840   3.513  -0.511  1.00  0.00     0.072 A 
HETATM    3  N   LIG     1      -0.075   3.667   0.552  1.00  0.00    -0.100 NA
HETATM    4  C   LIG     1       1.932   2.215  -2.244  1.00  0.00     0.031 A 
HETATM    5  C   LIG     1       1.376   4.674  -1.091  1.00  0.00     0.029 A 
HETATM    6  C   LIG     1       2.509   3.371  -2.770  1.00  0.00     0.002 A 
HETATM    7  C   LIG     1       2.220   4.604  -2.200  1.00  0.00     0.002 A 
ENDROOT
BRANCH   1   8
HETATM    8  N   LIG     1       0.517   1.035  -0.724  1.00  0.00    -0.379 N 
HETATM    9  C   LIG     1       1.150   0.452   0.461  1.00  0.00     0.123 C 
HETATM   10  C   LIG     1       0.758  -1.023   0.558  1.00  0.00     0.020 C 
HETATM   11  C   LIG     1      -0.761  -1.201   0.522  1.00  0.00     0.003 C 
HETATM   12  C   LIG     1      -1.364  -0.511  -0.702  1.00  0.00     0.020 C 
HETATM   13  C   LIG     1      -0.947   0.960  -0.766  1.00  0.00     0.123 C 
ENDBRANCH   1   8
TORSDOF 1
