REMARK  3 active torsions:
REMARK  status: ('A' for Active; 'I' for Inactive)
REMARK       I    between atoms: C_1  and  N_2 
REMARK    1  A    between atoms: N_2  and  C_5 
REMARK    2  A    between atoms: C_6  and  C_12 
REMARK    3  A    between atoms: C_12  and  C_13 
ROOT
HETATM    1  C   LIG     1      -1.178   0.283   1.206  1.00  0.00     0.034 A 
HETATM    2  C   LIG     1      -3.957  -0.185   1.452  1.00  0.00    -0.058 A 
HETATM    3  C   LIG     1      -1.942   1.021   2.109  1.00  0.00     0.030 A 
HETATM    4  C   LIG     1      -1.812  -0.688   0.423  1.00  0.00     0.030 A 
HETATM    5  C   LIG     1      -3.190  -0.911   0.535  1.00  0.00     0.009 A 
HETATM    6  C   LIG     1      -3.318   0.781   2.238  1.00  0.00     0.009 A 
ENDROOT
BRANCH   1   7
HETATM    7  N   LIG     1       0.216   0.440   1.040  1.00  0.00    -0.328 N 
HETATM    8  C   LIG     1       1.001   1.480   1.499  1.00  0.00     0.218 C 
HETATM    9  O   LIG     1       0.622   2.467   2.125  1.00  0.00    -0.274 OA
HETATM   10  C   LIG     1       2.458   1.300   1.156  1.00  0.00     0.117 C 
ATOM     11  HN  LIG     1       0.697  -0.297   0.524  1.00  0.00     0.169 HD
ENDBRANCH   1   7
BRANCH   2  12
HETATM   12  C   LIG     1      -5.436  -0.455   1.602  1.00  0.00     0.038 C 
BRANCH  12  13
HETATM   13  C   LIG     1      -5.730  -1.522   2.661  1.00  0.00     0.000 C 
HETATM   14  C   LIG     1      -7.225  -1.784   2.794  1.00  0.00     0.005 C 
ENDBRANCH  12  13
ENDBRANCH   2  12
TORSDOF 3
