REMARK  2 active torsions:
REMARK  status: ('A' for Active; 'I' for Inactive)
REMARK    1  A    between atoms: C_1  and  O_4 
REMARK    2  A    between atoms: C_3  and  O_4 
ROOT
HETATM    1  C   LIG     1       1.408  -3.819  -0.144  1.00  0.00    -0.017 A 
HETATM    2  C   LIG     1       2.145  -3.069   0.762  1.00  0.00     0.084 A 
HETATM    3  C   LIG     1       1.336  -5.218  -0.048  1.00  0.00    -0.043 A 
HETATM    4  C   LIG     1       1.997  -5.906   0.963  1.00  0.00    -0.055 A 
HETATM    5  C   LIG     1       2.770  -3.744   1.813  1.00  0.00     0.038 A 
HETATM    6  C   LIG     1       2.702  -5.146   1.907  1.00  0.00     0.010 A 
HETATM    7  C   LIG     1       0.651  -3.328  -1.340  1.00  0.00     0.042 C 
HETATM    8  C   LIG     1       0.526  -5.779  -1.179  1.00  0.00     0.040 C 
HETATM    9  C   LIG     1      -0.239  -4.537  -1.654  1.00  0.00     0.009 C 
HETATM   10  C   LIG     1       1.919  -7.397   1.080  1.00  0.00     0.049 C 
ENDROOT
BRANCH   2  11
HETATM   11  O   LIG     1       2.105  -1.706   0.619  1.00  0.00    -0.291 OA
BRANCH  11  12
HETATM   12  C   LIG     1       3.202  -0.935   0.999  1.00  0.00     0.172 A 
HETATM   13  N   LIG     1       4.450  -1.459   0.929  1.00  0.00    -0.345 N 
HETATM   14  C   LIG     1       5.467  -0.631   1.244  1.00  0.00     0.090 A 
ATOM     15  HN  LIG     1       4.611  -2.428   0.653  1.00  0.00     0.167 HD
HETATM   16  C   LIG     1       5.300   0.696   1.604  1.00  0.00     0.019 A 
HETATM   17  C   LIG     1       4.007   1.213   1.652  1.00  0.00     0.032 A 
HETATM   18  C   LIG     1       2.916   0.387   1.384  1.00  0.00     0.097 A 
HETATM   19  N   LIG     1       1.627   0.945   1.288  1.00  0.00    -0.098 NA
ENDBRANCH  11  12
ENDBRANCH   2  11
TORSDOF 2
