REMARK  6 active torsions:
REMARK  status: ('A' for Active; 'I' for Inactive)
REMARK    1  A    between atoms: C_1  and  C_2 
REMARK    2  A    between atoms: C_3  and  O_7 
REMARK    3  A    between atoms: C_4  and  O_6 
REMARK    4  A    between atoms: O_6  and  C_9 
REMARK    5  A    between atoms: C_9  and  C_14 
REMARK    6  A    between atoms: C_14  and  C_15 
ROOT
HETATM    1  C   LIG     1      -0.216  -1.192  -0.253  1.00  0.00     0.076 A 
HETATM    2  C   LIG     1      -1.512  -1.748  -0.311  1.00  0.00     0.082 A 
HETATM    3  C   LIG     1      -0.081   0.192  -0.025  1.00  0.00     0.085 A 
HETATM    4  C   LIG     1      -2.513   0.400   0.089  1.00  0.00     0.005 A 
HETATM    5  C   LIG     1      -2.648  -0.961  -0.144  1.00  0.00     0.037 A 
HETATM    6  C   LIG     1      -1.241   0.971   0.150  1.00  0.00     0.038 A 
ENDROOT
BRANCH   3   7
HETATM    7  O   LIG     1       1.183   0.731  -0.011  1.00  0.00    -0.350 OA
BRANCH   7   8
HETATM    8  C   LIG     1       1.299   2.122   0.300  1.00  0.00     0.176 C 
BRANCH   8   9
HETATM    9  C   LIG     1       2.776   2.507   0.389  1.00  0.00     0.030 C 
BRANCH   9  10
HETATM   10  C   LIG     1       2.982   4.009   0.663  1.00  0.00    -0.021 C 
HETATM   11  C   LIG     1       2.390   4.444   2.006  1.00  0.00     0.009 C 
HETATM   12  C   LIG     1       4.470   4.362   0.625  1.00  0.00     0.009 C 
ENDBRANCH   9  10
ENDBRANCH   8   9
ENDBRANCH   7   8
ENDBRANCH   3   7
BRANCH   1  13
HETATM   13  C   LIG     1       0.942  -2.121  -0.449  1.00  0.00     0.161 C 
HETATM   14  O   LIG     1       0.740  -3.206  -1.000  1.00  0.00    -0.293 OA
HETATM   15  C   LIG     1       2.314  -1.773   0.061  1.00  0.00     0.097 C 
ENDBRANCH   1  13
BRANCH   2  16
HETATM   16  O   LIG     1      -1.755  -3.083  -0.518  1.00  0.00    -0.360 OA
ATOM     17  HO  LIG     1      -2.627  -3.457  -0.557  1.00  0.00     0.217 HD
ENDBRANCH   2  16
TORSDOF 6
