REMARK  2 active torsions:
REMARK  status: ('A' for Active; 'I' for Inactive)
REMARK    1  A    between atoms: C_1  and  C_3 
REMARK    2  A    between atoms: C_2  and  N_4 
REMARK       I    between atoms: C_3  and  N_6 
ROOT
HETATM    1  C   LIG     1      -1.631  -0.170   0.608  1.00  0.00     0.053 A 
HETATM    2  C   LIG     1      -1.824  -1.559   0.818  1.00  0.00     0.026 A 
HETATM    3  C   LIG     1      -2.064   0.767   1.576  1.00  0.00     0.019 A 
HETATM    4  C   LIG     1      -2.458  -1.931   2.027  1.00  0.00     0.025 A 
HETATM    5  C   LIG     1      -2.667   0.355   2.760  1.00  0.00     0.001 A 
HETATM    6  C   LIG     1      -2.865  -0.997   2.984  1.00  0.00     0.002 A 
ENDROOT
BRANCH   2   7
HETATM    7  N   LIG     1      -1.396  -2.552  -0.105  1.00  0.00    -0.283 NA
HETATM    8  C   LIG     1      -1.001  -3.848   0.486  1.00  0.00     0.095 C 
HETATM    9  C   LIG     1      -0.405  -4.774  -0.573  1.00  0.00     0.015 C 
HETATM   10  C   LIG     1      -1.374  -4.958  -1.736  1.00  0.00     0.002 C 
HETATM   11  C   LIG     1      -1.761  -3.598  -2.309  1.00  0.00     0.015 C 
HETATM   12  C   LIG     1      -2.356  -2.696  -1.224  1.00  0.00     0.095 C 
ENDBRANCH   2   7
BRANCH   1  13
HETATM   13  C   LIG     1      -0.967   0.413  -0.598  1.00  0.00     0.251 C 
HETATM   14  O   LIG     1      -1.238   0.112  -1.754  1.00  0.00    -0.268 OA
HETATM   15  N   LIG     1      -0.052   1.407  -0.355  1.00  0.00    -0.366 N 
ATOM     16  HN2 LIG     1       0.174   1.658   0.608  1.00  0.00     0.159 HD
ATOM     17  HN1 LIG     1       0.401   1.805  -1.178  1.00  0.00     0.159 HD
ENDBRANCH   1  13
TORSDOF 2
