REMARK  2 active torsions:
REMARK  status: ('A' for Active; 'I' for Inactive)
REMARK    1  A    between atoms: C_1  and  O_2 
REMARK    2  A    between atoms: O_2  and  C_5 
ROOT
HETATM    1  O   LIG     1       2.900  -2.116  -0.411  1.00  0.00    -0.290 OA
ENDROOT
BRANCH   1   2
HETATM    2  C   LIG     1       4.065  -1.518   0.014  1.00  0.00     0.121 A 
HETATM    3  C   LIG     1       5.332  -1.987  -0.364  1.00  0.00     0.069 A 
HETATM    4 CL   LIG     1       5.549  -3.362  -1.392  1.00  0.00    -0.081 Cl
HETATM    5  C   LIG     1       6.485  -1.299   0.033  1.00  0.00     0.027 A 
HETATM    6  C   LIG     1       6.383  -0.125   0.778  1.00  0.00     0.003 A 
HETATM    7  C   LIG     1       5.125   0.366   1.126  1.00  0.00     0.027 A 
HETATM    8  C   LIG     1       3.971  -0.326   0.745  1.00  0.00     0.069 A 
HETATM    9 CL   LIG     1       2.439   0.352   1.172  1.00  0.00    -0.081 Cl
ENDBRANCH   1   2
BRANCH   1  10
HETATM   10  C   LIG     1       2.669  -3.413   0.031  1.00  0.00     0.148 A 
HETATM   11  N   LIG     1       3.204  -3.841   1.194  1.00  0.00    -0.345 N 
HETATM   12  C   LIG     1       2.966  -5.138   1.514  1.00  0.00     0.116 A 
ATOM     13  HN  LIG     1       3.753  -3.227   1.795  1.00  0.00     0.167 HD
HETATM   14  C   LIG     1       2.266  -6.046   0.713  1.00  0.00     0.061 A 
HETATM   15  C   LIG     1       1.665  -5.530  -0.431  1.00  0.00     0.032 A 
HETATM   16  N   LIG     1       1.973  -7.346   1.141  1.00  0.00    -0.101 NA
HETATM   17  C   LIG     1       1.874  -4.200  -0.791  1.00  0.00     0.058 A 
ENDBRANCH   1  10
TORSDOF 2
