REMARK  6 active torsions:
REMARK  status: ('A' for Active; 'I' for Inactive)
REMARK    1  A    between atoms: C_1  and  C_3 
REMARK    2  A    between atoms: C_1  and  O_6 
REMARK    3  A    between atoms: C_3  and  C_7 
REMARK    4  A    between atoms: C_4  and  O_12 
REMARK    5  A    between atoms: C_5  and  C_7 
REMARK    6  A    between atoms: O_6  and  C_14 
ROOT
HETATM    1  C   LIG     1       5.161  -2.412  -4.079  1.00  0.00     0.065 A 
HETATM    2  C   LIG     1       2.657  -1.841  -2.974  1.00  0.00    -0.058 A 
HETATM    3  C   LIG     1       4.750  -1.089  -3.958  1.00  0.00     0.037 A 
HETATM    4  C   LIG     1       4.341  -3.452  -3.660  1.00  0.00     0.037 A 
HETATM    5  C   LIG     1       3.088  -3.169  -3.109  1.00  0.00     0.010 A 
HETATM    6  C   LIG     1       3.501  -0.806  -3.402  1.00  0.00     0.010 A 
ENDROOT
BRANCH   2   7
HETATM    7  C   LIG     1       1.311  -1.523  -2.371  1.00  0.00     0.048 C 
BRANCH   7   8
HETATM    8  C   LIG     1       1.378  -1.346  -0.854  1.00  0.00     0.116 C 
BRANCH   8   9
HETATM    9  C   LIG     1       0.010  -1.041  -0.297  1.00  0.00     0.259 C 
HETATM   10  O   LIG     1      -1.013  -0.954  -0.958  1.00  0.00    -0.265 OA
BRANCH   9  11
HETATM   11  O   LIG     1       0.082  -0.877   1.057  1.00  0.00    -0.322 OA
BRANCH  11  12
HETATM   12  C   LIG     1      -1.172  -0.613   1.705  1.00  0.00     0.174 C 
HETATM   13  C   LIG     1      -1.520   0.862   1.610  1.00  0.00     0.034 C 
ENDBRANCH  11  12
ENDBRANCH   9  11
ENDBRANCH   8   9
ENDBRANCH   7   8
ENDBRANCH   2   7
BRANCH   1  14
HETATM   14  O   LIG     1       6.376  -2.732  -4.610  1.00  0.00    -0.361 OA
ATOM     15  HO  LIG     1       6.657  -3.636  -4.693  1.00  0.00     0.217 HD
ENDBRANCH   1  14
TORSDOF 6
