REMARK  1 active torsions:
REMARK  status: ('A' for Active; 'I' for Inactive)
REMARK    1  A    between atoms: N_1  and  C_2 
ROOT
HETATM    1  C   LIG     1       1.076   2.172  -1.308  1.00  0.00     0.051 A 
HETATM    2  N   LIG     1      -0.573   4.242   1.105  1.00  0.00    -0.191 NA
HETATM    3  C   LIG     1       0.087   3.895   0.213  1.00  0.00     0.102 C 
HETATM    4  C   LIG     1       0.909   3.510  -0.897  1.00  0.00     0.071 A 
HETATM    5  C   LIG     1       1.968   1.936  -2.377  1.00  0.00     0.031 A 
HETATM    6  C   LIG     1       1.604   4.549  -1.550  1.00  0.00     0.025 A 
HETATM    7  C   LIG     1       2.656   2.969  -3.019  1.00  0.00     0.002 A 
HETATM    8  C   LIG     1       2.472   4.280  -2.606  1.00  0.00     0.002 A 
ENDROOT
BRANCH   1   9
HETATM    9  N   LIG     1       0.448   1.038  -0.771  1.00  0.00    -0.380 N 
HETATM   10  C   LIG     1       1.324   0.223   0.088  1.00  0.00     0.123 C 
HETATM   11  C   LIG     1       0.776  -1.204   0.155  1.00  0.00     0.020 C 
HETATM   12  C   LIG     1      -0.688  -1.225   0.592  1.00  0.00     0.003 C 
HETATM   13  C   LIG     1      -1.533  -0.298  -0.282  1.00  0.00     0.020 C 
HETATM   14  C   LIG     1      -0.944   1.113  -0.310  1.00  0.00     0.123 C 
ENDBRANCH   1   9
TORSDOF 1
