REMARK  4 active torsions:
REMARK  status: ('A' for Active; 'I' for Inactive)
REMARK    1  A    between atoms: C_1  and  C_6 
REMARK    2  A    between atoms: C_2  and  C_5 
REMARK    3  A    between atoms: C_4  and  O_8 
REMARK    4  A    between atoms: C_5  and  C_6 
ROOT
HETATM    1  C   LIG     1       3.054  -1.660   2.527  1.00  0.00    -0.025 A 
HETATM    2  C   LIG     1       3.941  -2.739   2.633  1.00  0.00     0.071 A 
HETATM    3  C   LIG     1       3.568  -0.363   2.683  1.00  0.00     0.010 A 
HETATM    4  C   LIG     1       5.292  -2.539   2.926  1.00  0.00     0.037 A 
HETATM    5  C   LIG     1       4.920  -0.157   2.968  1.00  0.00     0.001 A 
HETATM    6  C   LIG     1       5.780  -1.245   3.099  1.00  0.00     0.003 A 
ENDROOT
BRANCH   1   7
HETATM    7  C   LIG     1       1.573  -1.848   2.287  1.00  0.00     0.052 C 
BRANCH   7   8
HETATM    8  C   LIG     1       1.183  -1.829   0.813  1.00  0.00     0.118 C 
BRANCH   8   9
HETATM    9  C   LIG     1      -0.307  -2.012   0.664  1.00  0.00     0.172 C 
HETATM   10  O   LIG     1      -1.174  -1.626   1.426  1.00  0.00    -0.648 OA
HETATM   11  O   LIG     1      -0.636  -2.642  -0.483  1.00  0.00    -0.648 OA
ENDBRANCH   8   9
ENDBRANCH   7   8
ENDBRANCH   1   7
BRANCH   2  12
HETATM   12  O   LIG     1       3.466  -4.008   2.454  1.00  0.00    -0.360 OA
ATOM     13  HO  LIG     1       4.068  -4.740   2.526  1.00  0.00     0.217 HD
ENDBRANCH   2  12
TORSDOF 4
