REMARK  4 active torsions:
REMARK  status: ('A' for Active; 'I' for Inactive)
REMARK    1  A    between atoms: C_1  and  C_6 
REMARK    2  A    between atoms: C_2  and  C_5 
REMARK    3  A    between atoms: C_4  and  O_8 
REMARK    4  A    between atoms: C_5  and  C_6 
ROOT
HETATM    1  C   LIG     1       2.226  -2.837   0.410  1.00  0.00    -0.024 A 
HETATM    2  C   LIG     1       2.858  -4.063   0.124  1.00  0.00     0.074 A 
HETATM    3  C   LIG     1       3.005  -1.765   0.879  1.00  0.00     0.010 A 
HETATM    4  C   LIG     1       4.245  -4.183   0.276  1.00  0.00     0.037 A 
HETATM    5  C   LIG     1       4.385  -1.897   1.038  1.00  0.00     0.001 A 
HETATM    6  C   LIG     1       5.005  -3.104   0.733  1.00  0.00     0.003 A 
ENDROOT
BRANCH   1   7
HETATM    7  C   LIG     1       0.732  -2.642   0.238  1.00  0.00     0.052 C 
BRANCH   7   8
HETATM    8  C   LIG     1      -0.048  -2.921   1.521  1.00  0.00     0.118 C 
BRANCH   8   9
HETATM    9  C   LIG     1      -1.526  -2.688   1.334  1.00  0.00     0.172 C 
HETATM   10  O   LIG     1      -2.107  -2.346   0.322  1.00  0.00    -0.648 OA
HETATM   11  O   LIG     1      -2.212  -2.894   2.480  1.00  0.00    -0.648 OA
ENDBRANCH   8   9
ENDBRANCH   7   8
ENDBRANCH   1   7
BRANCH   2  12
HETATM   12  O   LIG     1       2.060  -5.066  -0.364  1.00  0.00    -0.355 OA
HETATM   13  C   LIG     1       2.476  -6.396  -0.076  1.00  0.00     0.210 C 
ENDBRANCH   2  12
TORSDOF 4
