REMARK  2 active torsions:
REMARK  status: ('A' for Active; 'I' for Inactive)
REMARK    1  A    between atoms: C_1  and  C_5 
REMARK    2  A    between atoms: C_2  and  O_10 
ROOT
HETATM    1  C   LIG     1      -0.804   1.103  -0.061  1.00  0.00     0.048 A 
HETATM    2  C   LIG     1      -1.411  -0.154   0.014  1.00  0.00     0.118 A 
HETATM    3  C   LIG     1      -0.613  -1.295   0.135  1.00  0.00     0.153 A 
HETATM    4  C   LIG     1       0.773  -1.203   0.146  1.00  0.00     0.087 A 
HETATM    5  C   LIG     1       0.593   1.201  -0.074  1.00  0.00     0.060 A 
HETATM    6  C   LIG     1       1.364   0.048   0.032  1.00  0.00     0.120 A 
HETATM    7  F   LIG     1      -1.180  -2.507   0.215  1.00  0.00    -0.203 F 
HETATM    8  F   LIG     1       2.699   0.148   0.033  1.00  0.00    -0.206 F 
ENDROOT
BRANCH   1   9
HETATM    9  C   LIG     1      -1.575   2.365  -0.118  1.00  0.00     0.158 C 
HETATM   10  O   LIG     1      -1.227   3.240  -0.906  1.00  0.00    -0.293 OA
HETATM   11  C   LIG     1      -2.753   2.537   0.803  1.00  0.00     0.097 C 
ENDBRANCH   1   9
BRANCH   2  12
HETATM   12  O   LIG     1      -2.765  -0.330  -0.050  1.00  0.00    -0.357 OA
ATOM     13  HO  LIG     1      -3.178  -1.184   0.001  1.00  0.00     0.218 HD
ENDBRANCH   2  12
TORSDOF 2
