REMARK  1 active torsions:
REMARK  status: ('A' for Active; 'I' for Inactive)
REMARK    1  A    between atoms: N_7  and  O_11 
ROOT
HETATM    1  C   LIG     1       0.003  -1.148   0.348  1.00  0.00     0.004 C 
HETATM    2  C   LIG     1      -0.036  -0.003   1.401  1.00  0.00    -0.031 C 
HETATM    3  C   LIG     1      -1.185  -0.733  -0.517  1.00  0.00     0.019 C 
HETATM    4  C   LIG     1      -0.031   1.101   0.303  1.00  0.00    -0.000 C 
HETATM    5  C   LIG     1      -1.269   0.779  -0.570  1.00  0.00     0.060 C 
HETATM    6  C   LIG     1       1.228  -0.797  -0.531  1.00  0.00     0.016 C 
HETATM    7  N   LIG     1      -1.972  -1.579  -1.103  1.00  0.00    -0.277 N 
ATOM      8  HN  LIG     1      -1.877  -2.593  -1.053  1.00  0.00     0.193 HD
HETATM    9  C   LIG     1       1.222   0.749  -0.537  1.00  0.00     0.007 C 
HETATM   10  C   LIG     1      -0.018  -2.570   0.858  1.00  0.00     0.022 C 
HETATM   11  C   LIG     1       1.179   0.045   2.346  1.00  0.00     0.016 C 
HETATM   12  C   LIG     1      -1.290   0.003   2.300  1.00  0.00     0.016 C 
ENDROOT
BRANCH   7  13
HETATM   13  O   LIG     1      -2.971  -0.906  -1.814  1.00  0.00    -0.290 OA
ATOM     14  HO  LIG     1      -3.548  -1.526  -2.244  1.00  0.00     0.244 HD
ENDBRANCH   7  13
TORSDOF 1
