REMARK  2 active torsions:
REMARK  status: ('A' for Active; 'I' for Inactive)
REMARK    1  A    between atoms: C_1  and  C_2 
REMARK    2  A    between atoms: C_1  and  N_3 
ROOT
HETATM    1  C   LIG     1       0.866   0.548   0.725  1.00  0.00     0.368 C 
HETATM    2  N   LIG     1       3.129  -0.549  -0.132  1.00  0.00    -0.195 NA
HETATM    3  C   LIG     1       2.128  -0.087   0.237  1.00  0.00     0.101 C 
ENDROOT
BRANCH   1   4
HETATM    4  C   LIG     1      -0.124  -0.576   0.992  1.00  0.00     0.029 A 
HETATM    5  S   LIG     1      -0.661  -0.879   2.598  1.00  0.00    -0.103 SA
HETATM    6  C   LIG     1      -1.671  -2.161   2.091  1.00  0.00     0.050 A 
HETATM    7  C   LIG     1      -1.603  -2.368   0.732  1.00  0.00     0.008 A 
HETATM    8  C   LIG     1      -0.709  -1.458   0.097  1.00  0.00     0.018 A 
ENDBRANCH   1   4
BRANCH   1   9
HETATM    9  N   LIG     1       0.308   1.554  -0.231  1.00  0.00     0.115 N 
HETATM   10  C   LIG     1       1.267   2.652  -0.522  1.00  0.00     0.300 C 
HETATM   11  C   LIG     1       1.462   3.645   0.637  1.00  0.00     0.198 C 
HETATM   12  O   LIG     1       0.214   4.206   1.057  1.00  0.00    -0.388 OA
HETATM   13  C   LIG     1      -0.722   3.186   1.419  1.00  0.00     0.198 C 
HETATM   14  C   LIG     1      -0.938   2.194   0.263  1.00  0.00     0.300 C 
ENDBRANCH   1   9
TORSDOF 2
