REMARK  1 active torsions:
REMARK  status: ('A' for Active; 'I' for Inactive)
REMARK    1  A    between atoms: C_1  and  C_4 
ROOT
HETATM    1  C   LIG     1       0.627   1.196   0.059  1.00  0.00     0.012 A 
HETATM    2  C   LIG     1      -1.381  -0.138   0.144  1.00  0.00     0.155 A 
HETATM    3  C   LIG     1      -0.764   1.110   0.191  1.00  0.00     0.060 A 
HETATM    4  C   LIG     1      -0.634  -1.297  -0.032  1.00  0.00     0.154 A 
HETATM    5  C   LIG     1       1.378   0.021  -0.120  1.00  0.00     0.018 A 
HETATM    6  C   LIG     1       0.747  -1.226  -0.165  1.00  0.00     0.046 A 
HETATM    7  F   LIG     1      -2.713  -0.210   0.271  1.00  0.00    -0.203 F 
HETATM    8  F   LIG     1      -1.240  -2.491  -0.076  1.00  0.00    -0.203 F 
ENDROOT
BRANCH   1   9
HETATM    9  C   LIG     1       1.350   2.502   0.100  1.00  0.00     0.155 C 
HETATM   10  O   LIG     1       2.570   2.525  -0.043  1.00  0.00    -0.293 OA
HETATM   11  C   LIG     1       0.564   3.768   0.318  1.00  0.00     0.096 C 
ENDBRANCH   1   9
TORSDOF 1
