REMARK  0 active torsions:
REMARK  status: ('A' for Active; 'I' for Inactive)
ROOT
HETATM    1  C   LIG     1       1.246  -0.696   0.078  1.00  0.00     0.090 A 
HETATM    2  C   LIG     1       2.491  -1.397   0.185  1.00  0.00     0.103 C 
HETATM    3  N   LIG     1       3.478  -1.999   0.319  1.00  0.00    -0.191 NA
HETATM    4  C   LIG     1       0.031  -1.414   0.105  1.00  0.00     0.068 A 
HETATM    5  C   LIG     1       1.227   0.706   0.003  1.00  0.00     0.056 A 
HETATM    6  N   LIG     1      -0.022  -2.815  -0.006  1.00  0.00    -0.101 NA
HETATM    7 CL   LIG     1       2.679   1.645  -0.075  1.00  0.00    -0.083 Cl
HETATM    8  C   LIG     1      -1.186   0.694  -0.022  1.00  0.00     0.004 A 
HETATM    9  C   LIG     1      -1.173  -0.700   0.007  1.00  0.00     0.028 A 
HETATM   10  C   LIG     1       0.014   1.398  -0.029  1.00  0.00     0.025 A 
ENDROOT
TORSDOF 0
