REMARK  2 active torsions:
REMARK  status: ('A' for Active; 'I' for Inactive)
REMARK    1  A    between atoms: C_4  and  O_12 
REMARK    2  A    between atoms: C_6  and  O_13 
ROOT
HETATM    1  C   LIG     1      -0.501   0.360  -0.022  1.00  0.00    -0.019 A 
HETATM    2  C   LIG     1       0.864   0.649   0.134  1.00  0.00     0.049 A 
HETATM    3  C   LIG     1      -0.872  -0.983  -0.189  1.00  0.00    -0.045 A 
HETATM    4  C   LIG     1       1.855  -0.347   0.071  1.00  0.00     0.102 A 
HETATM    5  C   LIG     1       0.112  -1.983  -0.273  1.00  0.00     0.047 A 
HETATM    6  C   LIG     1       1.476  -1.676  -0.160  1.00  0.00     0.102 A 
HETATM    7  N   LIG     1      -2.905   1.027  -0.320  1.00  0.00    -0.067 N 
ATOM      8  HN1 LIG     1      -3.004   1.026  -1.335  1.00  0.00     0.277 HD
ATOM      9  HN2 LIG     1      -3.608   1.731  -0.095  1.00  0.00     0.277 HD
HETATM   10  C   LIG     1      -1.554   1.457   0.094  1.00  0.00     0.215 C 
HETATM   11  C   LIG     1      -3.242  -0.273   0.254  1.00  0.00     0.237 C 
HETATM   12  C   LIG     1      -2.328  -1.356  -0.319  1.00  0.00     0.066 C 
HETATM   13  C   LIG     1      -1.221   2.698  -0.742  1.00  0.00     0.045 C 
ENDROOT
BRANCH   4  14
HETATM   14  O   LIG     1       3.113   0.171   0.246  1.00  0.00    -0.353 OA
HETATM   15  C   LIG     1       4.225  -0.709   0.223  1.00  0.00     0.210 C 
ENDBRANCH   4  14
BRANCH   6  16
HETATM   16  O   LIG     1       2.438  -2.650  -0.209  1.00  0.00    -0.353 OA
HETATM   17  C   LIG     1       2.159  -3.772  -1.039  1.00  0.00     0.210 C 
ENDBRANCH   6  16
TORSDOF 2
