REMARK  0 active torsions:
REMARK  status: ('A' for Active; 'I' for Inactive)
ROOT
HETATM    1  C   LIG     1      -1.250   0.771  -0.001  1.00  0.00     0.066 A 
HETATM    2  C   LIG     1      -0.003   1.538  -0.001  1.00  0.00     0.199 A 
HETATM    3  C   LIG     1      -1.193  -0.614  -0.001  1.00  0.00     0.162 A 
HETATM    4  O   LIG     1      -0.014  -1.322  -0.001  1.00  0.00    -0.292 OA
HETATM    5  C   LIG     1       1.247   0.767  -0.001  1.00  0.00     0.049 A 
HETATM    6  C   LIG     1       1.168  -0.623  -0.001  1.00  0.00     0.092 A 
HETATM    7  N   LIG     1      -2.304  -1.389   0.000  1.00  0.00    -0.346 N 
ATOM      8  HN  LIG     1      -2.242  -2.407  -0.000  1.00  0.00     0.167 HD
HETATM    9  O   LIG     1      -0.006   2.762  -0.002  1.00  0.00    -0.286 OA
HETATM   10  C   LIG     1      -2.493   1.404   0.000  1.00  0.00     0.021 A 
HETATM   11  C   LIG     1       2.487   1.413  -0.001  1.00  0.00     0.018 A 
HETATM   12  C   LIG     1       2.342  -1.378  -0.000  1.00  0.00     0.038 A 
HETATM   13  C   LIG     1      -3.499  -0.756   0.001  1.00  0.00     0.090 A 
HETATM   14  C   LIG     1      -3.644   0.623   0.001  1.00  0.00     0.018 A 
HETATM   15  C   LIG     1       3.657   0.655   0.000  1.00  0.00     0.001 A 
HETATM   16  C   LIG     1       3.585  -0.739   0.000  1.00  0.00     0.003 A 
ENDROOT
TORSDOF 0
