REMARK  1 active torsions:
REMARK  status: ('A' for Active; 'I' for Inactive)
REMARK    1  A    between atoms: C_3  and  O_7 
ROOT
HETATM    1  C   LIG     1      -0.381   0.634   0.009  1.00  0.00    -0.018 A 
HETATM    2  C   LIG     1      -0.116  -0.737   0.001  1.00  0.00    -0.043 A 
HETATM    3  C   LIG     1       0.654   1.551   0.010  1.00  0.00     0.072 A 
HETATM    4  C   LIG     1       1.192  -1.219  -0.001  1.00  0.00    -0.055 A 
HETATM    5  C   LIG     1       1.970   1.097   0.007  1.00  0.00     0.037 A 
HETATM    6  C   LIG     1       2.236  -0.281   0.002  1.00  0.00     0.010 A 
HETATM    7  C   LIG     1      -1.844   0.923   0.007  1.00  0.00     0.042 A 
HETATM    8  C   LIG     1      -1.381  -1.534  -0.016  1.00  0.00     0.040 A 
HETATM    9  C   LIG     1      -2.487  -0.471   0.029  1.00  0.00     0.009 A 
HETATM   10  C   LIG     1       1.480  -2.690  -0.007  1.00  0.00     0.049 C 
ENDROOT
BRANCH   3  11
HETATM   11  O   LIG     1       0.360   2.881   0.012  1.00  0.00    -0.360 OA
ATOM     12  HO  LIG     1       1.071   3.511   0.013  1.00  0.00     0.217 HD
ENDBRANCH   3  11
TORSDOF 1
