REMARK  0 active torsions:
REMARK  status: ('A' for Active; 'I' for Inactive)
ROOT
HETATM    1  C   LIG     1       1.240  -0.736   0.076  1.00  0.00     0.076 A 
HETATM    2  C   LIG     1       0.007  -1.434   0.124  1.00  0.00     0.071 A 
HETATM    3  C   LIG     1       1.234   0.667  -0.099  1.00  0.00    -0.036 A 
HETATM    4  N   LIG     1       2.456  -1.452  -0.002  1.00  0.00    -0.100 NA
HETATM    5  N   LIG     1      -0.054  -2.844   0.065  1.00  0.00    -0.100 NA
HETATM    6  C   LIG     1      -1.197   0.668  -0.067  1.00  0.00     0.003 A 
HETATM    7  C   LIG     1      -1.197  -0.723   0.018  1.00  0.00     0.028 A 
HETATM    8  C   LIG     1       0.008   1.355  -0.122  1.00  0.00     0.009 A 
HETATM    9  C   LIG     1       2.490   1.485  -0.227  1.00  0.00     0.050 C 
ENDROOT
TORSDOF 0
