REMARK  1 active torsions:
REMARK  status: ('A' for Active; 'I' for Inactive)
REMARK    1  A    between atoms: C_4  and  O_9 
ROOT
HETATM    1  C   LIG     1       0.954   0.061   0.035  1.00  0.00    -0.078 C 
HETATM    2  C   LIG     1      -0.246   0.029   0.049  1.00  0.00     0.018 C 
HETATM    3  C   LIG     1       2.384   0.099   0.020  1.00  0.00     0.017 A 
HETATM    4  C   LIG     1       5.189   0.179  -0.007  1.00  0.00     0.068 A 
HETATM    5  C   LIG     1       3.054   1.321   0.095  1.00  0.00     0.023 A 
HETATM    6  C   LIG     1       3.115  -1.085  -0.070  1.00  0.00     0.023 A 
HETATM    7  C   LIG     1       4.512  -1.042  -0.083  1.00  0.00     0.038 A 
HETATM    8  C   LIG     1       4.454   1.362   0.082  1.00  0.00     0.038 A 
ENDROOT
BRANCH   4   9
HETATM    9  O   LIG     1       6.552   0.078  -0.028  1.00  0.00    -0.356 OA
HETATM   10  C   LIG     1       7.288   1.291   0.068  1.00  0.00     0.210 C 
ENDBRANCH   4   9
TORSDOF 1
