REMARK  1 active torsions:
REMARK  status: ('A' for Active; 'I' for Inactive)
REMARK    1  A    between atoms: N_1  and  C_2 
ROOT
HETATM    1  C   LIG     1       1.126   2.201  -0.912  1.00  0.00     0.030 A 
HETATM    2  C   LIG     1       0.682   3.533  -0.894  1.00  0.00     0.031 A 
HETATM    3  C   LIG     1       1.957   1.848  -1.983  1.00  0.00     0.031 A 
HETATM    4  C   LIG     1       1.751   4.041  -3.013  1.00  0.00     0.046 A 
HETATM    5  N   LIG     1       2.168   4.975  -3.968  1.00  0.00    -0.102 NA
HETATM    6  C   LIG     1       1.000   4.442  -1.914  1.00  0.00     0.029 A 
HETATM    7  C   LIG     1       2.276   2.753  -3.008  1.00  0.00     0.029 A 
ENDROOT
BRANCH   1   8
HETATM    8  N   LIG     1       0.795   1.328   0.125  1.00  0.00    -0.381 N 
HETATM    9  C   LIG     1       1.502   0.053   0.300  1.00  0.00     0.123 C 
HETATM   10  C   LIG     1       0.793  -1.072  -0.456  1.00  0.00     0.020 C 
HETATM   11  C   LIG     1      -0.683  -1.155  -0.066  1.00  0.00     0.003 C 
HETATM   12  C   LIG     1      -1.368   0.204  -0.205  1.00  0.00     0.020 C 
HETATM   13  C   LIG     1      -0.610   1.286   0.567  1.00  0.00     0.123 C 
ENDBRANCH   1   8
TORSDOF 1
