REMARK  1 active torsions:
REMARK  status: ('A' for Active; 'I' for Inactive)
REMARK    1  A    between atoms: C_3  and  O_9 
ROOT
HETATM    1  C   LIG     1      -1.362   0.140  -0.156  1.00  0.00     0.081 A 
HETATM    2  C   LIG     1      -0.685   1.354  -0.005  1.00  0.00     0.053 A 
HETATM    3  C   LIG     1      -0.637  -1.071  -0.107  1.00  0.00     0.092 A 
HETATM    4  C   LIG     1       0.757  -1.043  -0.003  1.00  0.00     0.040 A 
HETATM    5  C   LIG     1       0.703   1.369   0.104  1.00  0.00     0.036 A 
HETATM    6  N   LIG     1      -2.772   0.125  -0.137  1.00  0.00    -0.099 NA
HETATM    7  C   LIG     1       1.427   0.180   0.097  1.00  0.00     0.026 A 
HETATM    8 CL   LIG     1       1.532   2.870   0.260  1.00  0.00    -0.084 Cl
ENDROOT
BRANCH   3   9
HETATM    9  O   LIG     1      -1.396  -2.213  -0.211  1.00  0.00    -0.354 OA
HETATM   10  C   LIG     1      -0.738  -3.446   0.049  1.00  0.00     0.210 C 
ENDBRANCH   3   9
TORSDOF 1
