REMARK  4 active torsions:
REMARK  status: ('A' for Active; 'I' for Inactive)
REMARK    1  A    between atoms: C_1  and  O_8 
REMARK    2  A    between atoms: C_3  and  C_10 
REMARK    3  A    between atoms: C_4  and  O_9 
REMARK    4  A    between atoms: C_10  and  O_11 
ROOT
HETATM    1  C   LIG     1      -0.089  -1.492  -0.305  1.00  0.00     0.123 A 
HETATM    2  C   LIG     1      -0.311  -2.880  -0.127  1.00  0.00     0.078 A 
HETATM    3  C   LIG     1      -1.581  -3.378   0.215  1.00  0.00    -0.010 A 
HETATM    4  C   LIG     1      -1.156  -0.591  -0.114  1.00  0.00     0.103 A 
HETATM    5  C   LIG     1      -2.634  -2.469   0.354  1.00  0.00     0.014 A 
HETATM    6  C   LIG     1      -2.425  -1.099   0.198  1.00  0.00     0.040 A 
HETATM    7 CL   LIG     1       1.006  -3.993  -0.369  1.00  0.00    -0.081 Cl
ENDROOT
BRANCH   3   8
HETATM    8  C   LIG     1      -1.879  -4.842   0.394  1.00  0.00     0.204 C 
BRANCH   8   9
HETATM    9  O   LIG     1      -2.301  -5.397  -0.843  1.00  0.00    -0.396 OA
ATOM     10  HO  LIG     1      -2.489  -6.321  -0.730  1.00  0.00     0.209 HD
ENDBRANCH   8   9
ENDBRANCH   3   8
BRANCH   1  11
HETATM   11  O   LIG     1       1.206  -1.141  -0.607  1.00  0.00    -0.351 OA
HETATM   12  C   LIG     1       1.418   0.028  -1.386  1.00  0.00     0.210 C 
ENDBRANCH   1  11
BRANCH   4  13
HETATM   13  O   LIG     1      -0.896   0.752  -0.214  1.00  0.00    -0.353 OA
HETATM   14  C   LIG     1      -1.984   1.655  -0.049  1.00  0.00     0.210 C 
ENDBRANCH   4  13
TORSDOF 4
