REMARK  2 active torsions:
REMARK  status: ('A' for Active; 'I' for Inactive)
REMARK    1  A    between atoms: C_1  and  C_2 
REMARK    2  A    between atoms: C_1  and  C_5 
ROOT
HETATM    1  C   LIG     1       0.593  -0.673   0.071  1.00  0.00     0.192 C 
HETATM    2  O   LIG     1       1.792  -0.813   0.304  1.00  0.00    -0.287 OA
ENDROOT
BRANCH   1   3
HETATM    3  C   LIG     1      -0.232  -1.876  -0.212  1.00  0.00     0.017 A 
HETATM    4  C   LIG     1       0.112  -3.079   0.420  1.00  0.00     0.042 A 
HETATM    5  C   LIG     1      -0.593  -4.254   0.151  1.00  0.00     0.047 A 
HETATM    6  N   LIG     1      -0.329  -5.419   0.884  1.00  0.00    -0.102 NA
HETATM    7  C   LIG     1      -1.710  -4.189  -0.686  1.00  0.00     0.026 A 
HETATM    8  C   LIG     1      -2.048  -3.000  -1.337  1.00  0.00     0.003 A 
HETATM    9  C   LIG     1      -1.299  -1.844  -1.115  1.00  0.00     0.015 A 
ENDBRANCH   1   3
BRANCH   1  10
HETATM   10  C   LIG     1       0.012   0.694   0.075  1.00  0.00     0.015 A 
HETATM   11  C   LIG     1       0.813   1.758  -0.359  1.00  0.00     0.015 A 
HETATM   12  C   LIG     1       0.312   3.060  -0.354  1.00  0.00     0.001 A 
HETATM   13  C   LIG     1      -0.985   3.305   0.097  1.00  0.00     0.000 A 
HETATM   14  C   LIG     1      -1.779   2.251   0.550  1.00  0.00     0.001 A 
HETATM   15  C   LIG     1      -1.281   0.946   0.547  1.00  0.00     0.015 A 
ENDBRANCH   1  10
TORSDOF 2
