REMARK  1 active torsions:
REMARK  status: ('A' for Active; 'I' for Inactive)
REMARK    1  A    between atoms: C_1  and  C_3 
ROOT
HETATM    1  C   LIG     1      -1.405  -0.138  -0.027  1.00  0.00     0.065 A 
HETATM    2  C   LIG     1      -0.617  -1.309  -0.005  1.00  0.00     0.065 A 
HETATM    3  C   LIG     1      -0.787   1.123  -0.099  1.00  0.00     0.022 A 
HETATM    4  C   LIG     1       0.780  -1.175   0.019  1.00  0.00     0.051 A 
HETATM    5  C   LIG     1       1.381   0.082  -0.061  1.00  0.00     0.035 A 
HETATM    6  N   LIG     1      -1.158  -2.588   0.233  1.00  0.00    -0.101 NA
HETATM    7  C   LIG     1       0.604   1.233  -0.125  1.00  0.00     0.025 A 
HETATM    8 CL   LIG     1       3.097   0.211  -0.060  1.00  0.00    -0.084 Cl
ENDROOT
BRANCH   1   9
HETATM    9  C   LIG     1      -2.893  -0.135  -0.002  1.00  0.00     0.211 C 
HETATM   10  O   LIG     1      -3.594   0.839   0.206  1.00  0.00    -0.644 OA
HETATM   11  O   LIG     1      -3.451  -1.324  -0.308  1.00  0.00    -0.644 OA
ENDBRANCH   1   9
TORSDOF 1
