REMARK  2 active torsions:
REMARK  status: ('A' for Active; 'I' for Inactive)
REMARK    1  A    between atoms: C_2  and  O_4 
REMARK    2  A    between atoms: O_4  and  C_5 
ROOT
HETATM    1  C   LIG     1      -0.578  -0.291   0.202  1.00  0.00    -0.017 A 
HETATM    2  C   LIG     1       0.324   0.737   0.435  1.00  0.00     0.086 A 
HETATM    3  C   LIG     1      -0.125  -1.591  -0.070  1.00  0.00    -0.043 A 
HETATM    4  C   LIG     1       1.233  -1.896  -0.094  1.00  0.00    -0.055 A 
HETATM    5  C   LIG     1       1.687   0.443   0.458  1.00  0.00     0.038 A 
HETATM    6  C   LIG     1       2.135  -0.862   0.190  1.00  0.00     0.010 A 
HETATM    7  C   LIG     1      -2.073  -0.227   0.146  1.00  0.00     0.042 C 
HETATM    8  C   LIG     1      -1.281  -2.501  -0.362  1.00  0.00     0.040 C 
HETATM    9  C   LIG     1      -2.448  -1.713   0.241  1.00  0.00     0.009 C 
HETATM   10  C   LIG     1       1.718  -3.286  -0.373  1.00  0.00     0.049 C 
ENDROOT
BRANCH   2  11
HETATM   11  O   LIG     1      -0.194   2.013   0.719  1.00  0.00    -0.279 OA
BRANCH  11  12
HETATM   12  C   LIG     1       0.489   3.168   0.336  1.00  0.00     0.260 C 
HETATM   13  O   LIG     1       1.515   3.234  -0.330  1.00  0.00    -0.265 OA
HETATM   14  C   LIG     1      -0.268   4.371   0.817  1.00  0.00     0.126 C 
ENDBRANCH  11  12
ENDBRANCH   2  11
TORSDOF 2
