REMARK  2 active torsions:
REMARK  status: ('A' for Active; 'I' for Inactive)
REMARK    1  A    between atoms: C_1  and  C_6 
REMARK    2  A    between atoms: C_7  and  O_11 
ROOT
HETATM    1  C   LIG     1      -0.434  -1.099   0.082  1.00  0.00     0.138 A 
HETATM    2  N   LIG     1       0.845  -0.648  -0.121  1.00  0.00    -0.290 N 
HETATM    3  C   LIG     1      -1.228   0.032   0.147  1.00  0.00     0.093 A 
HETATM    4  N   LIG     1       0.928   0.695  -0.181  1.00  0.00    -0.278 N 
ATOM      5  HN  LIG     1       1.758   1.272  -0.317  1.00  0.00     0.189 HD
HETATM    6  C   LIG     1      -0.327   1.086  -0.021  1.00  0.00     0.157 A 
HETATM    7  C   LIG     1       2.053  -1.432  -0.252  1.00  0.00     0.178 C 
ENDROOT
BRANCH   1   8
HETATM    8  C   LIG     1      -0.753  -2.530   0.190  1.00  0.00     0.434 C 
HETATM    9  F   LIG     1       0.007  -3.146   1.130  1.00  0.00    -0.165 F 
HETATM   10  F   LIG     1      -2.049  -2.741   0.527  1.00  0.00    -0.165 F 
HETATM   11  F   LIG     1      -0.535  -3.180  -0.979  1.00  0.00    -0.165 F 
ENDBRANCH   1   8
BRANCH   6  12
HETATM   12  O   LIG     1      -0.556   2.400  -0.040  1.00  0.00    -0.345 OA
ATOM     13  HO  LIG     1       0.057   3.117  -0.154  1.00  0.00     0.219 HD
ENDBRANCH   6  12
TORSDOF 2
