REMARK  0 active torsions:
REMARK  status: ('A' for Active; 'I' for Inactive)
ROOT
HETATM    1  C   LIG     1       1.215  -0.665  -0.034  1.00  0.00     0.140 A 
HETATM    2  N   LIG     1       0.086  -1.393  -0.005  1.00  0.00    -0.353 N 
ATOM      3  HN  LIG     1       0.106  -2.413   0.006  1.00  0.00     0.166 HD
HETATM    4  C   LIG     1       1.241   0.742  -0.116  1.00  0.00     0.087 A 
HETATM    5  N   LIG     1       2.426  -1.377   0.004  1.00  0.00    -0.081 NA
HETATM    6  N   LIG     1       2.461   1.453  -0.052  1.00  0.00    -0.099 NA
HETATM    7  C   LIG     1      -1.076  -0.706   0.009  1.00  0.00     0.089 A 
HETATM    8  C   LIG     1       0.024   1.411  -0.029  1.00  0.00     0.031 A 
HETATM    9  C   LIG     1      -1.159   0.678   0.013  1.00  0.00     0.019 A 
ENDROOT
TORSDOF 0
