REMARK  5 active torsions:
REMARK  status: ('A' for Active; 'I' for Inactive)
REMARK    1  A    between atoms: C_3  and  C_9 
REMARK    2  A    between atoms: C_6  and  C_16 
REMARK    3  A    between atoms: C_16  and  C_20 
REMARK    4  A    between atoms: O_17  and  C_19 
REMARK    5  A    between atoms: C_19  and  C_20 
ROOT
HETATM    1  N   LIG     1      -1.539  -1.089   0.053  1.00  0.00    -0.344 N 
ATOM      2  HN  LIG     1      -1.871  -2.053   0.091  1.00  0.00     0.167 HD
HETATM    3  N   LIG     1      -1.479   1.127  -0.020  1.00  0.00    -0.344 N 
ATOM      4  HN  LIG     1      -1.809   2.092  -0.038  1.00  0.00     0.167 HD
HETATM    5  C   LIG     1      -2.271   0.004   0.018  1.00  0.00     0.082 A 
HETATM    6  C   LIG     1      -0.235  -0.662   0.027  1.00  0.00     0.061 A 
HETATM    7  C   LIG     1      -0.168   0.724  -0.029  1.00  0.00     0.060 A 
HETATM    8  C   LIG     1       2.187  -0.728  -0.001  1.00  0.00     0.050 A 
HETATM    9  C   LIG     1       0.953  -1.406   0.044  1.00  0.00     0.048 A 
HETATM   10  C   LIG     1       1.031   1.435  -0.079  1.00  0.00     0.032 A 
HETATM   11  C   LIG     1       2.209   0.677  -0.065  1.00  0.00     0.018 A 
ENDROOT
BRANCH   5  12
HETATM   12  C   LIG     1      -3.760   0.070  -0.012  1.00  0.00     0.078 C 
BRANCH  12  13
HETATM   13  C   LIG     1      -4.311   0.040  -1.440  1.00  0.00     0.033 C 
BRANCH  13  14
HETATM   14  C   LIG     1      -3.946  -1.223  -2.216  1.00  0.00     0.164 C 
BRANCH  14  15
HETATM   15  O   LIG     1      -4.443  -2.376  -1.551  1.00  0.00    -0.401 OA
ATOM     16  HO  LIG     1      -4.216  -3.162  -2.034  1.00  0.00     0.209 HD
ENDBRANCH  14  15
ENDBRANCH  13  14
ENDBRANCH  12  13
ENDBRANCH   5  12
BRANCH   8  17
HETATM   17  C   LIG     1       3.485  -1.497   0.018  1.00  0.00     0.417 C 
HETATM   18  F   LIG     1       3.324  -2.848   0.080  1.00  0.00    -0.166 F 
HETATM   19  F   LIG     1       4.243  -1.263  -1.090  1.00  0.00    -0.166 F 
HETATM   20  F   LIG     1       4.269  -1.165   1.081  1.00  0.00    -0.166 F 
ENDBRANCH   8  17
TORSDOF 5
