REMARK  1 active torsions:
REMARK  status: ('A' for Active; 'I' for Inactive)
REMARK    1  A    between atoms: C_1  and  C_2 
REMARK       I    between atoms: C_1  and  N_9 
ROOT
HETATM    1  C   LIG     1       0.318   1.210  -0.284  1.00  0.00     0.033 A 
HETATM    2  C   LIG     1       0.210   3.625  -0.314  1.00  0.00     0.073 A 
HETATM    3  C   LIG     1       0.858   2.451   0.078  1.00  0.00     0.044 A 
HETATM    4  C   LIG     1      -0.963   3.562  -1.065  1.00  0.00     0.138 A 
HETATM    5  C   LIG     1      -0.854   1.156  -1.054  1.00  0.00     0.020 A 
HETATM    6  C   LIG     1      -1.497   2.333  -1.440  1.00  0.00     0.045 A 
HETATM    7 CL   LIG     1       0.880   5.146   0.138  1.00  0.00    -0.081 Cl
HETATM    8  F   LIG     1      -1.595   4.682  -1.443  1.00  0.00    -0.204 F 
ENDROOT
BRANCH   1   9
HETATM    9  C   LIG     1       0.962  -0.073   0.102  1.00  0.00     0.249 C 
HETATM   10  O   LIG     1       0.759  -1.103  -0.528  1.00  0.00    -0.268 OA
HETATM   11  N   LIG     1       1.758  -0.074   1.212  1.00  0.00    -0.366 N 
ATOM     12  HN2 LIG     1       1.927   0.784   1.737  1.00  0.00     0.159 HD
ATOM     13  HN1 LIG     1       2.200  -0.954   1.477  1.00  0.00     0.159 HD
ENDBRANCH   1   9
TORSDOF 1
