REMARK  5 active torsions:
REMARK  status: ('A' for Active; 'I' for Inactive)
REMARK    1  A    between atoms: C_3  and  C_4 
REMARK    2  A    between atoms: C_3  and  C_6 
REMARK    3  A    between atoms: N_5  and  C_6 
REMARK    4  A    between atoms: N_5  and  C_8 
REMARK    5  A    between atoms: N_5  and  C_9 
ROOT
HETATM    1  N   LIG     1      -2.362  -0.991  -3.263  1.00  0.00    -0.369 N 
ATOM      2  HN  LIG     1      -1.573  -0.349  -3.330  1.00  0.00     0.165 HD
HETATM    3  C   LIG     1      -2.556  -1.750  -2.159  1.00  0.00     0.010 A 
HETATM    4  C   LIG     1      -3.253  -1.115  -4.274  1.00  0.00     0.088 A 
HETATM    5  C   LIG     1      -3.614  -2.654  -2.051  1.00  0.00     0.025 A 
HETATM    6  C   LIG     1      -4.340  -1.974  -4.237  1.00  0.00     0.017 A 
HETATM    7  C   LIG     1      -4.516  -2.758  -3.109  1.00  0.00     0.003 A 
ENDROOT
BRANCH   3   8
HETATM    8  C   LIG     1      -1.574  -1.577  -1.025  1.00  0.00     0.087 C 
BRANCH   8   9
HETATM    9  C   LIG     1      -0.368  -2.521  -1.170  1.00  0.00     0.278 C 
BRANCH   9  10
HETATM   10  N   LIG     1       0.629  -2.447  -0.079  1.00  0.00     0.088 N 
BRANCH  10  11
HETATM   11  C   LIG     1       1.757  -3.375  -0.280  1.00  0.00     0.268 C 
HETATM   12  C   LIG     1       1.346  -4.847  -0.288  1.00  0.00     0.037 C 
ENDBRANCH  10  11
BRANCH  10  13
HETATM   13  C   LIG     1       1.105  -1.086   0.227  1.00  0.00     0.268 C 
HETATM   14  C   LIG     1       1.718  -0.275  -0.914  1.00  0.00     0.037 C 
ENDBRANCH  10  13
ENDBRANCH   9  10
ENDBRANCH   8   9
ENDBRANCH   3   8
TORSDOF 5
