REMARK  1 active torsions:
REMARK  status: ('A' for Active; 'I' for Inactive)
REMARK    1  A    between atoms: C_1  and  C_7 
ROOT
HETATM    1  C   LIG     1      -0.110  -1.280   0.014  1.00  0.00     0.140 A 
HETATM    2  C   LIG     1       1.192  -0.643   0.069  1.00  0.00     0.098 A 
HETATM    3  N   LIG     1      -1.141  -0.423  -0.111  1.00  0.00    -0.318 N 
ATOM      4  HN  LIG     1      -2.123  -0.692  -0.167  1.00  0.00     0.174 HD
HETATM    5  C   LIG     1       1.053   0.722  -0.020  1.00  0.00     0.115 A 
HETATM    6  S   LIG     1      -0.578   1.130  -0.160  1.00  0.00     0.000 SA
HETATM    7 CL   LIG     1       2.700  -1.445   0.220  1.00  0.00    -0.079 Cl
HETATM    8 CL   LIG     1       2.253   1.945  -0.006  1.00  0.00    -0.073 Cl
ENDROOT
BRANCH   1   9
HETATM    9  C   LIG     1      -0.425  -2.713   0.076  1.00  0.00     0.229 C 
HETATM   10  O   LIG     1      -1.543  -3.208   0.006  1.00  0.00    -0.643 OA
HETATM   11  O   LIG     1       0.631  -3.546   0.228  1.00  0.00    -0.643 OA
ENDBRANCH   1   9
TORSDOF 1
