REMARK  1 active torsions:
REMARK  status: ('A' for Active; 'I' for Inactive)
REMARK    1  A    between atoms: CA_3  and  C_4 
ROOT
HETATM    1  N   LIG     1      -1.155  -1.534  -0.546  1.00  0.00    -0.375 N 
ATOM      2  HN  LIG     1      -1.182  -2.495  -0.886  1.00  0.00     0.160 HD
HETATM    3  CA  LIG     1      -2.289  -0.593  -0.328  1.00  0.00     0.187 C 
HETATM    4  C   LIG     1      -0.034  -0.766  -0.165  1.00  0.00     0.035 A 
HETATM    5  C   LIG     1      -1.726   0.831  -0.522  1.00  0.00     0.077 C 
HETATM    6  C   LIG     1      -0.296   0.605  -0.161  1.00  0.00    -0.029 A 
HETATM    7  C   LIG     1       1.244  -1.241   0.056  1.00  0.00     0.029 A 
HETATM    8  C   LIG     1       0.696   1.532   0.106  1.00  0.00     0.009 A 
HETATM    9  C   LIG     1       1.982   1.058   0.369  1.00  0.00     0.001 A 
HETATM   10  C   LIG     1       2.256  -0.319   0.341  1.00  0.00     0.002 A 
ENDROOT
BRANCH   3  11
HETATM   11  C   LIG     1      -3.466  -0.907  -1.245  1.00  0.00     0.197 C 
HETATM   12  O   LIG     1      -3.788  -2.004  -1.678  1.00  0.00    -0.646 OA
HETATM   13  OXT LIG     1      -4.271   0.154  -1.476  1.00  0.00    -0.646 OA
ENDBRANCH   3  11
TORSDOF 1
