REMARK  1 active torsions:
REMARK  status: ('A' for Active; 'I' for Inactive)
REMARK    1  A    between atoms: C_1  and  C_6 
ROOT
HETATM    1  C   LIG     1      -1.815   0.989   0.003  1.00  0.00     0.128 A 
HETATM    2  C   LIG     1      -0.347   0.670   0.007  1.00  0.00    -0.029 A 
HETATM    3  C   LIG     1      -1.386  -1.391   0.013  1.00  0.00     0.161 A 
HETATM    4  C   LIG     1      -0.107  -0.698  -0.009  1.00  0.00     0.017 A 
HETATM    5  C   LIG     1      -2.508  -0.385   0.092  1.00  0.00     0.104 A 
HETATM    6  O   LIG     1      -1.508  -2.604   0.011  1.00  0.00    -0.292 OA
HETATM    7  C   LIG     1       0.721   1.556   0.019  1.00  0.00     0.009 A 
HETATM    8  C   LIG     1       1.166  -1.240  -0.020  1.00  0.00     0.016 A 
HETATM    9  C   LIG     1       2.020   1.036   0.008  1.00  0.00     0.001 A 
HETATM   10  C   LIG     1       2.242  -0.352  -0.013  1.00  0.00     0.001 A 
ENDROOT
BRANCH   1  11
HETATM   11  C   LIG     1      -2.255   1.703  -1.252  1.00  0.00     0.182 C 
HETATM   12  O   LIG     1      -1.977   1.407  -2.402  1.00  0.00    -0.647 OA
HETATM   13  O   LIG     1      -3.066   2.749  -0.996  1.00  0.00    -0.647 OA
ENDBRANCH   1  11
TORSDOF 1
