REMARK  2 active torsions:
REMARK  status: ('A' for Active; 'I' for Inactive)
REMARK    1  A    between atoms: C_1  and  C_3 
REMARK    2  A    between atoms: C_2  and  O_13 
ROOT
HETATM    1  C   LIG     1       0.776   0.753   1.116  1.00  0.00     0.052 C 
HETATM    2  C   LIG     1      -1.492   0.318   0.090  1.00  0.00     0.060 C 
HETATM    3  C   LIG     1      -0.734   1.060   1.203  1.00  0.00     0.058 C 
HETATM    4  C   LIG     1       1.302   1.184  -0.273  1.00  0.00     0.025 C 
HETATM    5  C   LIG     1       0.975  -0.775   1.262  1.00  0.00     0.025 C 
HETATM    6  C   LIG     1       0.545   0.440  -1.388  1.00  0.00    -0.010 C 
HETATM    7  C   LIG     1       0.219  -1.528   0.153  1.00  0.00    -0.010 C 
HETATM    8  C   LIG     1      -0.954   0.762  -1.281  1.00  0.00     0.042 C 
HETATM    9  C   LIG     1      -1.277  -1.196   0.252  1.00  0.00     0.042 C 
HETATM   10  C   LIG     1       0.751  -1.074  -1.217  1.00  0.00     0.009 C 
ENDROOT
BRANCH   1  11
HETATM   11  C   LIG     1       1.529   1.486   2.212  1.00  0.00     0.182 C 
HETATM   12  O   LIG     1       2.232   0.989   3.076  1.00  0.00    -0.647 OA
HETATM   13  O   LIG     1       1.368   2.823   2.165  1.00  0.00    -0.647 OA
ENDBRANCH   1  11
BRANCH   2  14
HETATM   14  O   LIG     1      -2.881   0.598   0.181  1.00  0.00    -0.390 OA
ATOM     15  HO  LIG     1      -3.349   0.140  -0.507  1.00  0.00     0.210 HD
ENDBRANCH   2  14
TORSDOF 2
