REMARK  2 active torsions:
REMARK  status: ('A' for Active; 'I' for Inactive)
REMARK    1  A    between atoms: C_1  and  C_6 
REMARK    2  A    between atoms: C_5  and  O_7 
ROOT
HETATM    1  C   LIG     1      -1.298   0.485   1.169  1.00  0.00    -0.021 A 
HETATM    2  C   LIG     1      -0.302  -0.505   0.995  1.00  0.00     0.074 A 
HETATM    3  C   LIG     1      -1.022   1.546   2.047  1.00  0.00     0.010 A 
HETATM    4  C   LIG     1       0.937  -0.387   1.639  1.00  0.00     0.037 A 
HETATM    5  C   LIG     1       0.208   1.646   2.702  1.00  0.00     0.001 A 
HETATM    6  C   LIG     1       1.190   0.686   2.491  1.00  0.00     0.003 A 
ENDROOT
BRANCH   1   7
HETATM    7  C   LIG     1      -2.632   0.363   0.430  1.00  0.00     0.024 C 
HETATM    8  C   LIG     1      -3.612  -0.564   1.170  1.00  0.00     0.037 C 
HETATM    9  C   LIG     1      -4.442   0.172   2.216  1.00  0.00     0.233 C 
HETATM   10  N   LIG     1      -5.188   1.280   1.617  1.00  0.00    -0.075 N 
HETATM   11  C   LIG     1      -4.274   2.271   1.055  1.00  0.00     0.233 C 
ATOM     12  HN2 LIG     1      -5.840   1.699   2.280  1.00  0.00     0.277 HD
ATOM     13  HN1 LIG     1      -5.863   0.952   0.926  1.00  0.00     0.277 HD
HETATM   14  C   LIG     1      -3.321   1.680   0.015  1.00  0.00     0.037 C 
ENDBRANCH   1   7
BRANCH   2  15
HETATM   15  O   LIG     1      -0.601  -1.537   0.140  1.00  0.00    -0.355 OA
HETATM   16  C   LIG     1       0.046  -2.777   0.408  1.00  0.00     0.210 C 
ENDBRANCH   2  15
TORSDOF 2
