REMARK  0 active torsions:
REMARK  status: ('A' for Active; 'I' for Inactive)
ROOT
HETATM    1  N   LIG     1       1.274  -1.327  -0.072  1.00  0.00    -0.344 N 
ATOM      2  HN  LIG     1       1.307  -2.346  -0.073  1.00  0.00     0.167 HD
HETATM    3  C   LIG     1       2.404  -0.604  -0.120  1.00  0.00     0.116 A 
HETATM    4  C   LIG     1       0.096  -0.676  -0.022  1.00  0.00     0.043 A 
HETATM    5  C   LIG     1       0.010   0.733  -0.003  1.00  0.00    -0.009 A 
HETATM    6  C   LIG     1       1.205   1.457  -0.021  1.00  0.00     0.017 A 
HETATM    7  N   LIG     1       3.592  -1.315  -0.272  1.00  0.00    -0.083 NA
HETATM    8  C   LIG     1       2.416   0.780  -0.090  1.00  0.00     0.046 A 
HETATM    9  C   LIG     1      -1.088  -1.401  -0.004  1.00  0.00     0.030 A 
HETATM   10  C   LIG     1      -1.242   1.373   0.012  1.00  0.00     0.013 A 
HETATM   11  C   LIG     1      -2.338  -0.771   0.004  1.00  0.00     0.002 A 
HETATM   12  C   LIG     1      -2.413   0.617   0.005  1.00  0.00     0.001 A 
ENDROOT
TORSDOF 0
