REMARK  1 active torsions:
REMARK  status: ('A' for Active; 'I' for Inactive)
REMARK    1  A    between atoms: C_4  and  O_10 
ROOT
HETATM    1  C   LIG     1       0.733   1.370  -0.295  1.00  0.00     0.138 C 
HETATM    2  C   LIG     1       1.316  -0.017   0.003  1.00  0.00     0.017 C 
HETATM    3  C   LIG     1      -0.780   1.429  -0.310  1.00  0.00     0.117 C 
HETATM    4  C   LIG     1      -1.300   0.018   0.001  1.00  0.00     0.064 C 
HETATM    5  O   LIG     1       1.419   2.369  -0.498  1.00  0.00    -0.297 OA
HETATM    6  C   LIG     1       0.763  -0.428   1.384  1.00  0.00     0.020 C 
HETATM    7  C   LIG     1       0.759  -0.962  -1.081  1.00  0.00     0.020 C 
HETATM    8  C   LIG     1      -0.772  -0.432   1.374  1.00  0.00     0.039 C 
HETATM    9  C   LIG     1      -0.776  -0.959  -1.065  1.00  0.00     0.039 C 
HETATM   10  C   LIG     1       2.842  -0.007  -0.001  1.00  0.00     0.023 C 
ENDROOT
BRANCH   4  11
HETATM   11  O   LIG     1      -2.719  -0.003  -0.009  1.00  0.00    -0.389 OA
ATOM     12  HO  LIG     1      -3.041  -0.876   0.183  1.00  0.00     0.210 HD
ENDBRANCH   4  11
TORSDOF 1
