REMARK  3 active torsions:
REMARK  status: ('A' for Active; 'I' for Inactive)
REMARK    1  A    between atoms: C_3  and  C_7 
REMARK    2  A    between atoms: N_4  and  C_9 
REMARK    3  A    between atoms: C_7  and  C_9 
ROOT
HETATM    1  N   LIG     1       0.968  -1.060  -0.212  1.00  0.00    -0.369 N 
ATOM      2  HN  LIG     1       1.524  -1.915  -0.221  1.00  0.00     0.165 HD
HETATM    3  C   LIG     1      -0.387  -1.103  -0.191  1.00  0.00     0.010 A 
HETATM    4  C   LIG     1       1.554   0.158  -0.220  1.00  0.00     0.088 A 
HETATM    5  C   LIG     1      -1.168   0.051  -0.161  1.00  0.00     0.025 A 
HETATM    6  C   LIG     1       0.852   1.350  -0.201  1.00  0.00     0.017 A 
HETATM    7  C   LIG     1      -0.535   1.291  -0.168  1.00  0.00     0.003 A 
ENDROOT
BRANCH   3   8
HETATM    8  C   LIG     1      -1.029  -2.467  -0.181  1.00  0.00     0.084 C 
BRANCH   8   9
HETATM    9  C   LIG     1      -0.666  -3.259  -1.442  1.00  0.00     0.237 C 
BRANCH   9  10
HETATM   10  N   LIG     1      -1.308  -4.582  -1.426  1.00  0.00    -0.079 N 
HETATM   11  C   LIG     1      -0.960  -5.334  -2.626  1.00  0.00     0.267 C 
ATOM     12  HN2 LIG     1      -1.086  -5.101  -0.576  1.00  0.00     0.276 HD
ATOM     13  HN1 LIG     1      -2.318  -4.512  -1.302  1.00  0.00     0.276 HD
ENDBRANCH   9  10
ENDBRANCH   8   9
ENDBRANCH   3   8
TORSDOF 3
