REMARK  1 active torsions:
REMARK  status: ('A' for Active; 'I' for Inactive)
REMARK    1  A    between atoms: C_1  and  C_6 
ROOT
HETATM    1  C   LIG     1      -0.204   1.119  -0.114  1.00  0.00     0.040 A 
HETATM    2  C   LIG     1       1.089   0.641  -0.218  1.00  0.00     0.090 A 
HETATM    3  S   LIG     1       1.210  -1.055  -0.102  1.00  0.00    -0.065 SA
HETATM    4  C   LIG     1      -0.458  -1.201   0.093  1.00  0.00     0.077 A 
HETATM    5  C   LIG     1      -1.109   0.003   0.072  1.00  0.00     0.048 A 
HETATM    6 CL   LIG     1       2.573   1.488  -0.442  1.00  0.00    -0.075 Cl
HETATM    7 CL   LIG     1      -1.168  -2.750   0.290  1.00  0.00    -0.076 Cl
ENDROOT
BRANCH   1   8
HETATM    8  C   LIG     1      -0.679   2.508  -0.170  1.00  0.00     0.158 C 
HETATM    9  O   LIG     1      -1.882   2.743  -0.036  1.00  0.00    -0.293 OA
HETATM   10  C   LIG     1       0.265   3.659  -0.390  1.00  0.00     0.097 C 
ENDBRANCH   1   8
TORSDOF 1
