REMARK  1 active torsions:
REMARK  status: ('A' for Active; 'I' for Inactive)
REMARK    1  A    between atoms: N_1  and  C_7 
ROOT
HETATM    1  N   LIG     1       0.782  -0.826   0.016  1.00  0.00    -0.240 N 
HETATM    2  C   LIG     1      -0.574  -1.166  -0.104  1.00  0.00     0.123 C 
HETATM    3  N   LIG     1       0.923   0.520   0.207  1.00  0.00    -0.297 N 
ATOM      4  HN  LIG     1       1.777   1.027   0.441  1.00  0.00     0.187 HD
HETATM    5  C   LIG     1      -1.260   0.023  -0.185  1.00  0.00     0.076 C 
HETATM    6  C   LIG     1      -0.297   1.028   0.022  1.00  0.00     0.026 C 
HETATM    7  N   LIG     1      -1.087  -2.426  -0.090  1.00  0.00    -0.384 N 
ATOM      8  HN1 LIG     1      -2.073  -2.673  -0.177  1.00  0.00     0.157 HD
ATOM      9  HN2 LIG     1      -0.578  -3.308  -0.030  1.00  0.00     0.157 HD
HETATM   10  C   LIG     1      -0.507   2.494   0.081  1.00  0.00     0.070 C 
ENDROOT
BRANCH   1  11
HETATM   11  C   LIG     1       1.944  -1.654  -0.036  1.00  0.00     0.058 A 
HETATM   12  C   LIG     1       3.167  -1.146   0.432  1.00  0.00     0.031 A 
HETATM   13  C   LIG     1       4.321  -1.932   0.395  1.00  0.00     0.002 A 
HETATM   14  C   LIG     1       4.269  -3.223  -0.124  1.00  0.00     0.000 A 
HETATM   15  C   LIG     1       3.067  -3.726  -0.617  1.00  0.00     0.002 A 
HETATM   16  C   LIG     1       1.907  -2.945  -0.579  1.00  0.00     0.031 A 
ENDBRANCH   1  11
TORSDOF 1
