REMARK  3 active torsions:
REMARK  status: ('A' for Active; 'I' for Inactive)
REMARK    1  A    between atoms: O_1  and  C_2 
REMARK    2  A    between atoms: O_1  and  C_4 
REMARK    3  A    between atoms: C_3  and  O_9 
ROOT
HETATM    1  C   LIG     1      -0.469   2.496   0.223  1.00  0.00     0.076 A 
HETATM    2  C   LIG     1      -2.494   4.401   0.122  1.00  0.00     0.065 A 
HETATM    3  C   LIG     1      -1.396   2.586   1.263  1.00  0.00     0.040 A 
HETATM    4  C   LIG     1      -0.583   3.343  -0.887  1.00  0.00     0.040 A 
HETATM    5  C   LIG     1      -1.593   4.306  -0.933  1.00  0.00     0.039 A 
HETATM    6  C   LIG     1      -2.409   3.545   1.215  1.00  0.00     0.039 A 
ENDROOT
BRANCH   1   7
HETATM    7  O   LIG     1       0.492   1.514   0.341  1.00  0.00    -0.311 OA
BRANCH   7   8
HETATM    8  C   LIG     1       1.716   1.767  -0.230  1.00  0.00     0.076 A 
HETATM    9  C   LIG     1       2.174   0.886  -1.209  1.00  0.00     0.037 A 
HETATM   10  C   LIG     1       3.403   1.118  -1.824  1.00  0.00     0.003 A 
HETATM   11  C   LIG     1       4.178   2.216  -1.445  1.00  0.00     0.000 A 
HETATM   12  C   LIG     1       3.732   3.075  -0.439  1.00  0.00     0.003 A 
HETATM   13  C   LIG     1       2.504   2.846   0.179  1.00  0.00     0.037 A 
ENDBRANCH   7   8
ENDBRANCH   1   7
BRANCH   2  14
HETATM   14  O   LIG     1      -3.492   5.331   0.119  1.00  0.00    -0.361 OA
ATOM     15  HO  LIG     1      -4.108   5.396   0.840  1.00  0.00     0.217 HD
ENDBRANCH   2  14
TORSDOF 3
