REMARK  4 active torsions:
REMARK  status: ('A' for Active; 'I' for Inactive)
REMARK    1  A    between atoms: C_1  and  C_3 
REMARK    2  A    between atoms: C_3  and  C_10 
REMARK    3  A    between atoms: C_4  and  C_11 
REMARK    4  A    between atoms: C_10  and  C_11 
ROOT
HETATM    1  C   LIG     1      -0.664  -2.462   0.442  1.00  0.00     0.166 C 
HETATM    2  O   LIG     1      -0.073  -2.064   1.450  1.00  0.00    -0.292 OA
ENDROOT
BRANCH   1   3
HETATM    3  C   LIG     1       0.063  -2.896  -0.747  1.00  0.00     0.050 A 
HETATM    4  S   LIG     1      -0.715  -3.299  -2.218  1.00  0.00    -0.098 SA
HETATM    5  C   LIG     1       0.763  -3.631  -2.999  1.00  0.00     0.050 A 
HETATM    6  C   LIG     1       1.843  -3.442  -2.164  1.00  0.00     0.009 A 
HETATM    7  C   LIG     1       1.436  -3.022  -0.866  1.00  0.00     0.023 A 
ENDBRANCH   1   3
BRANCH   1   8
HETATM    8  C   LIG     1      -2.190  -2.464   0.399  1.00  0.00     0.095 C 
BRANCH   8   9
HETATM    9  C   LIG     1      -2.818  -2.038   1.723  1.00  0.00     0.121 C 
BRANCH   9  10
HETATM   10  C   LIG     1      -2.538  -3.036   2.810  1.00  0.00     0.172 C 
HETATM   11  O   LIG     1      -1.958  -4.103   2.710  1.00  0.00    -0.648 OA
HETATM   12  O   LIG     1      -3.069  -2.653   3.993  1.00  0.00    -0.648 OA
ENDBRANCH   9  10
ENDBRANCH   8   9
ENDBRANCH   1   8
TORSDOF 4
