REMARK  2 active torsions:
REMARK  status: ('A' for Active; 'I' for Inactive)
REMARK    1  A    between atoms: C_3  and  C_8 
REMARK    2  A    between atoms: C_6  and  N_9 
ROOT
HETATM    1  N   LIG     1      -0.161  -0.972   0.522  1.00  0.00    -0.321 N 
ATOM      2  HN  LIG     1      -0.260  -1.971   0.701  1.00  0.00     0.169 HD
HETATM    3  C   LIG     1       1.032  -0.324   0.175  1.00  0.00     0.123 A 
HETATM    4  N   LIG     1       1.001   1.002  -0.015  1.00  0.00    -0.309 N 
ATOM      5  HN  LIG     1       1.792   1.598  -0.260  1.00  0.00     0.176 HD
HETATM    6  C   LIG     1      -1.129  -0.093   0.581  1.00  0.00     0.160 A 
HETATM    7  S   LIG     1      -0.572   1.494   0.225  1.00  0.00     0.024 SA
ENDROOT
BRANCH   3   8
HETATM    8  C   LIG     1       2.271  -1.101   0.038  1.00  0.00     0.009 A 
HETATM    9  C   LIG     1       3.490  -0.475  -0.269  1.00  0.00     0.015 A 
HETATM   10  C   LIG     1       4.664  -1.223  -0.396  1.00  0.00     0.001 A 
HETATM   11  C   LIG     1       4.634  -2.605  -0.221  1.00  0.00     0.000 A 
HETATM   12  C   LIG     1       3.432  -3.241   0.083  1.00  0.00     0.001 A 
HETATM   13  C   LIG     1       2.258  -2.493   0.211  1.00  0.00     0.015 A 
ENDBRANCH   3   8
BRANCH   6  14
HETATM   14  N   LIG     1      -2.401  -0.390   0.896  1.00  0.00    -0.379 N 
ATOM     15  HN2 LIG     1      -2.731  -1.332   1.107  1.00  0.00     0.158 HD
ATOM     16  HN1 LIG     1      -3.155   0.295   0.942  1.00  0.00     0.158 HD
ENDBRANCH   6  14
TORSDOF 2
