REMARK  3 active torsions:
REMARK  status: ('A' for Active; 'I' for Inactive)
REMARK    1  A    between atoms: C_3  and  C_8 
REMARK    2  A    between atoms: C_7  and  C_10 
REMARK    3  A    between atoms: C_8  and  C_10 
ROOT
HETATM    1  N   LIG     1      -1.316   1.402  -0.250  1.00  0.00    -0.365 N 
ATOM      2  HN  LIG     1      -1.645   2.362  -0.349  1.00  0.00     0.165 HD
HETATM    3  C   LIG     1      -1.325  -0.822  -0.082  1.00  0.00    -0.030 A 
HETATM    4  C   LIG     1      -2.124   0.296  -0.225  1.00  0.00     0.096 A 
HETATM    5  C   LIG     1       0.030  -0.360  -0.031  1.00  0.00    -0.002 A 
HETATM    6  C   LIG     1       0.002   1.032  -0.122  1.00  0.00     0.042 A 
HETATM    7  C   LIG     1       1.282  -0.998   0.089  1.00  0.00     0.014 A 
HETATM    8  C   LIG     1       1.160   1.819  -0.084  1.00  0.00     0.030 A 
HETATM    9  C   LIG     1       2.450  -0.227   0.125  1.00  0.00     0.001 A 
HETATM   10  C   LIG     1       2.386   1.162   0.045  1.00  0.00     0.002 A 
ENDROOT
BRANCH   3  11
HETATM   11  C   LIG     1      -1.791  -2.243   0.001  1.00  0.00     0.051 C 
BRANCH  11  12
HETATM   12  C   LIG     1      -2.041  -2.685   1.439  1.00  0.00     0.118 C 
BRANCH  12  13
HETATM   13  C   LIG     1      -2.508  -4.111   1.475  1.00  0.00     0.172 C 
HETATM   14  O   LIG     1      -2.191  -5.009   0.712  1.00  0.00    -0.648 OA
HETATM   15  O   LIG     1      -3.333  -4.358   2.511  1.00  0.00    -0.648 OA
ENDBRANCH  12  13
ENDBRANCH  11  12
ENDBRANCH   3  11
TORSDOF 3
