REMARK  3 active torsions:
REMARK  status: ('A' for Active; 'I' for Inactive)
REMARK    1  A    between atoms: C_1  and  C_4 
REMARK    2  A    between atoms: C_1  and  C_5 
REMARK    3  A    between atoms: C_1  and  N_6 
ROOT
HETATM    1 CL   LIG     2      -1.588   3.126   0.070  1.00  0.00     0.000 Cl
ENDROOT
TORSDOF 3
