REMARK  4 active torsions:
REMARK  status: ('A' for Active; 'I' for Inactive)
REMARK    1  A    between atoms: C_3  and  C_4 
REMARK    2  A    between atoms: C_4  and  C_7 
REMARK    3  A    between atoms: O_5  and  C_7 
REMARK    4  A    between atoms: O_5  and  C_9 
ROOT
HETATM    1  N   LIG     1       1.532   0.675   0.597  1.00  0.00    -0.369 N 
ATOM      2  HN  LIG     1       1.683   0.079  -0.217  1.00  0.00     0.165 HD
HETATM    3  C   LIG     1       0.599   0.362   1.529  1.00  0.00     0.011 A 
HETATM    4  C   LIG     1       2.255   1.800   0.779  1.00  0.00     0.088 A 
HETATM    5  C   LIG     1       0.375   1.164   2.645  1.00  0.00     0.025 A 
HETATM    6  C   LIG     1       2.097   2.648   1.857  1.00  0.00     0.017 A 
HETATM    7  C   LIG     1       1.135   2.322   2.807  1.00  0.00     0.003 A 
ENDROOT
BRANCH   3   8
HETATM    8  C   LIG     1      -0.197  -0.907   1.335  1.00  0.00     0.083 C 
BRANCH   8   9
HETATM    9  C   LIG     1       0.198  -1.674   0.073  1.00  0.00     0.173 C 
BRANCH   9  10
HETATM   10  O   LIG     1      -0.565  -2.883  -0.025  1.00  0.00    -0.391 OA
BRANCH  10  11
HETATM   11  C   LIG     1      -0.233  -3.592  -1.220  1.00  0.00     0.163 C 
HETATM   12  C   LIG     1      -1.033  -4.879  -1.273  1.00  0.00     0.033 C 
ENDBRANCH  10  11
ENDBRANCH   9  10
ENDBRANCH   8   9
ENDBRANCH   3   8
TORSDOF 4
