REMARK  0 active torsions:
REMARK  status: ('A' for Active; 'I' for Inactive)
ROOT
HETATM    1  C   LIG     1      -0.090  -0.782  -0.732  1.00  0.00    -0.023 C 
HETATM    2  C   LIG     1       0.094   0.783  -0.728  1.00  0.00    -0.023 C 
HETATM    3  C   LIG     1      -1.730   0.145   0.710  1.00  0.00     0.128 C 
HETATM    4  C   LIG     1       1.732  -0.150   0.711  1.00  0.00     0.128 C 
HETATM    5  C   LIG     1      -0.989   1.354   0.225  1.00  0.00     0.088 C 
HETATM    6  C   LIG     1       1.500   1.045  -0.156  1.00  0.00     0.088 C 
HETATM    7  C   LIG     1      -1.497  -1.045  -0.162  1.00  0.00     0.088 C 
HETATM    8  C   LIG     1       0.994  -1.357   0.216  1.00  0.00     0.088 C 
HETATM    9  O   LIG     1      -2.509   0.159   1.657  1.00  0.00    -0.298 OA
HETATM   10  O   LIG     1       2.507  -0.167   1.661  1.00  0.00    -0.298 OA
HETATM   11  C   LIG     1       0.024  -1.456  -2.105  1.00  0.00     0.016 C 
HETATM   12  C   LIG     1      -0.021   1.464  -2.098  1.00  0.00     0.016 C 
ENDROOT
TORSDOF 0
