REMARK  2 active torsions:
REMARK  status: ('A' for Active; 'I' for Inactive)
REMARK    1  A    between atoms: N_1  and  O_9 
REMARK    2  A    between atoms: C_6  and  C_8 
ROOT
HETATM    1  N   LIG     1      -0.704  -1.040  -0.166  1.00  0.00    -0.156 NA
HETATM    2  N   LIG     1       0.062   1.088  -0.194  1.00  0.00    -0.360 N 
ATOM      3  HN  LIG     1       0.061   2.091  -0.381  1.00  0.00     0.162 HD
HETATM    4  C   LIG     1       0.758  -1.129   0.116  1.00  0.00     0.086 C 
HETATM    5  C   LIG     1       1.188   0.296  -0.243  1.00  0.00     0.099 C 
HETATM    6  C   LIG     1      -1.105   0.339   0.150  1.00  0.00     0.218 C 
HETATM    7  S   LIG     1       2.705   0.882  -0.563  1.00  0.00    -0.063 SA
HETATM    8  C   LIG     1       1.095  -1.393   1.596  1.00  0.00     0.042 C 
HETATM    9  C   LIG     1       1.367  -2.209  -0.777  1.00  0.00     0.042 C 
ENDROOT
BRANCH   6  10
HETATM   10  C   LIG     1      -2.320   0.787  -0.628  1.00  0.00    -0.019 A 
HETATM   11  C   LIG     1      -2.313   0.834  -2.033  1.00  0.00     0.010 A 
HETATM   12  C   LIG     1      -3.443   1.249  -2.739  1.00  0.00     0.001 A 
HETATM   13  C   LIG     1      -4.597   1.621  -2.053  1.00  0.00     0.000 A 
HETATM   14  C   LIG     1      -4.623   1.575  -0.660  1.00  0.00     0.001 A 
HETATM   15  C   LIG     1      -3.493   1.160   0.048  1.00  0.00     0.010 A 
ENDBRANCH   6  10
BRANCH   1  16
HETATM   16  O   LIG     1      -1.434  -1.955   0.692  1.00  0.00    -0.310 OA
ATOM     17  HO  LIG     1      -2.365  -1.898   0.512  1.00  0.00     0.237 HD
ENDBRANCH   1  16
TORSDOF 2
