REMARK  0 active torsions:
REMARK  status: ('A' for Active; 'I' for Inactive)
ROOT
HETATM    1  C   LIG     1      -0.014  -0.669   0.066  1.00  0.00     0.092 A 
HETATM    2  C   LIG     1       1.254   1.445   0.035  1.00  0.00    -0.043 A 
HETATM    3  O   LIG     1       1.194  -1.394   0.069  1.00  0.00    -0.275 OA
HETATM    4  C   LIG     1       2.414  -0.745  -0.018  1.00  0.00     0.288 A 
HETATM    5  C   LIG     1      -0.026   0.725   0.040  1.00  0.00     0.004 A 
HETATM    6  C   LIG     1       2.386   0.726  -0.004  1.00  0.00     0.090 A 
HETATM    7  C   LIG     1      -1.190  -1.426   0.049  1.00  0.00     0.064 A 
HETATM    8  C   LIG     1      -1.271   1.359  -0.022  1.00  0.00     0.017 A 
HETATM    9  O   LIG     1       3.476  -1.349  -0.090  1.00  0.00    -0.260 OA
HETATM   10  C   LIG     1      -2.428  -0.787   0.021  1.00  0.00     0.049 A 
HETATM   11  C   LIG     1      -2.454   0.608  -0.062  1.00  0.00     0.027 A 
HETATM   12  N   LIG     1      -3.601  -1.524  -0.169  1.00  0.00    -0.102 NA
HETATM   13  C   LIG     1       1.276   2.945   0.058  1.00  0.00     0.049 C 
ENDROOT
TORSDOF 0
