REMARK  2 active torsions:
REMARK  status: ('A' for Active; 'I' for Inactive)
REMARK    1  A    between atoms: C_1  and  C_6 
REMARK    2  A    between atoms: C_2  and  C_6 
ROOT
HETATM    1  C   LIG     1       0.662   0.667   0.849  1.00  0.00    -0.030 C 
HETATM    2  C   LIG     1       0.120  -1.646  -0.071  1.00  0.00    -0.013 C 
HETATM    3  C   LIG     1      -1.651   0.141  -0.065  1.00  0.00    -0.013 C 
HETATM    4  C   LIG     1       0.306   0.311  -1.643  1.00  0.00    -0.013 C 
HETATM    5  C   LIG     1      -0.860   0.923   0.999  1.00  0.00     0.014 C 
HETATM    6  C   LIG     1       1.096   1.092  -0.577  1.00  0.00     0.014 C 
HETATM    7  C   LIG     1       0.908  -0.861   0.989  1.00  0.00     0.014 C 
HETATM    8  C   LIG     1      -1.196   0.588  -1.464  1.00  0.00     0.009 C 
HETATM    9  C   LIG     1      -1.380  -1.362   0.100  1.00  0.00     0.009 C 
HETATM   10  C   LIG     1       0.567  -1.194  -1.470  1.00  0.00     0.009 C 
ENDROOT
BRANCH   1  11
HETATM   11  C   LIG     1       1.477   1.393   1.936  1.00  0.00     0.122 C 
BRANCH  11  12
HETATM   12  C   LIG     1       1.326   2.890   1.949  1.00  0.00     0.173 C 
HETATM   13  O   LIG     1       1.966   3.687   1.283  1.00  0.00    -0.648 OA
HETATM   14  O   LIG     1       0.371   3.314   2.797  1.00  0.00    -0.648 OA
ENDBRANCH  11  12
ENDBRANCH   1  11
TORSDOF 2
