REMARK  2 active torsions:
REMARK  status: ('A' for Active; 'I' for Inactive)
REMARK    1  A    between atoms: C_1  and  C_2 
REMARK    2  A    between atoms: C_3  and  O_9 
ROOT
HETATM    1  C   LIG     1      -1.348  -0.215  -0.195  1.00  0.00     0.043 A 
HETATM    2  C   LIG     1      -0.541  -1.346  -0.054  1.00  0.00     0.079 A 
HETATM    3  C   LIG     1      -0.762   1.059  -0.210  1.00  0.00     0.024 A 
HETATM    4  C   LIG     1       0.833  -1.207   0.128  1.00  0.00     0.038 A 
HETATM    5  C   LIG     1       0.620   1.208  -0.031  1.00  0.00    -0.061 A 
HETATM    6  C   LIG     1       1.412   0.064   0.135  1.00  0.00     0.009 A 
HETATM    7  C   LIG     1       1.251   2.568  -0.075  1.00  0.00     0.048 C 
ENDROOT
BRANCH   1   8
HETATM    8  C   LIG     1      -2.822  -0.289  -0.309  1.00  0.00     0.158 C 
HETATM    9  O   LIG     1      -3.400   0.401  -1.145  1.00  0.00    -0.293 OA
HETATM   10  C   LIG     1      -3.571  -1.203   0.625  1.00  0.00     0.097 C 
ENDBRANCH   1   8
BRANCH   2  11
HETATM   11  O   LIG     1      -1.013  -2.627  -0.122  1.00  0.00    -0.360 OA
ATOM     12  HO  LIG     1      -0.464  -3.396  -0.026  1.00  0.00     0.217 HD
ENDBRANCH   2  11
TORSDOF 2
