REMARK  2 active torsions:
REMARK  status: ('A' for Active; 'I' for Inactive)
REMARK    1  A    between atoms: C_1  and  C_9 
REMARK    2  A    between atoms: C_6  and  O_7 
ROOT
HETATM    1  C   LIG     1       0.757   1.248  -0.219  1.00  0.00     0.093 C 
HETATM    2  C   LIG     1       1.412  -0.018   0.354  1.00  0.00     0.016 C 
HETATM    3  C   LIG     1      -0.742   1.283   0.118  1.00  0.00     0.016 C 
HETATM    4  C   LIG     1       0.697  -1.284  -0.110  1.00  0.00     0.032 C 
HETATM    5  C   LIG     1      -1.454   0.015  -0.346  1.00  0.00     0.032 C 
HETATM    6  C   LIG     1      -0.794  -1.241   0.218  1.00  0.00     0.118 C 
ENDROOT
BRANCH   1   7
HETATM    7  C   LIG     1       1.457   2.501   0.290  1.00  0.00     0.391 C 
HETATM    8  F   LIG     1       2.766   2.492  -0.044  1.00  0.00    -0.171 F 
HETATM    9  F   LIG     1       0.910   3.613  -0.248  1.00  0.00    -0.171 F 
HETATM   10  F   LIG     1       1.374   2.607   1.633  1.00  0.00    -0.171 F 
ENDBRANCH   1   7
BRANCH   6  11
HETATM   11  O   LIG     1      -1.434  -2.396  -0.310  1.00  0.00    -0.396 OA
ATOM     12  HO  LIG     1      -2.361  -2.369  -0.106  1.00  0.00     0.210 HD
ENDBRANCH   6  11
TORSDOF 2
