REMARK  2 active torsions:
REMARK  status: ('A' for Active; 'I' for Inactive)
REMARK    1  A    between atoms: C_3  and  C_8 
REMARK    2  A    between atoms: O_6  and  C_8 
ROOT
HETATM    1  N   LIG     1       0.162  -0.677  -0.444  1.00  0.00    -0.408 N 
HETATM    2  C   LIG     1       0.175   0.795  -0.435  1.00  0.00     0.085 C 
HETATM    3  C   LIG     1      -0.958   1.472   0.395  1.00  0.00     0.032 C 
HETATM    4  C   LIG     1      -1.144  -1.302  -0.596  1.00  0.00     0.117 C 
HETATM    5  C   LIG     1       1.073  -1.302   0.497  1.00  0.00     0.117 C 
HETATM    6  C   LIG     1      -2.245  -0.694   0.263  1.00  0.00     0.020 C 
HETATM    7  C   LIG     1      -2.309   0.815   0.057  1.00  0.00     0.010 C 
HETATM    8  C   LIG     1       1.581   1.350  -0.099  1.00  0.00     0.025 C 
HETATM    9  C   LIG     1       2.522  -0.971   0.108  1.00  0.00     0.019 C 
HETATM   10  C   LIG     1       2.676   0.397  -0.566  1.00  0.00     0.004 C 
ENDROOT
BRANCH   3  11
HETATM   11  C   LIG     1      -0.728   1.504   1.918  1.00  0.00     0.170 C 
BRANCH  11  12
HETATM   12  O   LIG     1      -1.822   2.129   2.588  1.00  0.00    -0.400 OA
ATOM     13  HO  LIG     1      -1.680   2.149   3.527  1.00  0.00     0.209 HD
ENDBRANCH  11  12
ENDBRANCH   3  11
TORSDOF 2
