REMARK  1 active torsions:
REMARK  status: ('A' for Active; 'I' for Inactive)
REMARK    1  A    between atoms: C_1  and  C_2 
ROOT
HETATM    1  C   LIG     1       0.371  -0.021   1.368  1.00  0.00     0.094 C 
HETATM    2  C   LIG     1      -2.322   1.130   1.045  1.00  0.00     0.127 C 
HETATM    3  O   LIG     1      -3.457   1.564   1.232  1.00  0.00    -0.298 OA
HETATM    4  C   LIG     1      -0.897  -0.886   1.446  1.00  0.00     0.021 C 
HETATM    5  C   LIG     1       0.049   1.422   1.793  1.00  0.00     0.021 C 
HETATM    6  C   LIG     1      -2.081  -0.316   0.673  1.00  0.00     0.079 C 
HETATM    7  C   LIG     1      -1.118   2.044   1.034  1.00  0.00     0.079 C 
ENDROOT
BRANCH   1   8
HETATM    8  C   LIG     1       1.049  -0.093   0.003  1.00  0.00     0.391 C 
HETATM    9  F   LIG     1       1.364  -1.369  -0.310  1.00  0.00    -0.171 F 
HETATM   10  F   LIG     1       2.196   0.621  -0.001  1.00  0.00    -0.171 F 
HETATM   11  F   LIG     1       0.264   0.388  -0.981  1.00  0.00    -0.171 F 
ENDBRANCH   1   8
TORSDOF 1
