REMARK  0 active torsions:
REMARK  status: ('A' for Active; 'I' for Inactive)
ROOT
HETATM    1  C   LIG     1      -0.120  -0.708   0.028  1.00  0.00     0.103 A 
HETATM    2  C   LIG     1      -1.206  -1.520  -0.311  1.00  0.00     0.066 A 
HETATM    3  C   LIG     1      -0.315   0.650   0.277  1.00  0.00     0.102 A 
HETATM    4  O   LIG     1       1.092  -1.327   0.177  1.00  0.00    -0.348 OA
HETATM    5  O   LIG     1       0.687   1.485   0.689  1.00  0.00    -0.348 OA
HETATM    6  C   LIG     1      -1.592   1.197   0.177  1.00  0.00     0.041 A 
HETATM    7  C   LIG     1      -2.495  -0.986  -0.392  1.00  0.00     0.049 A 
HETATM    8  N   LIG     1      -3.551  -1.765  -0.881  1.00  0.00    -0.102 NA
HETATM    9  C   LIG     1      -2.669   0.387  -0.194  1.00  0.00     0.029 A 
HETATM   10  C   LIG     1       2.697   0.467  -0.266  1.00  0.00     0.053 C 
HETATM   11  C   LIG     1       2.061  -0.829  -0.746  1.00  0.00     0.178 C 
HETATM   12  C   LIG     1       1.705   1.619  -0.305  1.00  0.00     0.178 C 
ENDROOT
TORSDOF 0
