REMARK  3 active torsions:
REMARK  status: ('A' for Active; 'I' for Inactive)
REMARK    1  A    between atoms: C_4  and  C_7 
REMARK    2  A    between atoms: C_7  and  C_12 
REMARK    3  A    between atoms: O_8  and  C_12 
ROOT
HETATM    1  N   LIG     1      -1.354   1.283  -0.228  1.00  0.00    -0.365 N 
ATOM      2  HN  LIG     1      -1.808   2.171  -0.443  1.00  0.00     0.165 HD
HETATM    3  C   LIG     1      -1.997   0.077  -0.129  1.00  0.00     0.096 A 
HETATM    4  C   LIG     1      -1.061  -0.891   0.179  1.00  0.00    -0.028 A 
HETATM    5  C   LIG     1       0.205  -0.226   0.282  1.00  0.00    -0.002 A 
HETATM    6  C   LIG     1      -0.008   1.124   0.005  1.00  0.00     0.042 A 
HETATM    7  C   LIG     1       1.518  -0.653   0.570  1.00  0.00     0.014 A 
HETATM    8  C   LIG     1       1.026   2.068  -0.009  1.00  0.00     0.030 A 
HETATM    9  C   LIG     1       2.564   0.277   0.561  1.00  0.00     0.001 A 
HETATM   10  C   LIG     1       2.319   1.617   0.272  1.00  0.00     0.002 A 
ENDROOT
BRANCH   4  11
HETATM   11  C   LIG     1      -1.322  -2.356   0.359  1.00  0.00     0.067 C 
BRANCH  11  12
HETATM   12  C   LIG     1      -1.209  -3.142  -0.948  1.00  0.00     0.168 C 
BRANCH  12  13
HETATM   13  O   LIG     1       0.129  -3.164  -1.437  1.00  0.00    -0.401 OA
ATOM     14  HO  LIG     1       0.199  -3.652  -2.249  1.00  0.00     0.209 HD
ENDBRANCH  12  13
ENDBRANCH  11  12
ENDBRANCH   4  11
TORSDOF 3
