REMARK  3 active torsions:
REMARK  status: ('A' for Active; 'I' for Inactive)
REMARK    1  A    between atoms: N_1  and  C_9 
REMARK    2  A    between atoms: C_9  and  C_17 
REMARK    3  A    between atoms: O_14  and  C_17 
ROOT
HETATM    1  N   LIG     1      -1.092   0.989  -0.045  1.00  0.00    -0.370 N 
HETATM    2  C   LIG     1       0.130   0.282  -0.002  1.00  0.00     0.038 A 
HETATM    3  C   LIG     1      -2.328   0.223  -0.367  1.00  0.00     0.026 C 
HETATM    4  C   LIG     1       0.176  -1.135  -0.009  1.00  0.00    -0.028 A 
HETATM    5  C   LIG     1      -1.092  -1.969  -0.024  1.00  0.00     0.019 C 
HETATM    6  C   LIG     1      -2.290  -1.119   0.383  1.00  0.00     0.039 C 
HETATM    7  C   LIG     1       1.419  -1.801  -0.068  1.00  0.00     0.010 A 
HETATM    8  C   LIG     1       1.373   0.948   0.072  1.00  0.00     0.036 A 
HETATM    9  C   LIG     1       2.609   0.280   0.069  1.00  0.00    -0.060 A 
HETATM   10  C   LIG     1       2.622  -1.106  -0.029  1.00  0.00     0.007 A 
HETATM   11  C   LIG     1      -2.455   0.027  -1.890  1.00  0.00     0.038 C 
HETATM   12  C   LIG     1      -3.591   0.953   0.148  1.00  0.00     0.038 C 
HETATM   13  C   LIG     1      -1.044  -3.202   0.893  1.00  0.00     0.015 C 
HETATM   14  C   LIG     1       3.887   1.058   0.138  1.00  0.00     0.048 C 
ENDROOT
BRANCH   1  15
HETATM   15  C   LIG     1      -1.056   2.423  -0.415  1.00  0.00     0.150 C 
BRANCH  15  16
HETATM   16  C   LIG     1      -0.945   3.331   0.817  1.00  0.00     0.183 C 
BRANCH  16  17
HETATM   17  O   LIG     1      -0.923   4.700   0.414  1.00  0.00    -0.399 OA
ATOM     18  HO  LIG     1      -0.854   5.262   1.177  1.00  0.00     0.209 HD
ENDBRANCH  16  17
ENDBRANCH  15  16
ENDBRANCH   1  15
TORSDOF 3
