REMARK  1 active torsions:
REMARK  status: ('A' for Active; 'I' for Inactive)
REMARK    1  A    between atoms: C_6  and  C_7 
REMARK       I    between atoms: C_7  and  N_10 
ROOT
HETATM    1  C   LIG     1      -0.601  -0.501  -0.047  1.00  0.00     0.005 A 
HETATM    2  C   LIG     1      -1.102   0.812   0.052  1.00  0.00     0.027 A 
HETATM    3  C   LIG     1       0.046   1.736   0.145  1.00  0.00     0.194 A 
HETATM    4  C   LIG     1       0.854  -0.436  -0.081  1.00  0.00    -0.010 A 
HETATM    5  C   LIG     1       1.259   0.904   0.054  1.00  0.00     0.026 A 
HETATM    6  C   LIG     1      -1.521  -1.540  -0.105  1.00  0.00     0.043 A 
HETATM    7  O   LIG     1      -0.003   2.941   0.271  1.00  0.00    -0.287 OA
HETATM    8  C   LIG     1      -2.448   1.136   0.053  1.00  0.00     0.016 A 
HETATM    9  C   LIG     1       1.828  -1.404  -0.264  1.00  0.00     0.013 A 
HETATM   10  C   LIG     1       2.579   1.316   0.057  1.00  0.00     0.016 A 
HETATM   11  C   LIG     1      -2.898  -1.239  -0.131  1.00  0.00     0.018 A 
HETATM   12  C   LIG     1      -3.356   0.087  -0.053  1.00  0.00     0.002 A 
HETATM   13  C   LIG     1       3.178  -1.016  -0.262  1.00  0.00     0.001 A 
HETATM   14  C   LIG     1       3.550   0.330  -0.097  1.00  0.00     0.001 A 
ENDROOT
BRANCH   6  15
HETATM   15  C   LIG     1      -1.154  -2.967  -0.103  1.00  0.00     0.250 C 
HETATM   16  O   LIG     1      -1.557  -3.731  -0.966  1.00  0.00    -0.268 OA
HETATM   17  N   LIG     1      -0.417  -3.395   0.964  1.00  0.00    -0.366 N 
ATOM     18  HN2 LIG     1      -0.080  -2.757   1.685  1.00  0.00     0.159 HD
ATOM     19  HN1 LIG     1      -0.163  -4.383   0.965  1.00  0.00     0.159 HD
ENDBRANCH   6  15
TORSDOF 1
