REMARK  2 active torsions:
REMARK  status: ('A' for Active; 'I' for Inactive)
REMARK    1  A    between atoms: C_1  and  C_3 
REMARK    2  A    between atoms: C_3  and  O_11 
ROOT
HETATM    1  C   LIG     1       0.945  -1.309   0.127  1.00  0.00     0.067 A 
HETATM    2  C   LIG     1      -0.249  -0.567   0.058  1.00  0.00     0.058 A 
HETATM    3  N   LIG     1      -1.564  -0.984   0.106  1.00  0.00    -0.364 N 
ATOM      4  HN  LIG     1      -1.865  -1.955   0.192  1.00  0.00     0.165 HD
HETATM    5  C   LIG     1      -2.406   0.091   0.021  1.00  0.00     0.089 A 
HETATM    6  C   LIG     1      -0.268   0.822  -0.075  1.00  0.00    -0.007 A 
HETATM    7  C   LIG     1      -1.632   1.224  -0.087  1.00  0.00     0.030 A 
HETATM    8  C   LIG     1       2.151  -0.595   0.029  1.00  0.00     0.020 A 
HETATM    9  C   LIG     1       2.157   0.793  -0.112  1.00  0.00     0.002 A 
HETATM   10  C   LIG     1       0.957   1.512  -0.157  1.00  0.00     0.014 A 
ENDROOT
BRANCH   1  11
HETATM   11  C   LIG     1       0.882  -2.779   0.325  1.00  0.00     0.295 C 
HETATM   12  O   LIG     1      -0.168  -3.400   0.423  1.00  0.00    -0.259 OA
BRANCH  11  13
HETATM   13  O   LIG     1       2.129  -3.306   0.410  1.00  0.00    -0.322 OA
HETATM   14  C   LIG     1       2.152  -4.706   0.689  1.00  0.00     0.213 C 
ENDBRANCH  11  13
ENDBRANCH   1  11
TORSDOF 2
