REMARK  4 active torsions:
REMARK  status: ('A' for Active; 'I' for Inactive)
REMARK    1  A    between atoms: C_3  and  C_9 
REMARK    2  A    between atoms: C_4  and  C_7 
REMARK    3  A    between atoms: C_7  and  C_8 
REMARK    4  A    between atoms: C_8  and  O_11 
ROOT
HETATM    1  N   LIG     1       0.183  -0.682  -0.021  1.00  0.00    -0.352 N 
ATOM      2  HN  LIG     1       0.043  -1.691   0.028  1.00  0.00     0.166 HD
HETATM    3  C   LIG     1       1.362  -0.093  -0.095  1.00  0.00     0.085 A 
HETATM    4  C   LIG     1      -0.843   0.259  -0.019  1.00  0.00     0.032 A 
HETATM    5  S   LIG     1       1.292   1.629  -0.108  1.00  0.00    -0.075 SA
HETATM    6  C   LIG     1      -0.414   1.575  -0.045  1.00  0.00     0.004 A 
HETATM    7  C   LIG     1      -1.209   2.833  -0.015  1.00  0.00     0.058 C 
ENDROOT
BRANCH   3   8
HETATM    8  C   LIG     1       2.657  -0.798  -0.113  1.00  0.00    -0.002 A 
HETATM    9  C   LIG     1       2.765  -2.068   0.477  1.00  0.00     0.014 A 
HETATM   10  C   LIG     1       3.977  -2.766   0.467  1.00  0.00     0.001 A 
HETATM   11  C   LIG     1       5.100  -2.207  -0.139  1.00  0.00     0.000 A 
HETATM   12  C   LIG     1       5.015  -0.949  -0.728  1.00  0.00     0.001 A 
HETATM   13  C   LIG     1       3.804  -0.251  -0.715  1.00  0.00     0.014 A 
ENDBRANCH   3   8
BRANCH   4  14
HETATM   14  C   LIG     1      -2.253  -0.227   0.071  1.00  0.00     0.169 C 
BRANCH  14  15
HETATM   15  C   LIG     1      -2.896  -0.399  -1.285  1.00  0.00     0.264 C 
HETATM   16  O   LIG     1      -2.634   0.247  -2.294  1.00  0.00    -0.265 OA
BRANCH  15  17
HETATM   17  O   LIG     1      -3.909  -1.314  -1.200  1.00  0.00    -0.326 OA
HETATM   18  C   LIG     1      -4.635  -1.498  -2.417  1.00  0.00     0.213 C 
ENDBRANCH  15  17
ENDBRANCH  14  15
ENDBRANCH   4  14
TORSDOF 4
