REMARK  1 active torsions:
REMARK  status: ('A' for Active; 'I' for Inactive)
REMARK    1  A    between atoms: C_4  and  O_7 
ROOT
HETATM    1  C   LIG     1       0.714   1.268  -0.291  1.00  0.00    -0.048 C 
HETATM    2  C   LIG     1       1.437  -0.014   0.182  1.00  0.00     0.011 C 
HETATM    3  C   LIG     1      -0.755   1.244   0.191  1.00  0.00     0.011 C 
HETATM    4  C   LIG     1      -0.751  -1.284   0.264  1.00  0.00     0.118 C 
HETATM    5  C   LIG     1      -1.495  -0.034  -0.200  1.00  0.00     0.032 C 
HETATM    6  C   LIG     1       0.703  -1.297  -0.203  1.00  0.00     0.032 C 
HETATM    7  C   LIG     1       1.420   2.496   0.313  1.00  0.00     0.015 C 
HETATM    8  C   LIG     1       0.779   1.391  -1.826  1.00  0.00     0.015 C 
ENDROOT
BRANCH   4   9
HETATM    9  O   LIG     1      -1.418  -2.443  -0.225  1.00  0.00    -0.396 OA
ATOM     10  HO  LIG     1      -2.322  -2.435   0.065  1.00  0.00     0.210 HD
ENDBRANCH   4   9
TORSDOF 1
