REMARK  2 active torsions:
REMARK  status: ('A' for Active; 'I' for Inactive)
REMARK    1  A    between atoms: C_1  and  C_5 
REMARK    2  A    between atoms: C_7  and  O_12 
ROOT
HETATM    1  C   LIG     1      -1.478   0.543   0.129  1.00  0.00     0.091 C 
HETATM    2  C   LIG     1      -0.140   1.265   0.397  1.00  0.00     0.023 C 
HETATM    3  C   LIG     1       0.805   0.189   0.965  1.00  0.00     0.015 C 
HETATM    4  C   LIG     1      -1.249  -0.907   0.613  1.00  0.00     0.000 C 
HETATM    5  C   LIG     1      -0.170  -0.737   1.686  1.00  0.00     0.012 C 
HETATM    6  C   LIG     1       1.534  -0.620  -0.128  1.00  0.00     0.122 C 
HETATM    7  C   LIG     1      -0.689  -1.794  -0.521  1.00  0.00     0.008 C 
HETATM    8  C   LIG     1       0.573  -1.211  -1.165  1.00  0.00     0.032 C 
ENDROOT
BRANCH   1   9
HETATM    9  C   LIG     1      -2.609   1.286   0.810  1.00  0.00     0.177 C 
HETATM   10  O   LIG     1      -3.043   2.372   0.457  1.00  0.00    -0.648 OA
HETATM   11  O   LIG     1      -3.105   0.690   1.906  1.00  0.00    -0.648 OA
ENDBRANCH   1   9
BRANCH   6  12
HETATM   12  O   LIG     1       2.519   0.180  -0.772  1.00  0.00    -0.395 OA
ATOM     13  HO  LIG     1       2.968  -0.318  -1.445  1.00  0.00     0.210 HD
ENDBRANCH   6  12
TORSDOF 2
