REMARK  3 active torsions:
REMARK  status: ('A' for Active; 'I' for Inactive)
REMARK    1  A    between atoms: C_1  and  C_8 
REMARK    2  A    between atoms: C_4  and  C_7 
REMARK    3  A    between atoms: C_8  and  O_9 
ROOT
HETATM    1  C   LIG     1      -0.409  -1.403   0.023  1.00  0.00     0.026 A 
HETATM    2  N   LIG     1       1.036   0.356   0.050  1.00  0.00    -0.260 N 
ATOM      3  HN  LIG     1       1.887   0.918   0.075  1.00  0.00     0.195 HD
HETATM    4  C   LIG     1       0.964  -0.987   0.044  1.00  0.00     0.076 A 
HETATM    5  O   LIG     1      -0.252   0.825   0.016  1.00  0.00    -0.242 OA
HETATM    6  C   LIG     1      -1.116  -0.217   0.001  1.00  0.00     0.083 A 
HETATM    7  C   LIG     1      -2.546   0.144  -0.023  1.00  0.00     0.079 C 
ENDROOT
BRANCH   4   8
HETATM    8  C   LIG     1       2.195  -1.785   0.077  1.00  0.00    -0.007 A 
HETATM    9  C   LIG     1       3.328  -1.291   0.745  1.00  0.00     0.014 A 
HETATM   10  C   LIG     1       4.519  -2.022   0.780  1.00  0.00     0.001 A 
HETATM   11  C   LIG     1       4.593  -3.260   0.148  1.00  0.00     0.000 A 
HETATM   12  C   LIG     1       3.480  -3.762  -0.524  1.00  0.00     0.001 A 
HETATM   13  C   LIG     1       2.291  -3.026  -0.566  1.00  0.00     0.014 A 
ENDBRANCH   4   8
BRANCH   1  14
HETATM   14  C   LIG     1      -0.977  -2.771   0.048  1.00  0.00     0.207 C 
BRANCH  14  15
HETATM   15  O   LIG     1      -1.144  -3.294  -1.265  1.00  0.00    -0.396 OA
ATOM     16  HO  LIG     1      -1.508  -4.171  -1.249  1.00  0.00     0.209 HD
ENDBRANCH  14  15
ENDBRANCH   1  14
TORSDOF 3
