REMARK  2 active torsions:
REMARK  status: ('A' for Active; 'I' for Inactive)
REMARK    1  A    between atoms: C_2  and  C_6 
REMARK    2  A    between atoms: C_6  and  O_7 
ROOT
HETATM    1  C   LIG     1      -0.345   0.535  -0.053  1.00  0.00     0.083 A 
HETATM    2  C   LIG     1       0.654   1.492   0.029  1.00  0.00    -0.001 A 
HETATM    3  O   LIG     1      -1.686   0.810  -0.167  1.00  0.00    -0.350 OA
HETATM    4  C   LIG     1      -0.067  -0.826  -0.050  1.00  0.00    -0.022 A 
HETATM    5  C   LIG     1      -2.323  -0.467   0.071  1.00  0.00     0.180 C 
HETATM    6  C   LIG     1       1.976   1.024   0.115  1.00  0.00     0.012 A 
HETATM    7  C   LIG     1       2.261  -0.352   0.122  1.00  0.00     0.001 A 
HETATM    8  C   LIG     1      -1.325  -1.585  -0.225  1.00  0.00     0.068 C 
HETATM    9  C   LIG     1       1.233  -1.291   0.033  1.00  0.00     0.010 A 
ENDROOT
BRANCH   2  10
HETATM   10  C   LIG     1       0.356   2.962  -0.008  1.00  0.00     0.205 C 
BRANCH  10  11
HETATM   11  O   LIG     1       0.986   3.627   1.083  1.00  0.00    -0.396 OA
ATOM     12  HO  LIG     1       0.797   4.558   1.060  1.00  0.00     0.209 HD
ENDBRANCH  10  11
ENDBRANCH   2  10
TORSDOF 2
