REMARK  3 active torsions:
REMARK  status: ('A' for Active; 'I' for Inactive)
REMARK       I    between atoms: C_1  and  N_2 
REMARK    1  A    between atoms: C_1  and  O_7 
REMARK    2  A    between atoms: N_2  and  C_4 
REMARK    3  A    between atoms: O_7  and  C_11 
ROOT
HETATM    1  C   LIG     1       0.576   0.813  -0.645  1.00  0.00     0.365 C 
HETATM    2  N   LIG     1       0.209   0.717  -1.967  1.00  0.00    -0.302 N 
ATOM      3  HN  LIG     1      -0.537   0.064  -2.208  1.00  0.00     0.171 HD
HETATM    4  O   LIG     1       1.561   1.369  -0.205  1.00  0.00    -0.238 OA
ENDROOT
BRANCH   1   5
HETATM    5  O   LIG     1      -0.355   0.164   0.108  1.00  0.00    -0.294 OA
BRANCH   5   6
HETATM    6  C   LIG     1      -0.228   0.104   1.559  1.00  0.00     0.061 C 
HETATM    7  C   LIG     1      -0.597   1.448   2.200  1.00  0.00     0.046 C 
HETATM    8  C   LIG     1      -1.259  -0.950   1.994  1.00  0.00     0.046 C 
HETATM    9  C   LIG     1       1.163  -0.380   1.987  1.00  0.00     0.046 C 
ENDBRANCH   5   6
ENDBRANCH   1   5
BRANCH   2  10
HETATM   10  C   LIG     1       0.786   1.450  -2.997  1.00  0.00     0.043 A 
HETATM   11  C   LIG     1       1.781   2.465  -2.873  1.00  0.00     0.037 A 
HETATM   12  C   LIG     1       2.125   3.035  -4.077  1.00  0.00     0.052 A 
HETATM   13  S   LIG     1       1.251   2.351  -5.373  1.00  0.00    -0.111 SA
HETATM   14  C   LIG     1       0.410   1.291  -4.317  1.00  0.00     0.079 A 
ENDBRANCH   2  10
TORSDOF 3
