REMARK  3 active torsions:
REMARK  status: ('A' for Active; 'I' for Inactive)
REMARK       I    between atoms: N_1  and  C_3 
REMARK    1  A    between atoms: N_1  and  C_4 
REMARK    2  A    between atoms: C_3  and  O_6 
REMARK    3  A    between atoms: O_6  and  C_11 
ROOT
HETATM    1  N   LIG     1       0.991  -1.585  -0.746  1.00  0.00    -0.297 N 
ATOM      2  HN  LIG     1       0.677  -2.539  -0.924  1.00  0.00     0.171 HD
HETATM    3  C   LIG     1       0.097  -0.653  -0.308  1.00  0.00     0.366 C 
HETATM    4  O   LIG     1       0.384   0.429   0.212  1.00  0.00    -0.238 OA
ENDROOT
BRANCH   1   5
HETATM    5  C   LIG     1       2.310  -1.256  -0.951  1.00  0.00     0.078 A 
HETATM    6  S   LIG     1       2.993  -1.920  -2.358  1.00  0.00    -0.084 SA
HETATM    7  C   LIG     1       4.465  -1.078  -2.100  1.00  0.00     0.052 A 
HETATM    8  C   LIG     1       4.456  -0.385  -0.909  1.00  0.00     0.010 A 
HETATM    9  C   LIG     1       3.186  -0.453  -0.261  1.00  0.00     0.038 A 
ENDBRANCH   1   5
BRANCH   3  10
HETATM   10  O   LIG     1      -1.165  -1.046  -0.615  1.00  0.00    -0.294 OA
BRANCH  10  11
HETATM   11  C   LIG     1      -2.322  -0.211  -0.312  1.00  0.00     0.061 C 
HETATM   12  C   LIG     1      -2.708  -0.418   1.156  1.00  0.00     0.046 C 
HETATM   13  C   LIG     1      -2.127   1.279  -0.635  1.00  0.00     0.046 C 
HETATM   14  C   LIG     1      -3.458  -0.719  -1.221  1.00  0.00     0.046 C 
ENDBRANCH  10  11
ENDBRANCH   3  10
TORSDOF 3
