REMARK  2 active torsions:
REMARK  status: ('A' for Active; 'I' for Inactive)
REMARK    1  A    between atoms: C_1  and  C_7 
REMARK    2  A    between atoms: C_7  and  O_8 
ROOT
HETATM    1  C   LIG     1      -0.225  -1.286  -0.006  1.00  0.00     0.021 A 
HETATM    2  N   LIG     1      -0.478   0.975   0.179  1.00  0.00    -0.265 N 
ATOM      3  HN  LIG     1      -0.890   1.905   0.258  1.00  0.00     0.194 HD
HETATM    4  O   LIG     1       0.865   0.662   0.127  1.00  0.00    -0.242 OA
HETATM    5  C   LIG     1       1.016  -0.684   0.021  1.00  0.00     0.083 A 
HETATM    6  C   LIG     1      -1.128  -0.192   0.104  1.00  0.00     0.039 A 
HETATM    7  C   LIG     1       2.406  -1.170  -0.050  1.00  0.00     0.079 C 
HETATM    8  C   LIG     1      -2.610  -0.211   0.131  1.00  0.00     0.071 C 
ENDROOT
BRANCH   1   9
HETATM    9  C   LIG     1      -0.551  -2.724  -0.122  1.00  0.00     0.207 C 
BRANCH   9  10
HETATM   10  O   LIG     1      -1.079  -3.239   1.094  1.00  0.00    -0.396 OA
ATOM     11  HO  LIG     1      -1.288  -4.163   1.019  1.00  0.00     0.209 HD
ENDBRANCH   9  10
ENDBRANCH   1   9
TORSDOF 2
