REMARK  1 active torsions:
REMARK  status: ('A' for Active; 'I' for Inactive)
REMARK    1  A    between atoms: C_1  and  C_5 
ROOT
HETATM    1  C   LIG     1       1.639  -1.127  -0.029  1.00  0.00     0.059 A 
HETATM    2  C   LIG     1       0.258  -0.669  -0.026  1.00  0.00     0.000 A 
HETATM    3  C   LIG     1       2.517  -0.059   0.024  1.00  0.00     0.069 A 
HETATM    4  S   LIG     1       1.742   1.451   0.076  1.00  0.00    -0.100 SA
HETATM    5  C   LIG     1       0.183   0.729   0.029  1.00  0.00     0.016 A 
HETATM    6  C   LIG     1      -0.973  -1.380  -0.068  1.00  0.00     0.037 A 
HETATM    7  C   LIG     1      -1.050   1.414   0.043  1.00  0.00     0.021 A 
HETATM    8  C   LIG     1      -2.195  -0.701  -0.054  1.00  0.00     0.035 A 
HETATM    9  C   LIG     1      -2.237   0.682   0.000  1.00  0.00     0.025 A 
HETATM   10 CL   LIG     1      -3.665  -1.597  -0.106  1.00  0.00    -0.084 Cl
ENDROOT
BRANCH   1  11
HETATM   11  C   LIG     1       2.149  -2.491  -0.079  1.00  0.00     0.210 C 
HETATM   12  O   LIG     1       3.332  -2.800  -0.075  1.00  0.00    -0.644 OA
HETATM   13  O   LIG     1       1.213  -3.462  -0.135  1.00  0.00    -0.644 OA
ENDBRANCH   1  11
TORSDOF 1
