REMARK  2 active torsions:
REMARK  status: ('A' for Active; 'I' for Inactive)
REMARK    1  A    between atoms: C_2  and  C_7 
REMARK    2  A    between atoms: C_7  and  O_8 
ROOT
HETATM    1  C   LIG     1      -0.160  -0.705   0.050  1.00  0.00     0.110 A 
HETATM    2  C   LIG     1      -1.256  -1.530  -0.253  1.00  0.00     0.001 A 
HETATM    3  C   LIG     1      -0.342   0.668   0.251  1.00  0.00     0.102 A 
HETATM    4  O   LIG     1       1.050  -1.315   0.263  1.00  0.00    -0.348 OA
HETATM    5  O   LIG     1       0.664   1.505   0.653  1.00  0.00    -0.348 OA
HETATM    6  C   LIG     1       2.687   0.438  -0.206  1.00  0.00     0.053 C 
HETATM    7  C   LIG     1      -2.529  -0.949  -0.368  1.00  0.00     0.012 A 
HETATM    8  C   LIG     1       2.046  -0.866  -0.657  1.00  0.00     0.178 C 
HETATM    9  C   LIG     1       1.708   1.596  -0.317  1.00  0.00     0.178 C 
HETATM   10  C   LIG     1      -2.707   0.421  -0.166  1.00  0.00     0.003 A 
HETATM   11  C   LIG     1      -1.616   1.227   0.155  1.00  0.00     0.040 A 
ENDROOT
BRANCH   2  12
HETATM   12  C   LIG     1      -1.089  -3.015  -0.437  1.00  0.00     0.205 C 
BRANCH  12  13
HETATM   13  O   LIG     1      -0.752  -3.646   0.791  1.00  0.00    -0.396 OA
ATOM     14  HO  LIG     1      -0.647  -4.583   0.675  1.00  0.00     0.209 HD
ENDBRANCH  12  13
ENDBRANCH   2  12
TORSDOF 2
