REMARK  2 active torsions:
REMARK  status: ('A' for Active; 'I' for Inactive)
REMARK    1  A    between atoms: C_1  and  C_6 
REMARK    2  A    between atoms: C_2  and  C_3 
ROOT
HETATM    1  C   LIG     1      -0.332  -1.225  -0.030  1.00  0.00     0.082 A 
HETATM    2  C   LIG     1       0.951  -0.700   0.021  1.00  0.00     0.176 A 
HETATM    3  O   LIG     1       0.889   0.669   0.067  1.00  0.00    -0.310 OA
HETATM    4  C   LIG     1      -1.213  -0.104   0.009  1.00  0.00     0.053 A 
HETATM    5  C   LIG     1      -0.424   1.021   0.058  1.00  0.00     0.051 A 
HETATM    6  C   LIG     1      -0.714   2.468   0.093  1.00  0.00     0.076 C 
ENDROOT
BRANCH   2   7
HETATM    7  C   LIG     1       2.307  -1.308   0.009  1.00  0.00     0.440 C 
HETATM    8  F   LIG     1       2.382  -2.444   0.747  1.00  0.00    -0.164 F 
HETATM    9  F   LIG     1       2.705  -1.621  -1.251  1.00  0.00    -0.164 F 
HETATM   10  F   LIG     1       3.251  -0.470   0.516  1.00  0.00    -0.164 F 
ENDBRANCH   2   7
BRANCH   1  11
HETATM   11  C   LIG     1      -0.661  -2.629  -0.117  1.00  0.00     0.212 C 
HETATM   12  O   LIG     1       0.138  -3.547  -0.179  1.00  0.00    -0.644 OA
HETATM   13  O   LIG     1      -1.988  -2.879  -0.145  1.00  0.00    -0.644 OA
ENDBRANCH   1  11
TORSDOF 2
