REMARK  3 active torsions:
REMARK  status: ('A' for Active; 'I' for Inactive)
REMARK    1  A    between atoms: C_1  and  C_8 
REMARK    2  A    between atoms: C_4  and  C_7 
REMARK    3  A    between atoms: C_8  and  N_9 
ROOT
HETATM    1  C   LIG     1      -0.325  -1.336  -0.038  1.00  0.00     0.028 A 
HETATM    2  N   LIG     1       0.950   0.556  -0.002  1.00  0.00    -0.260 N 
ATOM      3  HN  LIG     1       1.745   1.195   0.015  1.00  0.00     0.195 HD
HETATM    4  C   LIG     1       1.001  -0.786  -0.020  1.00  0.00     0.075 A 
HETATM    5  O   LIG     1      -0.378   0.901  -0.011  1.00  0.00    -0.242 OA
HETATM    6  C   LIG     1      -1.140  -0.218  -0.020  1.00  0.00     0.083 A 
HETATM    7  C   LIG     1      -2.596   0.015   0.006  1.00  0.00     0.079 C 
ENDROOT
BRANCH   4   8
HETATM    8  C   LIG     1       2.299  -1.463   0.019  1.00  0.00    -0.007 A 
HETATM    9  C   LIG     1       2.564  -2.596  -0.759  1.00  0.00     0.014 A 
HETATM   10  C   LIG     1       3.817  -3.218  -0.702  1.00  0.00     0.001 A 
HETATM   11  C   LIG     1       4.818  -2.706   0.122  1.00  0.00     0.000 A 
HETATM   12  C   LIG     1       4.572  -1.571   0.890  1.00  0.00     0.001 A 
HETATM   13  C   LIG     1       3.320  -0.953   0.838  1.00  0.00     0.014 A 
ENDBRANCH   4   8
BRANCH   1  14
HETATM   14  C   LIG     1      -0.749  -2.757  -0.011  1.00  0.00     0.273 C 
BRANCH  14  15
HETATM   15  N   LIG     1      -0.910  -3.227  -1.381  1.00  0.00    -0.075 N 
ATOM     16  HN3 LIG     1      -1.547  -2.641  -1.921  1.00  0.00     0.274 HD
ATOM     17  HN2 LIG     1      -0.072  -3.082  -1.943  1.00  0.00     0.274 HD
ATOM     18  HN1 LIG     1      -1.202  -4.204  -1.362  1.00  0.00     0.274 HD
ENDBRANCH  14  15
ENDBRANCH   1  14
TORSDOF 3
