REMARK  3 active torsions:
REMARK  status: ('A' for Active; 'I' for Inactive)
REMARK    1  A    between atoms: C_1  and  C_8 
REMARK    2  A    between atoms: C_4  and  C_7 
REMARK    3  A    between atoms: C_8  and  N_9 
ROOT
HETATM    1  C   LIG     1      -0.257  -0.921  -0.198  1.00  0.00     0.028 A 
HETATM    2  N   LIG     1       1.925  -0.301   0.027  1.00  0.00    -0.260 N 
ATOM      3  HN  LIG     1       2.940  -0.324   0.122  1.00  0.00     0.195 HD
HETATM    4  C   LIG     1       1.109  -1.365  -0.096  1.00  0.00     0.075 A 
HETATM    5  O   LIG     1       1.134   0.818   0.001  1.00  0.00    -0.242 OA
HETATM    6  C   LIG     1      -0.162   0.456  -0.127  1.00  0.00     0.083 A 
HETATM    7  C   LIG     1      -1.140   1.560  -0.142  1.00  0.00     0.079 C 
ENDROOT
BRANCH   4   8
HETATM    8  C   LIG     1       1.683  -2.718  -0.079  1.00  0.00    -0.007 A 
HETATM    9  C   LIG     1       2.900  -2.953   0.588  1.00  0.00     0.014 A 
HETATM   10  C   LIG     1       3.480  -4.224   0.611  1.00  0.00     0.001 A 
HETATM   11  C   LIG     1       2.853  -5.286  -0.033  1.00  0.00     0.000 A 
HETATM   12  C   LIG     1       1.652  -5.073  -0.706  1.00  0.00     0.001 A 
HETATM   13  C   LIG     1       1.077  -3.797  -0.735  1.00  0.00     0.014 A 
ENDBRANCH   4   8
BRANCH   1  14
HETATM   14  C   LIG     1      -1.517  -1.708  -0.298  1.00  0.00     0.275 C 
BRANCH  14  15
HETATM   15  N   LIG     1      -1.809  -1.942  -1.711  1.00  0.00    -0.075 N 
HETATM   16  C   LIG     1      -3.053  -2.680  -1.879  1.00  0.00     0.267 C 
ATOM     17  HN2 LIG     1      -1.816  -1.071  -2.241  1.00  0.00     0.277 HD
ATOM     18  HN1 LIG     1      -1.032  -2.406  -2.182  1.00  0.00     0.277 HD
ENDBRANCH  14  15
ENDBRANCH   1  14
TORSDOF 3
