REMARK  2 active torsions:
REMARK  status: ('A' for Active; 'I' for Inactive)
REMARK    1  A    between atoms: C_1  and  C_10 
REMARK    2  A    between atoms: C_10  and  O_12 
ROOT
HETATM    1  C   LIG     1       1.614  -1.109   0.000  1.00  0.00    -0.017 A 
HETATM    2  C   LIG     1       0.241  -0.644   0.006  1.00  0.00    -0.009 A 
HETATM    3  S   LIG     1       1.737   1.464  -0.039  1.00  0.00    -0.101 SA
HETATM    4  C   LIG     1       2.504  -0.053  -0.033  1.00  0.00     0.060 A 
HETATM    5  C   LIG     1       0.171   0.754  -0.012  1.00  0.00     0.015 A 
HETATM    6  C   LIG     1      -0.982  -1.364   0.023  1.00  0.00     0.037 A 
HETATM    7  C   LIG     1      -1.062   1.437  -0.010  1.00  0.00     0.021 A 
HETATM    8  C   LIG     1      -2.204  -0.686   0.024  1.00  0.00     0.035 A 
HETATM    9  C   LIG     1      -2.247   0.699   0.009  1.00  0.00     0.025 A 
HETATM   10 CL   LIG     1      -3.672  -1.585   0.045  1.00  0.00    -0.084 Cl
ENDROOT
BRANCH   1  11
HETATM   11  C   LIG     1       2.040  -2.543   0.012  1.00  0.00     0.204 C 
BRANCH  11  12
HETATM   12  O   LIG     1       2.323  -3.007  -1.302  1.00  0.00    -0.396 OA
ATOM     13  HO  LIG     1       2.594  -3.918  -1.294  1.00  0.00     0.209 HD
ENDBRANCH  11  12
ENDBRANCH   1  11
TORSDOF 2
