REMARK  2 active torsions:
REMARK  status: ('A' for Active; 'I' for Inactive)
REMARK    1  A    between atoms: C_1  and  C_2 
REMARK    2  A    between atoms: C_1  and  N_12 
ROOT
HETATM    1  C   LIG     1       0.350  -0.743   1.165  1.00  0.00     0.004 A 
HETATM    2  C   LIG     1      -0.091  -2.712   2.428  1.00  0.00     0.105 A 
HETATM    3  C   LIG     1       0.553  -2.117   1.364  1.00  0.00     0.054 A 
HETATM    4  C   LIG     1      -0.906  -2.001   3.277  1.00  0.00     0.105 A 
HETATM    5  O   LIG     1      -0.008  -4.026   2.770  1.00  0.00    -0.323 OA
HETATM    6  O   LIG     1      -1.439  -2.778   4.257  1.00  0.00    -0.323 OA
HETATM    7  C   LIG     1      -0.858  -4.059   3.936  1.00  0.00     0.352 A 
HETATM    8  C   LIG     1      -0.487  -0.015   2.041  1.00  0.00     0.017 A 
HETATM    9  C   LIG     1      -1.125  -0.651   3.111  1.00  0.00     0.040 A 
ENDROOT
BRANCH   1  10
HETATM   10  C   LIG     1       1.020  -0.068   0.023  1.00  0.00     0.104 C 
HETATM   11  S   LIG     1       1.748   1.434   0.083  1.00  0.00    -0.060 SA
BRANCH  10  12
HETATM   12  N   LIG     1       1.024  -0.755  -1.164  1.00  0.00    -0.390 N 
ATOM     13  HN2 LIG     1       0.579  -1.672  -1.201  1.00  0.00     0.157 HD
ATOM     14  HN1 LIG     1       1.484  -0.292  -1.948  1.00  0.00     0.157 HD
ENDBRANCH  10  12
ENDBRANCH   1  10
TORSDOF 2
