REMARK  1 active torsions:
REMARK  status: ('A' for Active; 'I' for Inactive)
REMARK    1  A    between atoms: C_1  and  C_2 
ROOT
HETATM    1  C   LIG     1       0.315   1.084   0.860  1.00  0.00     0.041 A 
HETATM    2  C   LIG     1      -0.615   0.636   1.811  1.00  0.00     0.028 A 
HETATM    3  C   LIG     1      -1.298   1.590   2.545  1.00  0.00    -0.022 A 
HETATM    4  C   LIG     1      -1.072   2.944   2.342  1.00  0.00     0.075 A 
HETATM    5  O   LIG     1      -1.841   3.754   3.135  1.00  0.00    -0.350 OA
HETATM    6  C   LIG     1       0.552   2.460   0.672  1.00  0.00     0.021 A 
HETATM    7  C   LIG     1      -0.160   3.406   1.415  1.00  0.00     0.038 A 
HETATM    8  C   LIG     1      -2.389   2.847   4.121  1.00  0.00     0.180 C 
HETATM    9  C   LIG     1      -2.362   1.423   3.561  1.00  0.00     0.068 C 
ENDROOT
BRANCH   1  10
HETATM   10  C   LIG     1       1.090   0.124   0.041  1.00  0.00     0.209 C 
HETATM   11  O   LIG     1       2.273   0.263  -0.212  1.00  0.00    -0.644 OA
HETATM   12  O   LIG     1       0.333  -0.886  -0.438  1.00  0.00    -0.644 OA
ENDBRANCH   1  10
TORSDOF 1
