REMARK  2 active torsions:
REMARK  status: ('A' for Active; 'I' for Inactive)
REMARK    1  A    between atoms: C_5  and  C_10 
REMARK    2  A    between atoms: O_7  and  C_10 
ROOT
HETATM    1  O   LIG     1      -1.161   1.417  -0.122  1.00  0.00    -0.339 OA
HETATM    2  O   LIG     1      -1.147  -1.481   0.055  1.00  0.00    -0.346 OA
HETATM    3  C   LIG     1      -0.013   0.672  -0.028  1.00  0.00     0.102 A 
HETATM    4  C   LIG     1      -0.003  -0.725   0.044  1.00  0.00     0.102 A 
HETATM    5  C   LIG     1      -2.327   0.614  -0.376  1.00  0.00     0.176 C 
HETATM    6  C   LIG     1      -2.276  -0.683   0.428  1.00  0.00     0.210 C 
HETATM    7  C   LIG     1       1.188   1.378  -0.016  1.00  0.00     0.039 A 
HETATM    8  C   LIG     1       1.207  -1.415   0.085  1.00  0.00     0.039 A 
HETATM    9  C   LIG     1       2.400   0.688   0.042  1.00  0.00     0.003 A 
HETATM   10  C   LIG     1       2.410  -0.707   0.087  1.00  0.00     0.003 A 
ENDROOT
BRANCH   5  11
HETATM   11  C   LIG     1      -2.496   0.399  -1.887  1.00  0.00     0.198 C 
BRANCH  11  12
HETATM   12  O   LIG     1      -3.660  -0.364  -2.184  1.00  0.00    -0.398 OA
ATOM     13  HO  LIG     1      -3.765  -0.497  -3.119  1.00  0.00     0.209 HD
ENDBRANCH  11  12
ENDBRANCH   5  11
TORSDOF 2
