REMARK  2 active torsions:
REMARK  status: ('A' for Active; 'I' for Inactive)
REMARK    1  A    between atoms: C_3  and  C_12 
REMARK    2  A    between atoms: C_12  and  O_13 
ROOT
HETATM    1  C   LIG     1       0.011  -0.669   0.018  1.00  0.00     0.088 A 
HETATM    2  C   LIG     1       0.006   0.732   0.053  1.00  0.00     0.003 A 
HETATM    3  C   LIG     1       1.219  -1.387  -0.021  1.00  0.00     0.002 A 
HETATM    4  O   LIG     1      -1.154  -1.390  -0.021  1.00  0.00    -0.325 OA
HETATM    5  C   LIG     1       1.222   1.423   0.080  1.00  0.00     0.054 A 
HETATM    6  C   LIG     1       2.427  -0.675  -0.020  1.00  0.00     0.054 A 
HETATM    7  C   LIG     1       2.417   0.714   0.038  1.00  0.00     0.117 A 
HETATM    8  O   LIG     1      -2.346   0.641  -0.396  1.00  0.00    -0.362 OA
HETATM    9  C   LIG     1      -2.315  -0.612   0.273  1.00  0.00     0.345 C 
HETATM   10  C   LIG     1      -1.297   1.469   0.089  1.00  0.00     0.212 C 
HETATM   11  F   LIG     1       3.578   1.382   0.051  1.00  0.00    -0.206 F 
ENDROOT
BRANCH   3  12
HETATM   12  C   LIG     1       1.237  -2.890  -0.098  1.00  0.00     0.205 C 
BRANCH  12  13
HETATM   13  O   LIG     1       0.949  -3.319  -1.421  1.00  0.00    -0.396 OA
ATOM     14  HO  LIG     1       0.960  -4.268  -1.470  1.00  0.00     0.209 HD
ENDBRANCH  12  13
ENDBRANCH   3  12
TORSDOF 2
