REMARK  2 active torsions:
REMARK  status: ('A' for Active; 'I' for Inactive)
REMARK    1  A    between atoms: C_8  and  C_14 
REMARK    2  A    between atoms: N_10  and  C_14 
ROOT
HETATM    1  C   LIG     1      -0.222  -0.820   0.070  1.00  0.00     0.105 A 
HETATM    2  C   LIG     1      -0.442   0.533  -0.039  1.00  0.00     0.105 A 
HETATM    3  O   LIG     1      -1.381  -1.530   0.141  1.00  0.00    -0.323 OA
HETATM    4  O   LIG     1      -1.765   0.845  -0.049  1.00  0.00    -0.323 OA
HETATM    5  C   LIG     1      -2.354  -0.467   0.063  1.00  0.00     0.352 A 
HETATM    6  C   LIG     1       1.050  -1.353   0.098  1.00  0.00     0.048 A 
HETATM    7  C   LIG     1       0.598   1.431  -0.127  1.00  0.00     0.040 A 
HETATM    8  C   LIG     1       2.139  -0.470   0.015  1.00  0.00    -0.030 A 
HETATM    9  C   LIG     1       1.900   0.920  -0.101  1.00  0.00     0.012 A 
ENDROOT
BRANCH   8  10
HETATM   10  C   LIG     1       3.552  -0.995   0.038  1.00  0.00     0.268 C 
BRANCH  10  11
HETATM   11  N   LIG     1       4.202  -0.816  -1.254  1.00  0.00    -0.075 N 
ATOM     12  HN3 LIG     1       3.658  -1.235  -2.008  1.00  0.00     0.274 HD
ATOM     13  HN2 LIG     1       4.168   0.157  -1.559  1.00  0.00     0.274 HD
ATOM     14  HN1 LIG     1       5.158  -1.171  -1.238  1.00  0.00     0.274 HD
ENDBRANCH  10  11
ENDBRANCH   8  10
TORSDOF 2
