REMARK  2 active torsions:
REMARK  status: ('A' for Active; 'I' for Inactive)
REMARK    1  A    between atoms: C_8  and  C_13 
REMARK    2  A    between atoms: N_10  and  C_13 
ROOT
HETATM    1  C   LIG     1      -0.743  -0.703   0.092  1.00  0.00     0.105 A 
HETATM    2  C   LIG     1      -1.148   0.610   0.065  1.00  0.00     0.105 A 
HETATM    3  O   LIG     1      -1.792  -1.568   0.154  1.00  0.00    -0.323 OA
HETATM    4  O   LIG     1      -2.501   0.738   0.103  1.00  0.00    -0.323 OA
HETATM    5  C   LIG     1      -2.902  -0.647   0.144  1.00  0.00     0.352 A 
HETATM    6  C   LIG     1       0.589  -1.058   0.055  1.00  0.00     0.048 A 
HETATM    7  C   LIG     1      -0.241   1.646   0.002  1.00  0.00     0.040 A 
HETATM    8  C   LIG     1       1.546  -0.033  -0.019  1.00  0.00    -0.030 A 
HETATM    9  C   LIG     1       1.117   1.317  -0.039  1.00  0.00     0.012 A 
ENDROOT
BRANCH   8  10
HETATM   10  C   LIG     1       3.021  -0.363  -0.066  1.00  0.00     0.270 C 
BRANCH  10  11
HETATM   11  N   LIG     1       3.636   0.156  -1.288  1.00  0.00    -0.075 N 
HETATM   12  C   LIG     1       5.052  -0.173  -1.343  1.00  0.00     0.267 C 
ATOM     13  HN2 LIG     1       3.143  -0.165  -2.122  1.00  0.00     0.277 HD
ATOM     14  HN1 LIG     1       3.479   1.159  -1.391  1.00  0.00     0.277 HD
ENDBRANCH  10  11
ENDBRANCH   8  10
TORSDOF 2
