REMARK  2 active torsions:
REMARK  status: ('A' for Active; 'I' for Inactive)
REMARK    1  A    between atoms: C_8  and  C_12 
REMARK    2  A    between atoms: O_10  and  C_12 
ROOT
HETATM    1  C   LIG     1      -0.179  -0.821   0.050  1.00  0.00     0.105 A 
HETATM    2  C   LIG     1      -0.421   0.530  -0.021  1.00  0.00     0.105 A 
HETATM    3  O   LIG     1      -1.325  -1.552   0.088  1.00  0.00    -0.323 OA
HETATM    4  O   LIG     1      -1.749   0.820  -0.034  1.00  0.00    -0.323 OA
HETATM    5  C   LIG     1      -2.316  -0.505   0.040  1.00  0.00     0.352 A 
HETATM    6  C   LIG     1       1.102  -1.332   0.072  1.00  0.00     0.049 A 
HETATM    7  C   LIG     1       0.604   1.448  -0.077  1.00  0.00     0.040 A 
HETATM    8  C   LIG     1       2.174  -0.426   0.028  1.00  0.00    -0.032 A 
HETATM    9  C   LIG     1       1.915   0.961  -0.056  1.00  0.00     0.012 A 
ENDROOT
BRANCH   8  10
HETATM   10  C   LIG     1       3.594  -0.929   0.017  1.00  0.00     0.203 C 
BRANCH  10  11
HETATM   11  O   LIG     1       4.080  -1.025  -1.314  1.00  0.00    -0.396 OA
ATOM     12  HO  LIG     1       4.975  -1.342  -1.321  1.00  0.00     0.209 HD
ENDBRANCH  10  11
ENDBRANCH   8  10
TORSDOF 2
