REMARK  2 active torsions:
REMARK  status: ('A' for Active; 'I' for Inactive)
REMARK    1  A    between atoms: C_5  and  C_11 
REMARK    2  A    between atoms: N_7  and  C_11 
ROOT
HETATM    1  O   LIG     1      -1.162   1.384  -0.146  1.00  0.00    -0.339 OA
HETATM    2  O   LIG     1      -1.110  -1.508   0.086  1.00  0.00    -0.346 OA
HETATM    3  C   LIG     1      -0.005   0.658  -0.030  1.00  0.00     0.102 A 
HETATM    4  C   LIG     1       0.023  -0.737   0.069  1.00  0.00     0.102 A 
HETATM    5  C   LIG     1      -2.319   0.563  -0.403  1.00  0.00     0.178 C 
HETATM    6  C   LIG     1      -2.255  -0.718   0.426  1.00  0.00     0.210 C 
HETATM    7  C   LIG     1       1.186   1.381  -0.021  1.00  0.00     0.039 A 
HETATM    8  C   LIG     1       1.242  -1.409   0.133  1.00  0.00     0.039 A 
HETATM    9  C   LIG     1       2.407   0.709   0.060  1.00  0.00     0.003 A 
HETATM   10  C   LIG     1       2.435  -0.685   0.132  1.00  0.00     0.003 A 
ENDROOT
BRANCH   5  11
HETATM   11  C   LIG     1      -2.459   0.339  -1.925  1.00  0.00     0.264 C 
BRANCH  11  12
HETATM   12  N   LIG     1      -3.672  -0.388  -2.312  1.00  0.00    -0.077 N 
ATOM     13  HN3 LIG     1      -3.732  -1.275  -1.813  1.00  0.00     0.274 HD
ATOM     14  HN2 LIG     1      -4.501   0.076  -1.941  1.00  0.00     0.274 HD
ATOM     15  HN1 LIG     1      -3.764  -0.536  -3.317  1.00  0.00     0.274 HD
ENDBRANCH  11  12
ENDBRANCH   5  11
TORSDOF 2
