REMARK  2 active torsions:
REMARK  status: ('A' for Active; 'I' for Inactive)
REMARK    1  A    between atoms: C_7  and  C_13 
REMARK    2  A    between atoms: O_9  and  C_13 
ROOT
HETATM    1  C   LIG     1      -0.058   0.709  -0.018  1.00  0.00     0.102 A 
HETATM    2  C   LIG     1      -0.050  -0.688   0.010  1.00  0.00     0.102 A 
HETATM    3  O   LIG     1      -1.209   1.454  -0.047  1.00  0.00    -0.346 OA
HETATM    4  C   LIG     1       1.144   1.416  -0.004  1.00  0.00     0.049 A 
HETATM    5  O   LIG     1      -1.193  -1.446   0.033  1.00  0.00    -0.346 OA
HETATM    6  C   LIG     1       1.159  -1.379   0.010  1.00  0.00     0.040 A 
HETATM    7  C   LIG     1       2.368   0.731  -0.002  1.00  0.00    -0.032 A 
HETATM    8  C   LIG     1       2.364  -0.672   0.011  1.00  0.00     0.012 A 
HETATM    9  C   LIG     1      -2.340   0.650  -0.403  1.00  0.00     0.202 C 
HETATM   10  C   LIG     1      -2.336  -0.655   0.376  1.00  0.00     0.202 C 
ENDROOT
BRANCH   7  11
HETATM   11  C   LIG     1       3.667   1.488   0.038  1.00  0.00     0.203 C 
BRANCH  11  12
HETATM   12  O   LIG     1       4.120   1.635   1.377  1.00  0.00    -0.396 OA
ATOM     13  HO  LIG     1       4.941   2.113   1.402  1.00  0.00     0.209 HD
ENDBRANCH  11  12
ENDBRANCH   7  11
TORSDOF 2
