REMARK  2 active torsions:
REMARK  status: ('A' for Active; 'I' for Inactive)
REMARK    1  A    between atoms: C_7  and  C_15 
REMARK    2  A    between atoms: N_9  and  C_15 
ROOT
HETATM    1  C   LIG     1      -0.096   0.712  -0.035  1.00  0.00     0.102 A 
HETATM    2  C   LIG     1      -0.070  -0.684   0.034  1.00  0.00     0.102 A 
HETATM    3  O   LIG     1      -1.257   1.440  -0.103  1.00  0.00    -0.346 OA
HETATM    4  C   LIG     1       1.096   1.437  -0.028  1.00  0.00     0.048 A 
HETATM    5  O   LIG     1      -1.203  -1.457   0.066  1.00  0.00    -0.346 OA
HETATM    6  C   LIG     1       1.148  -1.357   0.069  1.00  0.00     0.040 A 
HETATM    7  C   LIG     1       2.330   0.771   0.015  1.00  0.00    -0.030 A 
HETATM    8  C   LIG     1       2.343  -0.633   0.062  1.00  0.00     0.012 A 
HETATM    9  C   LIG     1      -2.372   0.609  -0.443  1.00  0.00     0.202 C 
HETATM   10  C   LIG     1      -2.359  -0.671   0.376  1.00  0.00     0.202 C 
ENDROOT
BRANCH   7  11
HETATM   11  C   LIG     1       3.622   1.545   0.018  1.00  0.00     0.268 C 
BRANCH  11  12
HETATM   12  N   LIG     1       4.307   1.427   1.299  1.00  0.00    -0.075 N 
ATOM     13  HN3 LIG     1       3.703   1.703   2.073  1.00  0.00     0.274 HD
ATOM     14  HN2 LIG     1       4.455   0.451   1.556  1.00  0.00     0.274 HD
ATOM     15  HN1 LIG     1       5.182   1.951   1.301  1.00  0.00     0.274 HD
ENDBRANCH  11  12
ENDBRANCH   7  11
TORSDOF 2
