REMARK  2 active torsions:
REMARK  status: ('A' for Active; 'I' for Inactive)
REMARK    1  A    between atoms: C_1  and  C_3 
REMARK    2  A    between atoms: C_3  and  N_8 
ROOT
HETATM    1  C   LIG     1       1.141   1.438   0.054  1.00  0.00     0.038 A 
HETATM    2  C   LIG     1      -0.074   0.724   0.036  1.00  0.00     0.115 A 
HETATM    3  C   LIG     1      -0.057  -0.681   0.009  1.00  0.00     0.103 A 
HETATM    4  O   LIG     1      -1.260   1.425   0.049  1.00  0.00    -0.345 OA
HETATM    5  O   LIG     1      -1.190  -1.458   0.013  1.00  0.00    -0.346 OA
HETATM    6  C   LIG     1       2.349   0.715   0.021  1.00  0.00     0.017 A 
HETATM    7  C   LIG     1       2.352  -0.680  -0.032  1.00  0.00     0.004 A 
HETATM    8  C   LIG     1       1.149  -1.377  -0.040  1.00  0.00     0.040 A 
HETATM    9  C   LIG     1      -2.364   0.620  -0.375  1.00  0.00     0.202 C 
HETATM   10  C   LIG     1      -2.354  -0.705   0.361  1.00  0.00     0.202 C 
ENDROOT
BRANCH   1  11
HETATM   11  C   LIG     1       1.187   2.934   0.105  1.00  0.00     0.107 C 
HETATM   12  S   LIG     1       2.363   3.899  -0.595  1.00  0.00    -0.060 SA
BRANCH  11  13
HETATM   13  N   LIG     1       0.184   3.563   0.796  1.00  0.00    -0.389 N 
ATOM     14  HN2 LIG     1      -0.532   2.975   1.222  1.00  0.00     0.157 HD
ATOM     15  HN1 LIG     1       0.215   4.582   0.831  1.00  0.00     0.157 HD
ENDBRANCH  11  13
ENDBRANCH   1  11
TORSDOF 2
