REMARK  2 active torsions:
REMARK  status: ('A' for Active; 'I' for Inactive)
REMARK    1  A    between atoms: C_2  and  C_6 
REMARK    2  A    between atoms: C_6  and  O_7 
ROOT
HETATM    1  C   LIG     1      -0.034   0.695   0.013  1.00  0.00     0.110 A 
HETATM    2  C   LIG     1       1.182   1.393   0.047  1.00  0.00     0.001 A 
HETATM    3  C   LIG     1      -0.040  -0.707  -0.028  1.00  0.00     0.102 A 
HETATM    4  O   LIG     1      -1.193   1.432   0.041  1.00  0.00    -0.346 OA
HETATM    5  O   LIG     1      -1.188  -1.459  -0.032  1.00  0.00    -0.346 OA
HETATM    6  C   LIG     1       2.383   0.662   0.027  1.00  0.00     0.012 A 
HETATM    7  C   LIG     1       2.371  -0.732  -0.042  1.00  0.00     0.003 A 
HETATM    8  C   LIG     1       1.158  -1.416  -0.074  1.00  0.00     0.040 A 
HETATM    9  C   LIG     1      -2.327   0.654  -0.355  1.00  0.00     0.202 C 
HETATM   10  C   LIG     1      -2.326  -0.685   0.359  1.00  0.00     0.202 C 
ENDROOT
BRANCH   2  11
HETATM   11  C   LIG     1       1.243   2.895   0.128  1.00  0.00     0.205 C 
BRANCH  11  12
HETATM   12  O   LIG     1       1.585   3.300   1.448  1.00  0.00    -0.396 OA
ATOM     13  HO  LIG     1       1.623   4.248   1.499  1.00  0.00     0.209 HD
ENDBRANCH  11  12
ENDBRANCH   2  11
TORSDOF 2
