REMARK  1 active torsions:
REMARK  status: ('A' for Active; 'I' for Inactive)
REMARK    1  A    between atoms: C_1  and  C_2 
ROOT
HETATM    1  C   LIG     1      -0.394  -1.094   0.061  1.00  0.00     0.151 A 
HETATM    2  O   LIG     1       0.909  -0.680   0.151  1.00  0.00    -0.316 OA
HETATM    3  C   LIG     1      -1.214   0.013  -0.071  1.00  0.00     0.046 A 
HETATM    4  C   LIG     1       0.909   0.676   0.075  1.00  0.00     0.143 A 
HETATM    5  C   LIG     1      -0.373   1.151  -0.061  1.00  0.00     0.027 A 
ENDROOT
BRANCH   1   6
HETATM    6  C   LIG     1      -0.716  -2.496   0.111  1.00  0.00     0.234 C 
HETATM    7  O   LIG     1      -1.826  -3.005   0.043  1.00  0.00    -0.642 OA
HETATM    8  O   LIG     1       0.380  -3.275   0.251  1.00  0.00    -0.642 OA
ENDBRANCH   1   6
TORSDOF 1
