REMARK  2 active torsions:
REMARK  status: ('A' for Active; 'I' for Inactive)
REMARK    1  A    between atoms: C_2  and  C_10 
REMARK    2  A    between atoms: N_6  and  C_10 
ROOT
HETATM    1  N   LIG     1      -0.402  -1.080   0.027  1.00  0.00    -0.363 N 
HETATM    2  C   LIG     1       0.924  -0.704  -0.019  1.00  0.00     0.036 A 
HETATM    3  C   LIG     1      -1.200   0.037   0.033  1.00  0.00     0.090 A 
HETATM    4  C   LIG     1      -0.386   1.144  -0.021  1.00  0.00     0.019 A 
HETATM    5  C   LIG     1       0.948   0.680  -0.056  1.00  0.00     0.028 A 
HETATM    6  C   LIG     1      -0.904  -2.436   0.058  1.00  0.00     0.155 C 
ENDROOT
BRANCH   2   7
HETATM    7  C   LIG     1       2.065  -1.661  -0.021  1.00  0.00     0.286 C 
BRANCH   7   8
HETATM    8  N   LIG     1       2.564  -1.820  -1.377  1.00  0.00    -0.074 N 
ATOM      9  HN3 LIG     1       1.829  -2.096  -2.028  1.00  0.00     0.274 HD
ATOM     10  HN2 LIG     1       2.810  -0.927  -1.804  1.00  0.00     0.274 HD
ATOM     11  HN1 LIG     1       3.346  -2.475  -1.378  1.00  0.00     0.274 HD
ENDBRANCH   7   8
ENDBRANCH   2   7
TORSDOF 2
