REMARK  2 active torsions:
REMARK  status: ('A' for Active; 'I' for Inactive)
REMARK    1  A    between atoms: C_2  and  C_6 
REMARK    2  A    between atoms: C_3  and  C_7 
ROOT
HETATM    1  S   LIG     1       1.253  -1.183  -0.076  1.00  0.00    -0.081 SA
HETATM    2  C   LIG     1      -0.444  -1.352   0.011  1.00  0.00     0.082 A 
HETATM    3  C   LIG     1       1.190   0.532   0.003  1.00  0.00     0.032 A 
HETATM    4  C   LIG     1      -1.063  -0.121   0.088  1.00  0.00     0.027 A 
HETATM    5  C   LIG     1      -0.128   0.956   0.083  1.00  0.00     0.023 A 
ENDROOT
BRANCH   3   6
HETATM    6  C   LIG     1       2.415   1.354  -0.013  1.00  0.00     0.049 A 
HETATM    7  N   LIG     1       2.188   2.691   0.052  1.00  0.00    -0.365 N 
HETATM    8  C   LIG     1       3.265   3.509   0.053  1.00  0.00     0.088 A 
ATOM      9  HN  LIG     1       1.240   3.065   0.098  1.00  0.00     0.165 HD
HETATM   10  C   LIG     1       4.573   3.063  -0.009  1.00  0.00     0.017 A 
HETATM   11  C   LIG     1       4.793   1.695  -0.077  1.00  0.00     0.004 A 
HETATM   12  C   LIG     1       3.704   0.827  -0.081  1.00  0.00     0.031 A 
ENDBRANCH   3   6
BRANCH   2  13
HETATM   13  C   LIG     1      -1.017  -2.676  -0.003  1.00  0.00     0.216 C 
HETATM   14  O   LIG     1      -0.451  -3.757  -0.075  1.00  0.00    -0.643 OA
HETATM   15  O   LIG     1      -2.367  -2.635   0.081  1.00  0.00    -0.643 OA
ENDBRANCH   2  13
TORSDOF 2
