REMARK  3 active torsions:
REMARK  status: ('A' for Active; 'I' for Inactive)
REMARK    1  A    between atoms: C_1  and  C_6 
REMARK    2  A    between atoms: C_4  and  C_9 
REMARK    3  A    between atoms: C_9  and  O_10 
ROOT
HETATM    1  C   LIG     1      -0.140  -1.343  -0.001  1.00  0.00     0.032 A 
HETATM    2  S   LIG     1       1.495  -0.821   0.102  1.00  0.00    -0.090 SA
HETATM    3  C   LIG     1      -0.986  -0.246  -0.040  1.00  0.00     0.022 A 
HETATM    4  C   LIG     1       1.069   0.833   0.094  1.00  0.00     0.007 A 
HETATM    5  C   LIG     1      -0.297   0.999   0.016  1.00  0.00     0.018 A 
ENDROOT
BRANCH   1   6
HETATM    6  C   LIG     1      -0.508  -2.772  -0.038  1.00  0.00     0.049 A 
HETATM    7  N   LIG     1      -1.845  -2.992  -0.129  1.00  0.00    -0.365 N 
HETATM    8  C   LIG     1      -2.272  -4.273  -0.169  1.00  0.00     0.088 A 
ATOM      9  HN  LIG     1      -2.505  -2.215  -0.166  1.00  0.00     0.165 HD
HETATM   10  C   LIG     1      -1.428  -5.368  -0.122  1.00  0.00     0.017 A 
HETATM   11  C   LIG     1      -0.063  -5.134  -0.029  1.00  0.00     0.004 A 
HETATM   12  C   LIG     1       0.407  -3.822   0.014  1.00  0.00     0.031 A 
ENDBRANCH   1   6
BRANCH   4  13
HETATM   13  C   LIG     1       2.124   1.886   0.170  1.00  0.00     0.210 C 
BRANCH  13  14
HETATM   14  O   LIG     1       2.023   2.679  -1.007  1.00  0.00    -0.396 OA
ATOM     15  HO  LIG     1       2.695   3.349  -0.959  1.00  0.00     0.209 HD
ENDBRANCH  13  14
ENDBRANCH   4  13
TORSDOF 3
