REMARK  2 active torsions:
REMARK  status: ('A' for Active; 'I' for Inactive)
REMARK    1  A    between atoms: C_1  and  C_10 
REMARK    2  A    between atoms: N_6  and  C_10 
ROOT
HETATM    1  C   LIG     1      -0.389   1.114  -0.010  1.00  0.00    -0.009 A 
HETATM    2  O   LIG     1      -0.330  -1.138  -0.161  1.00  0.00    -0.334 OA
HETATM    3  C   LIG     1      -1.126  -0.039  -0.201  1.00  0.00     0.150 A 
HETATM    4  C   LIG     1       0.957   0.671   0.155  1.00  0.00     0.035 A 
HETATM    5  C   LIG     1       0.935  -0.699   0.058  1.00  0.00     0.142 A 
ENDROOT
BRANCH   1   6
HETATM    6  C   LIG     1      -0.892   2.511   0.003  1.00  0.00     0.270 C 
BRANCH   6   7
HETATM    7  N   LIG     1      -0.682   3.065   1.333  1.00  0.00    -0.075 N 
ATOM      8  HN3 LIG     1      -1.099   2.492   2.066  1.00  0.00     0.274 HD
ATOM      9  HN2 LIG     1       0.289   2.996   1.637  1.00  0.00     0.274 HD
ATOM     10  HN1 LIG     1      -1.028   4.025   1.342  1.00  0.00     0.274 HD
ENDBRANCH   6   7
ENDBRANCH   1   6
TORSDOF 2
