REMARK  1 active torsions:
REMARK  status: ('A' for Active; 'I' for Inactive)
REMARK    1  A    between atoms: C_1  and  C_2 
ROOT
HETATM    1  C   LIG     1      -0.330  -1.176  -0.041  1.00  0.00     0.064 A 
HETATM    2  C   LIG     1      -1.121  -0.048  -0.113  1.00  0.00     0.159 A 
HETATM    3  C   LIG     1       1.006  -0.691   0.068  1.00  0.00     0.045 A 
HETATM    4  O   LIG     1      -0.366   1.079  -0.055  1.00  0.00    -0.334 OA
HETATM    5  C   LIG     1       0.927   0.681   0.054  1.00  0.00     0.142 A 
ENDROOT
BRANCH   1   6
HETATM    6  C   LIG     1      -0.781  -2.545  -0.073  1.00  0.00     0.211 C 
HETATM    7  O   LIG     1      -0.058  -3.528  -0.006  1.00  0.00    -0.644 OA
HETATM    8  O   LIG     1      -2.120  -2.695  -0.185  1.00  0.00    -0.644 OA
ENDBRANCH   1   6
TORSDOF 1
