REMARK  2 active torsions:
REMARK  status: ('A' for Active; 'I' for Inactive)
REMARK    1  A    between atoms: CA_3  and  C_7 
REMARK    2  A    between atoms: C_7  and  O_9 
ROOT
HETATM    1  N   LIG     1      -0.041   0.927   0.635  1.00  0.00    -0.353 N 
ATOM      2  HN  LIG     1      -0.240   1.862   0.989  1.00  0.00     0.166 HD
HETATM    3  CA  LIG     1       1.165   0.453   0.154  1.00  0.00     0.049 A 
HETATM    4  N   LIG     1      -0.264  -1.186   0.019  1.00  0.00    -0.355 N 
HETATM    5  C   LIG     1      -0.876  -0.083   0.539  1.00  0.00     0.182 A 
HETATM    6  C   LIG     1       1.040  -0.864  -0.235  1.00  0.00     0.118 A 
HETATM    7  C   LIG     1      -0.883  -2.464  -0.217  1.00  0.00     0.156 C 
ENDROOT
BRANCH   3   8
HETATM    8  C   LIG     1       2.357   1.347   0.122  1.00  0.00     0.222 C 
BRANCH   8   9
HETATM    9  O   LIG     1       2.199   2.460   1.002  1.00  0.00    -0.395 OA
ATOM     10  HO  LIG     1       2.959   3.030   0.982  1.00  0.00     0.209 HD
ENDBRANCH   8   9
ENDBRANCH   3   8
TORSDOF 2
