REMARK  2 active torsions:
REMARK  status: ('A' for Active; 'I' for Inactive)
REMARK    1  A    between atoms: CA_5  and  C_9 
REMARK    2  A    between atoms: O_7  and  C_9 
ROOT
HETATM    1  N   LIG     1       1.090   0.317  -0.701  1.00  0.00    -0.365 N 
ATOM      2  HN  LIG     1       1.955   0.484  -1.215  1.00  0.00     0.165 HD
HETATM    3  N   LIG     1      -1.314  -0.159   0.726  1.00  0.00    -0.372 N 
ATOM      4  HN  LIG     1      -2.179  -0.331   1.239  1.00  0.00     0.164 HD
HETATM    5  CA  LIG     1       0.342   1.334  -0.184  1.00  0.00     0.048 A 
HETATM    6  C   LIG     1      -0.835   1.089   0.514  1.00  0.00     0.114 A 
HETATM    7  C   LIG     1       0.607  -0.929  -0.486  1.00  0.00     0.105 A 
HETATM    8  C   LIG     1      -0.567  -1.161   0.211  1.00  0.00     0.104 A 
ENDROOT
BRANCH   5   9
HETATM    9  C   LIG     1       0.832   2.743  -0.392  1.00  0.00     0.222 C 
BRANCH   9  10
HETATM   10  O   LIG     1       2.048   2.763  -1.140  1.00  0.00    -0.395 OA
ATOM     11  HO  LIG     1       2.357   3.652  -1.271  1.00  0.00     0.209 HD
ENDBRANCH   9  10
ENDBRANCH   5   9
TORSDOF 2
