REMARK  1 active torsions:
REMARK  status: ('A' for Active; 'I' for Inactive)
REMARK    1  A    between atoms: C_1  and  C_2 
ROOT
HETATM    1  C   LIG     1       0.348   1.311  -0.487  1.00  0.00     0.056 A 
HETATM    2  N   LIG     1       0.228   3.721  -0.603  1.00  0.00    -0.374 N 
ATOM      3  HN  LIG     1       0.573   4.639  -0.323  1.00  0.00     0.164 HD
HETATM    4  C   LIG     1       0.807   2.579  -0.161  1.00  0.00     0.105 A 
HETATM    5  C   LIG     1      -0.734   1.201  -1.360  1.00  0.00     0.021 A 
HETATM    6  C   LIG     1      -0.830   3.584  -1.434  1.00  0.00     0.087 A 
HETATM    7  C   LIG     1      -1.338   2.359  -1.841  1.00  0.00     0.018 A 
ENDROOT
BRANCH   1   8
HETATM    8  C   LIG     1       1.002   0.099   0.030  1.00  0.00     0.210 C 
HETATM    9  O   LIG     1       1.197  -0.888  -0.656  1.00  0.00    -0.644 OA
HETATM   10  O   LIG     1       1.306   0.170   1.343  1.00  0.00    -0.644 OA
ENDBRANCH   1   8
TORSDOF 1
