REMARK  2 active torsions:
REMARK  status: ('A' for Active; 'I' for Inactive)
REMARK    1  A    between atoms: C_3  and  C_8 
REMARK    2  A    between atoms: O_4  and  C_8 
ROOT
HETATM    1  N   LIG     1      -1.404  -0.084   0.061  1.00  0.00    -0.375 N 
ATOM      2  HN  LIG     1      -2.422  -0.128   0.109  1.00  0.00     0.164 HD
HETATM    3  C   LIG     1       1.398   0.036  -0.059  1.00  0.00    -0.032 A 
HETATM    4  C   LIG     1      -0.749   1.093  -0.018  1.00  0.00     0.088 A 
HETATM    5  C   LIG     1      -0.646  -1.201   0.074  1.00  0.00     0.088 A 
HETATM    6  C   LIG     1       0.738  -1.193   0.012  1.00  0.00     0.026 A 
HETATM    7  C   LIG     1       0.631   1.204  -0.085  1.00  0.00     0.026 A 
ENDROOT
BRANCH   3   8
HETATM    8  C   LIG     1       2.896   0.096  -0.164  1.00  0.00     0.203 C 
BRANCH   8   9
HETATM    9  O   LIG     1       3.309  -0.025  -1.517  1.00  0.00    -0.396 OA
ATOM     10  HO  LIG     1       4.256   0.013  -1.583  1.00  0.00     0.209 HD
ENDBRANCH   8   9
ENDBRANCH   3   8
TORSDOF 2
