REMARK  2 active torsions:
REMARK  status: ('A' for Active; 'I' for Inactive)
REMARK    1  A    between atoms: C_7  and  C_13 
REMARK    2  A    between atoms: O_9  and  C_13 
ROOT
HETATM    1  N   LIG     1      -1.187  -1.420  -0.027  1.00  0.00    -0.365 N 
ATOM      2  HN  LIG     1      -1.163  -2.440  -0.020  1.00  0.00     0.165 HD
HETATM    3  C   LIG     1      -0.051   0.710  -0.053  1.00  0.00    -0.009 A 
HETATM    4  C   LIG     1      -0.051  -0.700  -0.043  1.00  0.00     0.042 A 
HETATM    5  C   LIG     1       1.164   1.419  -0.068  1.00  0.00     0.023 A 
HETATM    6  C   LIG     1       1.173  -1.354  -0.045  1.00  0.00     0.031 A 
HETATM    7  C   LIG     1       2.390   0.742  -0.082  1.00  0.00    -0.034 A 
HETATM    8  C   LIG     1       2.385  -0.654  -0.061  1.00  0.00     0.011 A 
HETATM    9  C   LIG     1      -2.361  -0.751  -0.021  1.00  0.00     0.088 A 
HETATM   10  C   LIG     1      -1.288   1.367  -0.045  1.00  0.00     0.015 A 
HETATM   11  C   LIG     1      -2.464   0.627  -0.029  1.00  0.00     0.018 A 
ENDROOT
BRANCH   7  12
HETATM   12  C   LIG     1       3.683   1.511  -0.069  1.00  0.00     0.202 C 
BRANCH  12  13
HETATM   13  O   LIG     1       3.969   1.982   1.240  1.00  0.00    -0.396 OA
ATOM     14  HO  LIG     1       4.785   2.468   1.248  1.00  0.00     0.209 HD
ENDBRANCH  12  13
ENDBRANCH   7  12
TORSDOF 2
