REMARK  1 active torsions:
REMARK  status: ('A' for Active; 'I' for Inactive)
REMARK    1  A    between atoms: CA_3  and  C_4 
ROOT
HETATM    1  N   LIG     1       1.215  -1.351  -0.130  1.00  0.00    -0.350 N 
ATOM      2  HN  LIG     1       1.234  -2.369  -0.187  1.00  0.00     0.166 HD
HETATM    3  CA  LIG     1       2.366  -0.630  -0.104  1.00  0.00     0.110 A 
HETATM    4  C   LIG     1       0.052  -0.683  -0.078  1.00  0.00     0.043 A 
HETATM    5  C   LIG     1       2.402   0.756  -0.029  1.00  0.00     0.037 A 
HETATM    6  C   LIG     1      -0.011   0.726  -0.000  1.00  0.00    -0.009 A 
HETATM    7  C   LIG     1       1.193   1.441   0.024  1.00  0.00     0.016 A 
HETATM    8  C   LIG     1      -1.141  -1.392  -0.103  1.00  0.00     0.030 A 
HETATM    9  C   LIG     1      -1.256   1.377   0.051  1.00  0.00     0.013 A 
HETATM   10  C   LIG     1      -2.381  -0.747  -0.052  1.00  0.00     0.002 A 
HETATM   11  C   LIG     1      -2.438   0.640   0.025  1.00  0.00     0.001 A 
ENDROOT
BRANCH   3  12
HETATM   12  C   LIG     1       3.660  -1.373  -0.162  1.00  0.00     0.226 C 
HETATM   13  O   LIG     1       4.769  -0.866  -0.147  1.00  0.00    -0.643 OA
HETATM   14  OXT LIG     1       3.510  -2.710  -0.234  1.00  0.00    -0.643 OA
ENDBRANCH   3  12
TORSDOF 1
