REMARK  1 active torsions:
REMARK  status: ('A' for Active; 'I' for Inactive)
REMARK    1  A    between atoms: C_1  and  C_2 
ROOT
HETATM    1  C   LIG     1       1.127   1.466  -0.003  1.00  0.00     0.054 A 
HETATM    2  C   LIG     1      -0.095   0.747  -0.016  1.00  0.00     0.008 A 
HETATM    3  N   LIG     1       1.193  -1.305   0.055  1.00  0.00    -0.365 N 
ATOM      4  HN  LIG     1       1.227  -2.324   0.092  1.00  0.00     0.165 HD
HETATM    5  C   LIG     1       0.015  -0.660   0.023  1.00  0.00     0.043 A 
HETATM    6  C   LIG     1       2.328  -0.582   0.037  1.00  0.00     0.089 A 
HETATM    7  C   LIG     1       2.350   0.792   0.006  1.00  0.00     0.036 A 
HETATM    8  C   LIG     1      -1.395   1.317  -0.088  1.00  0.00     0.015 A 
HETATM    9  C   LIG     1      -1.141  -1.429   0.019  1.00  0.00     0.030 A 
HETATM   10  C   LIG     1      -2.540   0.521  -0.093  1.00  0.00     0.001 A 
HETATM   11  C   LIG     1      -2.413  -0.858  -0.035  1.00  0.00     0.002 A 
ENDROOT
BRANCH   1  12
HETATM   12  C   LIG     1       1.226   2.942  -0.014  1.00  0.00     0.210 C 
HETATM   13  O   LIG     1       2.093   3.584  -0.578  1.00  0.00    -0.644 OA
HETATM   14  O   LIG     1       0.332   3.536   0.793  1.00  0.00    -0.644 OA
ENDBRANCH   1  12
TORSDOF 1
