REMARK  1 active torsions:
REMARK  status: ('A' for Active; 'I' for Inactive)
REMARK    1  A    between atoms: C_1  and  C_5 
ROOT
HETATM    1  N   LIG     1      -1.110  -1.162   3.552  1.00  0.00    -0.375 N 
ATOM      2  HN  LIG     1      -1.595  -1.447   4.403  1.00  0.00     0.164 HD
HETATM    3  C   LIG     1       0.215  -0.384   1.229  1.00  0.00     0.043 A 
HETATM    4  C   LIG     1      -1.119   0.122   3.134  1.00  0.00     0.088 A 
HETATM    5  C   LIG     1      -0.432  -2.052   2.796  1.00  0.00     0.088 A 
HETATM    6  C   LIG     1       0.242  -1.717   1.636  1.00  0.00     0.035 A 
HETATM    7  C   LIG     1      -0.478   0.558   1.990  1.00  0.00     0.035 A 
ENDROOT
BRANCH   3   8
HETATM    8  C   LIG     1       0.904   0.077   0.003  1.00  0.00     0.209 C 
HETATM    9  O   LIG     1       0.928   1.221  -0.412  1.00  0.00    -0.644 OA
HETATM   10  O   LIG     1       1.530  -0.919  -0.648  1.00  0.00    -0.644 OA
ENDBRANCH   3   8
TORSDOF 1
