REMARK  2 active torsions:
REMARK  status: ('A' for Active; 'I' for Inactive)
REMARK    1  A    between atoms: C_7  and  C_13 
REMARK    2  A    between atoms: N_9  and  C_13 
ROOT
HETATM    1  N   LIG     1      -1.433  -1.387   0.001  1.00  0.00    -0.365 N 
ATOM      2  HN  LIG     1      -1.473  -2.406   0.021  1.00  0.00     0.165 HD
HETATM    3  C   LIG     1      -0.165   0.668  -0.028  1.00  0.00    -0.009 A 
HETATM    4  C   LIG     1      -0.254  -0.739  -0.004  1.00  0.00     0.042 A 
HETATM    5  C   LIG     1       1.091   1.300  -0.032  1.00  0.00     0.022 A 
HETATM    6  C   LIG     1       0.927  -1.467   0.017  1.00  0.00     0.031 A 
HETATM    7  C   LIG     1       2.276   0.550  -0.014  1.00  0.00    -0.032 A 
HETATM    8  C   LIG     1       2.181  -0.844   0.013  1.00  0.00     0.011 A 
HETATM    9  C   LIG     1      -2.562  -0.646  -0.021  1.00  0.00     0.088 A 
HETATM   10  C   LIG     1      -1.359   1.402  -0.050  1.00  0.00     0.015 A 
HETATM   11  C   LIG     1      -2.579   0.736  -0.046  1.00  0.00     0.018 A 
ENDROOT
BRANCH   7  12
HETATM   12  C   LIG     1       3.621   1.238  -0.006  1.00  0.00     0.270 C 
BRANCH  12  13
HETATM   13  N   LIG     1       3.790   2.074  -1.196  1.00  0.00    -0.075 N 
HETATM   14  C   LIG     1       5.088   2.733  -1.190  1.00  0.00     0.267 C 
ATOM     15  HN2 LIG     1       3.642   1.542  -2.054  1.00  0.00     0.277 HD
ATOM     16  HN1 LIG     1       3.028   2.745  -1.296  1.00  0.00     0.277 HD
ENDBRANCH  12  13
ENDBRANCH   7  12
TORSDOF 2
