REMARK  1 active torsions:
REMARK  status: ('A' for Active; 'I' for Inactive)
REMARK    1  A    between atoms: C_1  and  C_2 
ROOT
HETATM    1  C   LIG     1       0.321   0.769  -0.952  1.00  0.00     0.041 A 
HETATM    2  C   LIG     1       0.539   2.147  -1.038  1.00  0.00     0.032 A 
HETATM    3  C   LIG     1      -0.038   2.884  -2.088  1.00  0.00    -0.008 A 
HETATM    4  N   LIG     1      -1.406   2.905  -4.078  1.00  0.00    -0.365 N 
ATOM      5  HN  LIG     1      -1.979   2.419  -4.768  1.00  0.00     0.165 HD
HETATM    6  C   LIG     1      -0.832   2.238  -3.063  1.00  0.00     0.042 A 
HETATM    7  C   LIG     1      -0.441   0.122  -1.924  1.00  0.00     0.021 A 
HETATM    8  C   LIG     1      -1.013   0.865  -2.962  1.00  0.00     0.031 A 
HETATM    9  C   LIG     1      -1.202   4.238  -4.159  1.00  0.00     0.088 A 
HETATM   10  C   LIG     1       0.153   4.267  -2.208  1.00  0.00     0.015 A 
HETATM   11  C   LIG     1      -0.438   4.957  -3.260  1.00  0.00     0.018 A 
ENDROOT
BRANCH   1  12
HETATM   12  C   LIG     1       0.915  -0.038   0.138  1.00  0.00     0.209 C 
HETATM   13  O   LIG     1       1.404  -1.138  -0.039  1.00  0.00    -0.644 OA
HETATM   14  O   LIG     1       0.808   0.554   1.346  1.00  0.00    -0.644 OA
ENDBRANCH   1  12
TORSDOF 1
