REMARK  2 active torsions:
REMARK  status: ('A' for Active; 'I' for Inactive)
REMARK    1  A    between atoms: CA_3  and  C_7 
REMARK    2  A    between atoms: O_4  and  C_7 
ROOT
ATOM      1  N   LYS A   1      -1.138  -0.289  -0.677  1.00  0.00    -0.367 N 
ATOM      2  HN  LYS A   1      -2.061  -0.445  -1.081  1.00  0.00     0.165 HD
ATOM      3  CA  LYS A   1      -0.372  -1.324  -0.235  1.00  0.00     0.032 A 
ATOM      4  CE  LYS A   1      -0.622   0.954  -0.557  1.00  0.00     0.088 A 
ATOM      5  CB  LYS A   1       0.891  -1.142   0.321  1.00  0.00     0.027 A 
ATOM      6  CD  LYS A   1       0.624   1.222  -0.017  1.00  0.00     0.017 A 
ATOM      7  CG  LYS A   1       1.392   0.152   0.430  1.00  0.00     0.003 A 
ENDROOT
BRANCH   3   8
ATOM      8  C   LYS A   1      -0.953  -2.714  -0.369  1.00  0.00     0.220 C 
BRANCH   8   9
ATOM      9  O   LYS A   1      -2.246  -2.675  -0.974  1.00  0.00    -0.395 OA
ATOM     10  HO  LYS A   1      -2.611  -3.548  -1.058  1.00  0.00     0.209 HD
ENDBRANCH   8   9
ENDBRANCH   3   8
TORSDOF 2
