REMARK  1 active torsions:
REMARK  status: ('A' for Active; 'I' for Inactive)
REMARK    1  A    between atoms: C_1  and  CA_2 
ROOT
ATOM      1  CA  LYS A   1       0.503   1.142  -0.659  1.00  0.00     0.109 A 
ATOM      2  N   LYS A   1      -0.198   0.777  -1.775  1.00  0.00    -0.360 N 
ATOM      3  HN  LYS A   1      -0.306  -0.199  -2.052  1.00  0.00     0.165 HD
ATOM      4  CE  LYS A   1      -0.739   1.790  -2.487  1.00  0.00     0.088 A 
ATOM      5  CB  LYS A   1       0.681   2.451  -0.236  1.00  0.00     0.037 A 
ATOM      6  CD  LYS A   1      -0.615   3.129  -2.144  1.00  0.00     0.017 A 
ATOM      7  CG  LYS A   1       0.107   3.461  -0.999  1.00  0.00     0.004 A 
ENDROOT
BRANCH   1   8
ATOM      8  C   LYS A   1       1.093   0.011   0.116  1.00  0.00     0.226 C 
ATOM      9  O   LYS A   1       1.750   0.126   1.135  1.00  0.00    -0.643 OA
ATOM     10  OXT LYS A   1       0.794  -1.170  -0.479  1.00  0.00    -0.643 OA
ENDBRANCH   1   8
TORSDOF 1
