REMARK  0 active torsions:
REMARK  status: ('A' for Active; 'I' for Inactive)
ROOT
HETATM    1  N   LIG     1       1.564   1.162   0.041  1.00  0.00    -0.359 N 
ATOM      2  HN  LIG     1       1.780   2.159   0.066  1.00  0.00     0.166 HD
HETATM    3  C   LIG     1       0.232  -0.777  -0.002  1.00  0.00     0.034 A 
HETATM    4  C   LIG     1       2.451   0.193   0.021  1.00  0.00     0.139 A 
HETATM    5  S   LIG     1       1.837  -1.405  -0.008  1.00  0.00    -0.083 SA
HETATM    6  C   LIG     1       0.290   0.618   0.023  1.00  0.00     0.049 A 
HETATM    7  C   LIG     1      -0.992  -1.469  -0.032  1.00  0.00     0.047 A 
HETATM    8  C   LIG     1      -0.917   1.342   0.008  1.00  0.00     0.033 A 
HETATM    9  C   LIG     1      -2.186  -0.738   0.003  1.00  0.00     0.047 A 
HETATM   10  N   LIG     1      -3.410  -1.397  -0.173  1.00  0.00    -0.102 NA
HETATM   11  C   LIG     1      -2.138   0.656  -0.026  1.00  0.00     0.029 A 
ENDROOT
TORSDOF 0
