REMARK  1 active torsions:
REMARK  status: ('A' for Active; 'I' for Inactive)
REMARK    1  A    between atoms: C_1  and  C_5 
ROOT
HETATM    1  C   LIG     1      -2.478  -0.058   0.081  1.00  0.00     0.084 A 
HETATM    2  S   LIG     1      -1.597  -1.525   0.149  1.00  0.00    -0.065 SA
HETATM    3  C   LIG     1      -0.102  -0.716   0.075  1.00  0.00     0.085 A 
HETATM    4  C   LIG     1      -1.628   1.031   0.001  1.00  0.00     0.040 A 
HETATM    5  C   LIG     1      -0.244   0.665  -0.003  1.00  0.00    -0.001 A 
HETATM    6  N   LIG     1       1.057  -1.405   0.093  1.00  0.00    -0.360 N 
ATOM      7  HN  LIG     1       1.098  -2.423   0.150  1.00  0.00     0.166 HD
HETATM    8  C   LIG     1       0.941   1.426  -0.068  1.00  0.00     0.015 A 
HETATM    9  C   LIG     1       2.157  -0.628   0.029  1.00  0.00     0.089 A 
HETATM   10  C   LIG     1       2.161   0.754  -0.051  1.00  0.00     0.018 A 
ENDROOT
BRANCH   1  11
HETATM   11  C   LIG     1      -3.922  -0.014   0.105  1.00  0.00     0.216 C 
HETATM   12  O   LIG     1      -4.624   0.987   0.058  1.00  0.00    -0.643 OA
HETATM   13  O   LIG     1      -4.500  -1.232   0.189  1.00  0.00    -0.643 OA
ENDBRANCH   1  11
TORSDOF 1
