REMARK  2 active torsions:
REMARK  status: ('A' for Active; 'I' for Inactive)
REMARK    1  A    between atoms: C_3  and  C_11 
REMARK    2  A    between atoms: N_8  and  C_11 
ROOT
HETATM    1  S   LIG     1      -1.368  -1.540  -0.109  1.00  0.00    -0.074 SA
HETATM    2  C   LIG     1       0.117  -0.708  -0.063  1.00  0.00     0.084 A 
HETATM    3  C   LIG     1      -2.267  -0.082  -0.058  1.00  0.00     0.011 A 
HETATM    4  C   LIG     1      -1.434   1.020  -0.007  1.00  0.00     0.030 A 
HETATM    5  C   LIG     1      -0.045   0.672  -0.008  1.00  0.00    -0.001 A 
HETATM    6  N   LIG     1       1.287  -1.382  -0.080  1.00  0.00    -0.360 N 
ATOM      7  HN  LIG     1       1.343  -2.400  -0.122  1.00  0.00     0.166 HD
HETATM    8  C   LIG     1       1.130   1.451   0.034  1.00  0.00     0.015 A 
HETATM    9  C   LIG     1       2.375  -0.587  -0.037  1.00  0.00     0.089 A 
HETATM   10  C   LIG     1       2.360   0.796   0.019  1.00  0.00     0.018 A 
ENDROOT
BRANCH   3  11
HETATM   11  C   LIG     1      -3.767  -0.113  -0.081  1.00  0.00     0.277 C 
BRANCH  11  12
HETATM   12  N   LIG     1      -4.297   0.491   1.143  1.00  0.00    -0.075 N 
HETATM   13  C   LIG     1      -5.753   0.467   1.144  1.00  0.00     0.267 C 
ATOM     14  HN2 LIG     1      -3.912   0.050   1.978  1.00  0.00     0.277 HD
ATOM     15  HN1 LIG     1      -3.935   1.434   1.286  1.00  0.00     0.277 HD
ENDBRANCH  11  12
ENDBRANCH   3  11
TORSDOF 2
