REMARK  2 active torsions:
REMARK  status: ('A' for Active; 'I' for Inactive)
REMARK    1  A    between atoms: C_3  and  C_8 
REMARK    2  A    between atoms: C_8  and  O_9 
ROOT
HETATM    1  S   LIG     1      -1.583  -1.539  -0.136  1.00  0.00    -0.074 SA
HETATM    2  C   LIG     1      -0.088  -0.726  -0.076  1.00  0.00     0.084 A 
HETATM    3  C   LIG     1      -2.462  -0.072  -0.037  1.00  0.00     0.009 A 
HETATM    4  C   LIG     1      -1.617   1.018   0.045  1.00  0.00     0.031 A 
HETATM    5  C   LIG     1      -0.233   0.654   0.022  1.00  0.00    -0.001 A 
HETATM    6  N   LIG     1       1.073  -1.414  -0.122  1.00  0.00    -0.360 N 
ATOM      7  HN  LIG     1       1.115  -2.430  -0.195  1.00  0.00     0.166 HD
HETATM    8  C   LIG     1       0.952   1.416   0.081  1.00  0.00     0.015 A 
HETATM    9  C   LIG     1       2.172  -0.634  -0.062  1.00  0.00     0.089 A 
HETATM   10  C   LIG     1       2.173   0.747   0.036  1.00  0.00     0.018 A 
ENDROOT
BRANCH   3  11
HETATM   11  C   LIG     1      -3.952  -0.086  -0.036  1.00  0.00     0.210 C 
BRANCH  11  12
HETATM   12  O   LIG     1      -4.374   0.204   1.290  1.00  0.00    -0.396 OA
ATOM     13  HO  LIG     1      -5.324   0.195   1.291  1.00  0.00     0.209 HD
ENDBRANCH  11  12
ENDBRANCH   3  11
TORSDOF 2
