REMARK  2 active torsions:
REMARK  status: ('A' for Active; 'I' for Inactive)
REMARK    1  A    between atoms: C_3  and  C_7 
REMARK    2  A    between atoms: C_7  and  O_10 
ROOT
HETATM    1  N   LIG     1      -0.344  -1.050   0.021  1.00  0.00    -0.357 N 
ATOM      2  HN  LIG     1      -0.585  -2.041   0.044  1.00  0.00     0.166 HD
HETATM    3  C   LIG     1       1.035   0.834  -0.021  1.00  0.00     0.030 A 
HETATM    4  S   LIG     1      -0.541   1.513  -0.041  1.00  0.00    -0.078 SA
HETATM    5  C   LIG     1       0.947  -0.548   0.016  1.00  0.00     0.021 A 
HETATM    6  C   LIG     1      -1.214  -0.065  -0.008  1.00  0.00     0.047 A 
HETATM    7  C   LIG     1       2.077  -1.515   0.048  1.00  0.00     0.069 C 
HETATM    8  C   LIG     1      -2.691  -0.246  -0.013  1.00  0.00     0.076 C 
ENDROOT
BRANCH   3   9
HETATM    9  C   LIG     1       2.240   1.706  -0.039  1.00  0.00     0.212 C 
BRANCH   9  10
HETATM   10  O   LIG     1       2.494   2.079  -1.388  1.00  0.00    -0.396 OA
ATOM     11  HO  LIG     1       3.264   2.636  -1.399  1.00  0.00     0.209 HD
ENDBRANCH   9  10
ENDBRANCH   3   9
TORSDOF 2
