REMARK  1 active torsions:
REMARK  status: ('A' for Active; 'I' for Inactive)
REMARK    1  A    between atoms: C_3  and  C_6 
ROOT
HETATM    1  N   LIG     1       1.567   1.175  -0.058  1.00  0.00    -0.359 N 
ATOM      2  HN  LIG     1       1.773   2.172  -0.113  1.00  0.00     0.166 HD
HETATM    3  C   LIG     1       2.464   0.217  -0.006  1.00  0.00     0.139 A 
HETATM    4  C   LIG     1       0.253  -0.773   0.051  1.00  0.00     0.034 A 
HETATM    5  C   LIG     1      -2.158  -0.747   0.052  1.00  0.00     0.042 A 
HETATM    6  S   LIG     1       1.865  -1.384   0.084  1.00  0.00    -0.083 SA
HETATM    7  C   LIG     1       0.298   0.622  -0.027  1.00  0.00     0.049 A 
HETATM    8  C   LIG     1      -0.962  -1.480   0.092  1.00  0.00     0.039 A 
HETATM    9  C   LIG     1      -2.133   0.648  -0.026  1.00  0.00     0.021 A 
HETATM   10  C   LIG     1      -0.915   1.338  -0.066  1.00  0.00     0.032 A 
ENDROOT
BRANCH   5  11
HETATM   11  C   LIG     1      -3.481  -1.419   0.092  1.00  0.00     0.209 C 
HETATM   12  O   LIG     1      -4.563  -0.864   0.057  1.00  0.00    -0.644 OA
HETATM   13  O   LIG     1      -3.383  -2.757   0.173  1.00  0.00    -0.644 OA
ENDBRANCH   5  11
TORSDOF 1
