REMARK  2 active torsions:
REMARK  status: ('A' for Active; 'I' for Inactive)
REMARK    1  A    between atoms: C_4  and  C_7 
REMARK    2  A    between atoms: C_7  and  N_9 
ROOT
HETATM    1  N   LIG     1       2.359   0.011   0.008  1.00  0.00    -0.300 N 
ATOM      2  HN  LIG     1       3.379   0.027   0.020  1.00  0.00     0.187 HD
HETATM    3  N   LIG     1       1.511   1.059  -0.002  1.00  0.00    -0.296 N 
HETATM    4  C   LIG     1       1.548  -1.060  -0.001  1.00  0.00     0.064 A 
HETATM    5  C   LIG     1       0.177  -0.683  -0.016  1.00  0.00     0.018 A 
HETATM    6  C   LIG     1       0.183   0.711  -0.016  1.00  0.00     0.062 A 
HETATM    7  C   LIG     1       2.068   2.391   0.004  1.00  0.00     0.178 C 
HETATM    8  C   LIG     1      -1.056  -1.363  -0.024  1.00  0.00     0.016 A 
HETATM    9  C   LIG     1      -1.000   1.465  -0.021  1.00  0.00     0.032 A 
HETATM   10  C   LIG     1      -2.244  -0.623  -0.028  1.00  0.00     0.001 A 
HETATM   11  C   LIG     1      -2.214   0.770  -0.026  1.00  0.00     0.002 A 
ENDROOT
BRANCH   4  12
HETATM   12  C   LIG     1       2.119  -2.447   0.007  1.00  0.00     0.291 C 
BRANCH  12  13
HETATM   13  N   LIG     1       2.231  -2.912   1.395  1.00  0.00    -0.074 N 
HETATM   14  C   LIG     1       2.826  -4.238   1.451  1.00  0.00     0.267 C 
ATOM     15  HN2 LIG     1       2.740  -2.246   1.976  1.00  0.00     0.277 HD
ATOM     16  HN1 LIG     1       1.332  -2.881   1.876  1.00  0.00     0.277 HD
ENDBRANCH  12  13
ENDBRANCH   4  12
TORSDOF 2
