REMARK  2 active torsions:
REMARK  status: ('A' for Active; 'I' for Inactive)
REMARK    1  A    between atoms: C_4  and  C_7 
REMARK    2  A    between atoms: C_7  and  O_11 
ROOT
HETATM    1  N   LIG     1       2.310  -0.089   0.289  1.00  0.00    -0.300 N 
ATOM      2  HN  LIG     1       3.323  -0.096   0.404  1.00  0.00     0.187 HD
HETATM    3  N   LIG     1       1.489   0.978   0.201  1.00  0.00    -0.296 N 
HETATM    4  C   LIG     1       1.479  -1.139   0.189  1.00  0.00     0.061 A 
HETATM    5  C   LIG     1       0.127  -0.738   0.029  1.00  0.00     0.018 A 
HETATM    6  C   LIG     1       0.164   0.655   0.038  1.00  0.00     0.062 A 
HETATM    7  C   LIG     1       2.069   2.298   0.272  1.00  0.00     0.178 C 
HETATM    8  C   LIG     1      -1.109  -1.394  -0.121  1.00  0.00     0.016 A 
HETATM    9  C   LIG     1      -0.994   1.434  -0.101  1.00  0.00     0.032 A 
HETATM   10  C   LIG     1      -2.272  -0.628  -0.259  1.00  0.00     0.001 A 
HETATM   11  C   LIG     1      -2.213   0.764  -0.249  1.00  0.00     0.002 A 
ENDROOT
BRANCH   4  12
HETATM   12  C   LIG     1       2.026  -2.529   0.246  1.00  0.00     0.223 C 
BRANCH  12  13
HETATM   13  O   LIG     1       3.398  -2.554   0.649  1.00  0.00    -0.395 OA
ATOM     14  HO  LIG     1       3.746  -3.437   0.685  1.00  0.00     0.209 HD
ENDBRANCH  12  13
ENDBRANCH   4  12
TORSDOF 2
