REMARK  2 active torsions:
REMARK  status: ('A' for Active; 'I' for Inactive)
REMARK    1  A    between atoms: C_2  and  C_6 
REMARK    2  A    between atoms: C_6  and  O_7 
ROOT
HETATM    1  O   LIG     1      -1.612  -0.958   0.087  1.00  0.00    -0.312 OA
HETATM    2  C   LIG     1      -2.394   0.158   0.006  1.00  0.00     0.078 A 
HETATM    3  C   LIG     1      -1.606   1.288  -0.069  1.00  0.00     0.049 A 
HETATM    4  C   LIG     1      -0.316  -0.540   0.056  1.00  0.00     0.086 A 
HETATM    5  C   LIG     1      -0.258   0.846  -0.040  1.00  0.00     0.000 A 
HETATM    6  C   LIG     1       0.802  -1.367   0.112  1.00  0.00     0.038 A 
HETATM    7  C   LIG     1       1.005   1.463  -0.081  1.00  0.00     0.014 A 
HETATM    8  C   LIG     1       2.049  -0.735   0.068  1.00  0.00     0.003 A 
HETATM    9  C   LIG     1       2.151   0.656  -0.026  1.00  0.00     0.001 A 
ENDROOT
BRANCH   2  10
HETATM   10  C   LIG     1      -3.856  -0.067   0.031  1.00  0.00     0.229 C 
BRANCH  10  11
HETATM   11  O   LIG     1      -4.196  -0.536   1.329  1.00  0.00    -0.394 OA
ATOM     12  HO  LIG     1      -5.135  -0.680   1.345  1.00  0.00     0.209 HD
ENDBRANCH  10  11
ENDBRANCH   2  10
TORSDOF 2
