REMARK  2 active torsions:
REMARK  status: ('A' for Active; 'I' for Inactive)
REMARK    1  A    between atoms: C_8  and  C_14 
REMARK    2  A    between atoms: N_10  and  C_14 
ROOT
HETATM    1  C   LIG     1      -0.344   0.772  -0.051  1.00  0.00     0.000 A 
HETATM    2  C   LIG     1      -0.291  -0.613   0.050  1.00  0.00     0.085 A 
HETATM    3  C   LIG     1      -2.411  -0.088  -0.027  1.00  0.00     0.143 A 
HETATM    4  O   LIG     1      -1.549  -1.134   0.064  1.00  0.00    -0.322 OA
HETATM    5  C   LIG     1      -1.725   1.102  -0.099  1.00  0.00     0.039 A 
HETATM    6  C   LIG     1       0.864   1.492  -0.080  1.00  0.00     0.023 A 
HETATM    7  C   LIG     1       0.889  -1.345   0.126  1.00  0.00     0.039 A 
HETATM    8  C   LIG     1       2.085   0.791  -0.010  1.00  0.00    -0.032 A 
HETATM    9  C   LIG     1       2.081  -0.612   0.096  1.00  0.00     0.011 A 
ENDROOT
BRANCH   8  10
HETATM   10  C   LIG     1       3.395   1.540  -0.036  1.00  0.00     0.268 C 
BRANCH  10  11
HETATM   11  N   LIG     1       4.067   1.475   1.255  1.00  0.00    -0.075 N 
ATOM     12  HN3 LIG     1       3.463   1.803   2.009  1.00  0.00     0.274 HD
ATOM     13  HN2 LIG     1       4.193   0.511   1.564  1.00  0.00     0.274 HD
ATOM     14  HN1 LIG     1       4.952   1.981   1.237  1.00  0.00     0.274 HD
ENDBRANCH  10  11
ENDBRANCH   8  10
TORSDOF 2
