REMARK  2 active torsions:
REMARK  status: ('A' for Active; 'I' for Inactive)
REMARK    1  A    between atoms: C_8  and  C_12 
REMARK    2  A    between atoms: O_10  and  C_12 
ROOT
HETATM    1  C   LIG     1      -0.297   0.780  -0.020  1.00  0.00     0.000 A 
HETATM    2  C   LIG     1      -0.269  -0.608   0.014  1.00  0.00     0.085 A 
HETATM    3  C   LIG     1      -2.380  -0.042   0.002  1.00  0.00     0.143 A 
HETATM    4  O   LIG     1      -1.536  -1.107   0.027  1.00  0.00    -0.322 OA
HETATM    5  C   LIG     1      -1.671   1.137  -0.027  1.00  0.00     0.039 A 
HETATM    6  C   LIG     1       0.925   1.477  -0.037  1.00  0.00     0.023 A 
HETATM    7  C   LIG     1       0.899  -1.366   0.037  1.00  0.00     0.039 A 
HETATM    8  C   LIG     1       2.131   0.748  -0.027  1.00  0.00    -0.034 A 
HETATM    9  C   LIG     1       2.105  -0.656   0.020  1.00  0.00     0.012 A 
ENDROOT
BRANCH   8  10
HETATM   10  C   LIG     1       3.447   1.483  -0.012  1.00  0.00     0.202 C 
BRANCH  10  11
HETATM   11  O   LIG     1       3.795   1.858   1.313  1.00  0.00    -0.396 OA
ATOM     12  HO  LIG     1       4.624   2.321   1.322  1.00  0.00     0.209 HD
ENDBRANCH  10  11
ENDBRANCH   8  10
TORSDOF 2
