REMARK  2 active torsions:
REMARK  status: ('A' for Active; 'I' for Inactive)
REMARK    1  A    between atoms: C_10  and  C_12 
REMARK    2  A    between atoms: C_12  and  O_13 
ROOT
HETATM    1  C   LIG     1       0.337  -0.752  -0.086  1.00  0.00     0.067 A 
HETATM    2  S   LIG     1       2.608   0.061  -0.085  1.00  0.00     0.068 SA
HETATM    3  C   LIG     1       0.299   0.748   0.039  1.00  0.00     0.067 A 
HETATM    4  N   LIG     1       1.582  -1.245  -0.161  1.00  0.00    -0.310 N 
ATOM      5  HN  LIG     1       1.847  -2.226  -0.247  1.00  0.00     0.176 HD
HETATM    6  N   LIG     1       1.518   1.309   0.051  1.00  0.00    -0.310 N 
ATOM      7  HN  LIG     1       1.733   2.303   0.128  1.00  0.00     0.176 HD
HETATM    8  C   LIG     1      -0.859  -1.510  -0.114  1.00  0.00     0.041 A 
HETATM    9  C   LIG     1      -0.933   1.436   0.134  1.00  0.00     0.033 A 
HETATM   10  C   LIG     1      -2.068  -0.785  -0.024  1.00  0.00    -0.033 A 
HETATM   11  C   LIG     1      -2.091   0.635   0.102  1.00  0.00     0.012 A 
ENDROOT
BRANCH  10  12
HETATM   12  C   LIG     1      -3.382  -1.533  -0.032  1.00  0.00     0.203 C 
BRANCH  12  13
HETATM   13  O   LIG     1      -3.963  -1.524   1.264  1.00  0.00    -0.396 OA
ATOM     14  HO  LIG     1      -4.789  -1.994   1.259  1.00  0.00     0.209 HD
ENDBRANCH  12  13
ENDBRANCH  10  12
TORSDOF 2
