REMARK  2 active torsions:
REMARK  status: ('A' for Active; 'I' for Inactive)
REMARK    1  A    between atoms: C_2  and  C_6 
REMARK    2  A    between atoms: C_3  and  C_7 
ROOT
HETATM    1  S   LIG     1       1.219  -0.864   0.797  1.00  0.00    -0.083 SA
HETATM    2  C   LIG     1      -0.418  -1.270   0.528  1.00  0.00     0.082 A 
HETATM    3  C   LIG     1       1.065   0.673   0.041  1.00  0.00     0.016 A 
HETATM    4  C   LIG     1      -1.084  -0.248  -0.118  1.00  0.00     0.027 A 
HETATM    5  C   LIG     1      -0.236   0.867  -0.391  1.00  0.00     0.021 A 
ENDROOT
BRANCH   3   6
HETATM    6  C   LIG     1       2.221   1.585  -0.046  1.00  0.00    -0.019 A 
HETATM    7  C   LIG     1       2.034   2.976   0.024  1.00  0.00     0.013 A 
HETATM    8  C   LIG     1       3.122   3.853  -0.047  1.00  0.00     0.001 A 
HETATM    9  C   LIG     1       4.414   3.354  -0.193  1.00  0.00     0.000 A 
HETATM   10  C   LIG     1       4.619   1.981  -0.272  1.00  0.00     0.001 A 
HETATM   11  C   LIG     1       3.532   1.105  -0.203  1.00  0.00     0.013 A 
ENDBRANCH   3   6
BRANCH   2  12
HETATM   12  C   LIG     1      -0.910  -2.550   0.977  1.00  0.00     0.216 C 
HETATM   13  O   LIG     1      -0.314  -3.443   1.560  1.00  0.00    -0.643 OA
HETATM   14  O   LIG     1      -2.221  -2.710   0.675  1.00  0.00    -0.643 OA
ENDBRANCH   2  12
TORSDOF 2
