REMARK  3 active torsions:
REMARK  status: ('A' for Active; 'I' for Inactive)
REMARK    1  A    between atoms: C_1  and  C_7 
REMARK    2  A    between atoms: CA_2  and  C_8 
REMARK    3  A    between atoms: C_8  and  O_9 
ROOT
HETATM    1  C   LIG     1       1.450  -0.773  -0.073  1.00  0.00     0.111 A 
HETATM    2  CA  LIG     1       1.163   0.513  -0.497  1.00  0.00     0.069 A 
HETATM    3  N   LIG     1      -0.117   0.866  -0.099  1.00  0.00    -0.346 N 
ATOM      4  HN  LIG     1      -0.611   1.743  -0.263  1.00  0.00     0.167 HD
HETATM    5  C   LIG     1      -0.542  -0.200   0.540  1.00  0.00     0.234 A 
HETATM    6  O   LIG     1       0.339  -1.232   0.593  1.00  0.00    -0.303 OA
ENDROOT
BRANCH   1   7
HETATM    7  C   LIG     1       2.573  -1.695  -0.159  1.00  0.00    -0.000 A 
HETATM    8  C   LIG     1       3.894  -1.230  -0.226  1.00  0.00     0.014 A 
HETATM    9  C   LIG     1       4.965  -2.125  -0.309  1.00  0.00     0.001 A 
HETATM   10  C   LIG     1       4.730  -3.498  -0.325  1.00  0.00     0.000 A 
HETATM   11  C   LIG     1       3.425  -3.977  -0.256  1.00  0.00     0.001 A 
HETATM   12  C   LIG     1       2.356  -3.082  -0.171  1.00  0.00     0.014 A 
ENDBRANCH   1   7
BRANCH   2  13
HETATM   13  C   LIG     1       1.979   1.469  -1.292  1.00  0.00     0.224 C 
BRANCH  13  14
HETATM   14  O   LIG     1       1.283   2.693  -1.535  1.00  0.00    -0.395 OA
ATOM     15  HO  LIG     1       1.804   3.304  -2.043  1.00  0.00     0.209 HD
ENDBRANCH  13  14
ENDBRANCH   2  13
TORSDOF 3
