REMARK  2 active torsions:
REMARK  status: ('A' for Active; 'I' for Inactive)
REMARK    1  A    between atoms: C_5  and  C_11 
REMARK    2  A    between atoms: N_7  and  C_11 
ROOT
HETATM    1  N   LIG     1       0.654  -0.638   0.908  1.00  0.00    -0.264 N 
ATOM      2  HN  LIG     1       1.312  -1.199   1.449  1.00  0.00     0.194 HD
HETATM    3  C   LIG     1      -1.014  -0.009  -0.500  1.00  0.00     0.063 A 
HETATM    4  O   LIG     1       0.543   0.740   0.903  1.00  0.00    -0.243 OA
HETATM    5  C   LIG     1      -0.280  -1.087   0.055  1.00  0.00     0.060 A 
HETATM    6  C   LIG     1      -0.458   1.113   0.064  1.00  0.00     0.074 A 
HETATM    7  C   LIG     1      -0.709   2.558  -0.061  1.00  0.00     0.079 C 
ENDROOT
BRANCH   5   8
HETATM    8  C   LIG     1      -0.415  -2.557  -0.171  1.00  0.00     0.288 C 
BRANCH   8   9
HETATM    9  N   LIG     1      -1.383  -2.858  -1.231  1.00  0.00    -0.074 N 
ATOM     10  HN3 LIG     1      -2.288  -2.427  -1.041  1.00  0.00     0.274 HD
ATOM     11  HN2 LIG     1      -1.151  -2.369  -2.096  1.00  0.00     0.274 HD
ATOM     12  HN1 LIG     1      -1.475  -3.862  -1.385  1.00  0.00     0.274 HD
ENDBRANCH   8   9
ENDBRANCH   5   8
TORSDOF 2
