REMARK  2 active torsions:
REMARK  status: ('A' for Active; 'I' for Inactive)
REMARK    1  A    between atoms: C_5  and  C_7 
REMARK    2  A    between atoms: C_7  and  O_8 
ROOT
HETATM    1  N   LIG     1       0.648  -0.720  -0.545  1.00  0.00    -0.263 N 
ATOM      2  HN  LIG     1       1.403  -1.338  -0.843  1.00  0.00     0.194 HD
HETATM    3  C   LIG     1      -1.359   0.053   0.194  1.00  0.00     0.063 A 
HETATM    4  O   LIG     1       0.674   0.662  -0.485  1.00  0.00    -0.243 OA
HETATM    5  C   LIG     1      -0.576  -1.078  -0.130  1.00  0.00     0.058 A 
HETATM    6  C   LIG     1      -0.529   1.119  -0.046  1.00  0.00     0.074 A 
HETATM    7  C   LIG     1      -0.671   2.581   0.069  1.00  0.00     0.079 C 
ENDROOT
BRANCH   5   8
HETATM    8  C   LIG     1      -0.952  -2.516  -0.079  1.00  0.00     0.223 C 
BRANCH   8   9
HETATM    9  O   LIG     1      -0.861  -3.138  -1.360  1.00  0.00    -0.395 OA
ATOM     10  HO  LIG     1      -1.101  -4.057  -1.327  1.00  0.00     0.209 HD
ENDBRANCH   8   9
ENDBRANCH   5   8
TORSDOF 2
