REMARK  0 active torsions:
REMARK  status: ('A' for Active; 'I' for Inactive)
ROOT
HETATM    1  C   LIG     1       1.006  -0.016   0.043  1.00  0.00    -0.078 C 
HETATM    2  C   LIG     1      -0.192  -0.025   0.009  1.00  0.00     0.018 C 
HETATM    3  C   LIG     1       4.536  -1.205   0.252  1.00  0.00     0.060 A 
HETATM    4  N   LIG     1       5.194  -2.381   0.289  1.00  0.00    -0.363 N 
ATOM      5  HN  LIG     1       4.700  -3.273   0.290  1.00  0.00     0.165 HD
HETATM    6  N   LIG     1       6.581   0.076   0.325  1.00  0.00    -0.363 N 
ATOM      7  HN  LIG     1       7.089   0.960   0.352  1.00  0.00     0.165 HD
HETATM    8  C   LIG     1       5.236   0.030   0.262  1.00  0.00     0.059 A 
HETATM    9  C   LIG     1       3.149  -1.198   0.191  1.00  0.00     0.052 A 
HETATM   10  C   LIG     1       2.436  -0.001   0.106  1.00  0.00     0.019 A 
HETATM   11  C   LIG     1       4.515   1.214   0.185  1.00  0.00     0.033 A 
HETATM   12  C   LIG     1       3.122   1.210   0.091  1.00  0.00     0.023 A 
HETATM   13  C   LIG     1       6.543  -2.314   0.325  1.00  0.00     0.105 A 
HETATM   14  C   LIG     1       7.220  -1.113   0.350  1.00  0.00     0.105 A 
ENDROOT
TORSDOF 0
