REMARK  3 active torsions:
REMARK  status: ('A' for Active; 'I' for Inactive)
REMARK    1  A    between atoms: C_1  and  C_5 
REMARK    2  A    between atoms: C_6  and  C_12 
REMARK    3  A    between atoms: C_12  and  N_13 
ROOT
HETATM    1  C   LIG     1       0.300   1.195  -0.091  1.00  0.00     0.091 A 
HETATM    2  N   LIG     1       0.578  -0.095  -0.040  1.00  0.00    -0.351 N 
ATOM      3  HN  LIG     1       1.518  -0.484   0.033  1.00  0.00     0.166 HD
HETATM    4  S   LIG     1      -1.378   1.564  -0.208  1.00  0.00    -0.081 SA
HETATM    5  C   LIG     1      -0.589  -0.849  -0.100  1.00  0.00     0.042 A 
HETATM    6  C   LIG     1      -1.749  -0.104  -0.187  1.00  0.00     0.078 A 
ENDROOT
BRANCH   1   7
HETATM    7  C   LIG     1       1.350   2.191  -0.059  1.00  0.00     0.038 A 
HETATM    8  S   LIG     1       1.065   3.886  -0.088  1.00  0.00    -0.099 SA
HETATM    9  C   LIG     1       2.733   4.249  -0.026  1.00  0.00     0.050 A 
HETATM   10  C   LIG     1       3.506   3.112   0.017  1.00  0.00     0.008 A 
HETATM   11  C   LIG     1       2.710   1.930  -0.000  1.00  0.00     0.022 A 
ENDBRANCH   1   7
BRANCH   5  12
HETATM   12  C   LIG     1      -0.493  -2.340  -0.054  1.00  0.00     0.286 C 
BRANCH  12  13
HETATM   13  N   LIG     1      -0.586  -2.774   1.337  1.00  0.00    -0.074 N 
ATOM     14  HN3 LIG     1       0.105  -2.320   1.934  1.00  0.00     0.274 HD
ATOM     15  HN2 LIG     1      -1.424  -2.423   1.800  1.00  0.00     0.274 HD
ATOM     16  HN1 LIG     1      -0.520  -3.791   1.368  1.00  0.00     0.274 HD
ENDBRANCH  12  13
ENDBRANCH   5  12
TORSDOF 3
