REMARK  0 active torsions:
REMARK  status: ('A' for Active; 'I' for Inactive)
ROOT
HETATM    1  C   LIG     1       0.054  -0.712   0.016  1.00  0.00     0.060 A 
HETATM    2  C   LIG     1      -1.152  -1.404   0.005  1.00  0.00     0.058 A 
HETATM    3  N   LIG     1       1.218  -1.395   0.033  1.00  0.00    -0.363 N 
ATOM      4  HN  LIG     1       1.243  -2.415   0.049  1.00  0.00     0.165 HD
HETATM    5  N   LIG     1       1.174   1.425   0.002  1.00  0.00    -0.363 N 
ATOM      6  HN  LIG     1       1.165   2.445  -0.004  1.00  0.00     0.165 HD
HETATM    7  C   LIG     1       0.035   0.705  -0.001  1.00  0.00     0.059 A 
HETATM    8  C   LIG     1      -2.384  -0.744   0.012  1.00  0.00     0.048 A 
HETATM    9  C   LIG     1      -1.188   1.358  -0.042  1.00  0.00     0.034 A 
HETATM   10  N   LIG     1      -3.573  -1.463  -0.147  1.00  0.00    -0.102 NA
HETATM   11  C   LIG     1      -2.389   0.646  -0.060  1.00  0.00     0.029 A 
HETATM   12  C   LIG     1       2.348  -0.656   0.028  1.00  0.00     0.105 A 
HETATM   13  C   LIG     1       2.327   0.723   0.013  1.00  0.00     0.105 A 
ENDROOT
TORSDOF 0
