REMARK  2 active torsions:
REMARK  status: ('A' for Active; 'I' for Inactive)
REMARK    1  A    between atoms: C_1  and  C_8 
REMARK    2  A    between atoms: C_4  and  C_7 
ROOT
HETATM    1  C   UNK     1      -0.359   0.994   0.054  1.00  0.00     0.117 A 
HETATM    2  N   UNK     1       0.753   0.150   0.104  1.00  0.00    -0.344 N 
ATOM      3  HN  UNK     1       1.709   0.461   0.279  1.00  0.00     0.167 HD
HETATM    4  C   UNK     1       0.400  -1.104  -0.106  1.00  0.00     0.091 A 
HETATM    5  S   UNK     1      -1.285  -1.339  -0.371  1.00  0.00    -0.080 SA
HETATM    6  C   UNK     1      -1.551   0.340  -0.195  1.00  0.00     0.088 A 
ENDROOT
BRANCH   4   7
HETATM    7  C   UNK     1       1.378  -2.170  -0.106  1.00  0.00     0.038 A 
HETATM    8  S   UNK     1       0.996  -3.819  -0.402  1.00  0.00    -0.099 SA
HETATM    9  C   UNK     1       2.620  -4.313  -0.218  1.00  0.00     0.050 A 
HETATM   10  C   UNK     1       3.451  -3.254   0.063  1.00  0.00     0.008 A 
HETATM   11  C   UNK     1       2.736  -2.022   0.126  1.00  0.00     0.022 A 
ENDBRANCH   4   7
BRANCH   1  12
HETATM   12  C   UNK     1      -0.268   2.438   0.245  1.00  0.00     0.227 C 
HETATM   13  O   UNK     1      -1.211   3.216   0.208  1.00  0.00    -0.643 OA
HETATM   14  O   UNK     1       0.981   2.904   0.475  1.00  0.00    -0.643 OA
ENDBRANCH   1  12
TORSDOF 2
