REMARK  2 active torsions:
REMARK  status: ('A' for Active; 'I' for Inactive)
REMARK    1  A    between atoms: C_6  and  C_8 
REMARK    2  A    between atoms: C_8  and  O_10 
ROOT
HETATM    1  N   LIG     1       0.690   0.702   0.375  1.00  0.00    -0.301 N 
ATOM      2  HN  LIG     1       1.463   1.326   0.607  1.00  0.00     0.187 HD
HETATM    3  N   LIG     1       0.721  -0.638   0.226  1.00  0.00    -0.301 N 
HETATM    4  C   LIG     1      -0.497  -1.178  -0.097  1.00  0.00     0.026 A 
HETATM    5  C   LIG     1      -1.371  -0.112  -0.151  1.00  0.00     0.055 A 
HETATM    6  C   LIG     1      -0.593   1.026   0.148  1.00  0.00     0.051 A 
HETATM    7  C   LIG     1       1.983  -1.318   0.402  1.00  0.00     0.177 C 
HETATM    8  C   LIG     1      -0.731  -2.624  -0.324  1.00  0.00     0.070 C 
ENDROOT
BRANCH   6   9
HETATM    9  C   LIG     1      -1.030   2.453   0.228  1.00  0.00     0.222 C 
BRANCH   9  10
HETATM   10  O   LIG     1      -0.075   3.269   0.912  1.00  0.00    -0.395 OA
ATOM     11  HO  LIG     1      -0.353   4.176   0.963  1.00  0.00     0.209 HD
ENDBRANCH   9  10
ENDBRANCH   6   9
TORSDOF 2
