REMARK  2 active torsions:
REMARK  status: ('A' for Active; 'I' for Inactive)
REMARK    1  A    between atoms: C_6  and  C_8 
REMARK    2  A    between atoms: C_8  and  N_9 
ROOT
HETATM    1  N   LIG     1       1.004   0.651  -0.097  1.00  0.00    -0.301 N 
ATOM      2  HN  LIG     1       1.849   1.210  -0.218  1.00  0.00     0.187 HD
HETATM    3  N   LIG     1       0.901  -0.691  -0.059  1.00  0.00    -0.301 N 
HETATM    4  C   LIG     1      -0.389  -1.135   0.070  1.00  0.00     0.026 A 
HETATM    5  C   LIG     1      -1.161   0.004   0.149  1.00  0.00     0.054 A 
HETATM    6  C   LIG     1      -0.253   1.087   0.060  1.00  0.00     0.053 A 
HETATM    7  C   LIG     1       2.112  -1.470  -0.165  1.00  0.00     0.177 C 
HETATM    8  C   LIG     1      -0.777  -2.565   0.115  1.00  0.00     0.070 C 
ENDROOT
BRANCH   6   9
HETATM    9  C   LIG     1      -0.563   2.552   0.079  1.00  0.00     0.287 C 
BRANCH   9  10
HETATM   10  N   LIG     1      -1.147   2.935   1.367  1.00  0.00    -0.074 N 
ATOM     11  HN3 LIG     1      -1.966   2.371   1.595  1.00  0.00     0.274 HD
ATOM     12  HN2 LIG     1      -0.552   2.663   2.149  1.00  0.00     0.274 HD
ATOM     13  HN1 LIG     1      -1.358   3.933   1.380  1.00  0.00     0.274 HD
ENDBRANCH   9  10
ENDBRANCH   6   9
TORSDOF 2
