REMARK  3 active torsions:
REMARK  status: ('A' for Active; 'I' for Inactive)
REMARK    1  A    between atoms: C_1  and  C_3 
REMARK    2  A    between atoms: N_11  and  C_15 
REMARK    3  A    between atoms: C_14  and  C_15 
ROOT
HETATM    1  C   LIG     1      -0.722  -2.434   0.007  1.00  0.00    -0.019 A 
HETATM    2  C   LIG     1       0.175  -3.444   0.386  1.00  0.00     0.013 A 
HETATM    3  C   LIG     1      -1.958  -2.827  -0.528  1.00  0.00     0.013 A 
HETATM    4  C   LIG     1      -0.155  -4.798   0.239  1.00  0.00     0.010 A 
HETATM    5  C   LIG     1      -2.292  -4.180  -0.673  1.00  0.00     0.010 A 
HETATM    6  C   LIG     1      -1.393  -5.182  -0.295  1.00  0.00    -0.033 A 
ENDROOT
BRANCH   1   7
HETATM    7  C   LIG     1      -0.352  -1.012   0.157  1.00  0.00     0.015 A 
HETATM    8  S   LIG     1      -1.551   0.185   0.472  1.00  0.00    -0.101 SA
HETATM    9  C   LIG     1      -0.403   1.447   0.505  1.00  0.00     0.050 A 
HETATM   10  C   LIG     1       0.875   0.986   0.299  1.00  0.00     0.008 A 
HETATM   11  C   LIG     1       0.904  -0.427   0.101  1.00  0.00     0.020 A 
ENDBRANCH   1   7
BRANCH   6  12
HETATM   12  C   LIG     1      -1.755  -6.642  -0.439  1.00  0.00     0.270 C 
BRANCH  12  13
HETATM   13  N   LIG     1      -0.842  -7.328  -1.354  1.00  0.00    -0.075 N 
HETATM   14  C   LIG     1      -1.189  -8.735  -1.486  1.00  0.00     0.267 C 
ATOM     15  HN2 LIG     1      -0.802  -6.865  -2.262  1.00  0.00     0.277 HD
ATOM     16  HN1 LIG     1       0.131  -7.206  -1.074  1.00  0.00     0.277 HD
ENDBRANCH  12  13
ENDBRANCH   6  12
TORSDOF 3
