REMARK  4 active torsions:
REMARK  status: ('A' for Active; 'I' for Inactive)
REMARK    1  A    between atoms: N_1  and  C_5 
REMARK    2  A    between atoms: C_4  and  C_11 
REMARK    3  A    between atoms: C_5  and  C_8 
REMARK    4  A    between atoms: O_9  and  C_11 
ROOT
HETATM    1  N   LIG     1       0.336   0.829  -0.130  1.00  0.00     0.097 N 
HETATM    2  O   LIG     1       0.789  -1.393   1.505  1.00  0.00    -0.380 OA
HETATM    3  C   LIG     1       1.737   0.365   0.048  1.00  0.00     0.306 C 
HETATM    4  C   LIG     1       1.967  -0.620   1.228  1.00  0.00     0.173 C 
HETATM    5  C   LIG     1      -0.307  -0.551   1.898  1.00  0.00     0.198 C 
HETATM    6  C   LIG     1      -0.320   0.819   1.191  1.00  0.00     0.299 C 
ENDROOT
BRANCH   1   7
HETATM    7  C   LIG     1      -0.348  -0.046  -1.105  1.00  0.00     0.311 C 
BRANCH   7   8
HETATM    8  C   LIG     1      -1.784   0.338  -1.390  1.00  0.00    -0.030 A 
HETATM    9  C   LIG     1      -2.825  -0.564  -1.127  1.00  0.00     0.009 A 
HETATM   10  C   LIG     1      -4.149  -0.220  -1.402  1.00  0.00     0.001 A 
HETATM   11  C   LIG     1      -4.445   1.028  -1.949  1.00  0.00     0.000 A 
HETATM   12  C   LIG     1      -3.419   1.931  -2.219  1.00  0.00     0.001 A 
HETATM   13  C   LIG     1      -2.095   1.590  -1.942  1.00  0.00     0.009 A 
ENDBRANCH   7   8
ENDBRANCH   1   7
BRANCH   4  14
HETATM   14  C   LIG     1       3.125  -1.576   0.934  1.00  0.00     0.197 C 
BRANCH  14  15
HETATM   15  O   LIG     1       4.334  -0.858   0.718  1.00  0.00    -0.398 OA
ATOM     16  HO  LIG     1       5.053  -1.452   0.535  1.00  0.00     0.209 HD
ENDBRANCH  14  15
ENDBRANCH   4  14
TORSDOF 4
