REMARK  2 active torsions:
REMARK  status: ('A' for Active; 'I' for Inactive)
REMARK    1  A    between atoms: C_4  and  C_7 
REMARK    2  A    between atoms: C_7  and  O_9 
ROOT
HETATM    1  N   LIG     1       0.960  -0.624   0.045  1.00  0.00    -0.298 N 
HETATM    2  N   LIG     1       0.969   0.722   0.086  1.00  0.00    -0.303 N 
ATOM      3  HN  LIG     1       1.778   1.341   0.137  1.00  0.00     0.186 HD
HETATM    4  C   LIG     1      -0.302  -1.156  -0.034  1.00  0.00     0.053 A 
HETATM    5  C   LIG     1      -1.157  -0.074  -0.030  1.00  0.00     0.055 A 
HETATM    6  C   LIG     1      -0.324   1.063   0.044  1.00  0.00     0.024 A 
HETATM    7  C   LIG     1       2.214  -1.340   0.084  1.00  0.00     0.177 C 
HETATM    8  C   LIG     1      -0.720   2.491   0.072  1.00  0.00     0.070 C 
ENDROOT
BRANCH   4   9
HETATM    9  C   LIG     1      -0.574  -2.607  -0.113  1.00  0.00     0.222 C 
BRANCH   9  10
HETATM   10  O   LIG     1      -0.286  -3.153   1.163  1.00  0.00    -0.395 OA
ATOM     11  HO  LIG     1      -0.461  -4.085   1.112  1.00  0.00     0.209 HD
ENDBRANCH   9  10
ENDBRANCH   4   9
TORSDOF 2
