REMARK  1 active torsions:
REMARK  status: ('A' for Active; 'I' for Inactive)
REMARK    1  A    between atoms: C_1  and  C_6 
ROOT
HETATM    1  C   LIG     1      -0.299  -1.222  -0.058  1.00  0.00     0.089 A 
HETATM    2  N   LIG     1       0.956  -0.658  -0.086  1.00  0.00    -0.293 N 
HETATM    3  N   LIG     1       0.955   0.685   0.009  1.00  0.00    -0.303 N 
ATOM      4  HN  LIG     1       1.759   1.310   0.061  1.00  0.00     0.186 HD
HETATM    5  C   LIG     1      -1.160  -0.136  -0.030  1.00  0.00     0.060 A 
HETATM    6  C   LIG     1      -0.341   1.011   0.019  1.00  0.00     0.024 A 
HETATM    7  C   LIG     1       2.222  -1.336  -0.247  1.00  0.00     0.178 C 
HETATM    8  C   LIG     1      -0.755   2.432   0.081  1.00  0.00     0.070 C 
ENDROOT
BRANCH   1   9
HETATM    9  C   LIG     1      -0.596  -2.625  -0.076  1.00  0.00     0.122 C 
HETATM   10  S   LIG     1      -1.752  -3.262  -1.084  1.00  0.00    -0.059 SA
HETATM   11  N   LIG     1       0.092  -3.424   0.790  1.00  0.00    -0.388 N 
ATOM     12  HN2 LIG     1       0.802  -3.033   1.409  1.00  0.00     0.157 HD
ATOM     13  HN1 LIG     1      -0.119  -4.422   0.777  1.00  0.00     0.157 HD
ENDBRANCH   1   9
TORSDOF 1
