REMARK  1 active torsions:
REMARK  status: ('A' for Active; 'I' for Inactive)
REMARK    1  A    between atoms: CA_1  and  C_5 
ROOT
HETATM    1  CA  LIG     1      -2.447   0.057  -0.187  1.00  0.00     0.111 A 
HETATM    2  N   LIG     1      -1.609  -1.034  -0.128  1.00  0.00    -0.350 N 
ATOM      3  HN  LIG     1      -1.923  -2.004  -0.122  1.00  0.00     0.166 HD
HETATM    4  C   LIG     1      -1.636   1.178  -0.176  1.00  0.00     0.050 A 
HETATM    5  C   LIG     1      -0.293  -0.642  -0.079  1.00  0.00     0.043 A 
HETATM    6  C   LIG     1      -0.281   0.751  -0.108  1.00  0.00    -0.007 A 
HETATM    7  C   LIG     1       0.877  -1.407  -0.012  1.00  0.00     0.030 A 
HETATM    8  C   LIG     1       0.957   1.420  -0.068  1.00  0.00     0.014 A 
HETATM    9  C   LIG     1       2.095  -0.721   0.027  1.00  0.00     0.002 A 
HETATM   10  C   LIG     1       2.137   0.672  -0.000  1.00  0.00     0.001 A 
ENDROOT
BRANCH   1  11
HETATM   11  C   LIG     1      -3.876  -0.019  -0.247  1.00  0.00     0.226 C 
HETATM   12  O   LIG     1      -4.680   0.897  -0.302  1.00  0.00    -0.643 OA
HETATM   13  OXT LIG     1      -4.292  -1.304  -0.236  1.00  0.00    -0.643 OA
ENDBRANCH   1  11
TORSDOF 1
