REMARK  4 active torsions:
REMARK  status: ('A' for Active; 'I' for Inactive)
REMARK    1  A    between atoms: N_1  and  C_5 
REMARK    2  A    between atoms: C_4  and  C_13 
REMARK    3  A    between atoms: C_5  and  C_8 
REMARK    4  A    between atoms: N_9  and  C_13 
ROOT
HETATM    1  N   LIG     1       0.137   1.321   0.210  1.00  0.00     0.097 N 
HETATM    2  O   LIG     1       1.114  -0.389   2.428  1.00  0.00    -0.381 OA
HETATM    3  C   LIG     1       1.549   1.308   0.648  1.00  0.00     0.306 C 
HETATM    4  C   LIG     1       2.072   0.085   1.460  1.00  0.00     0.175 C 
HETATM    5  C   LIG     1      -0.207  -0.521   1.896  1.00  0.00     0.198 C 
HETATM    6  C   LIG     1      -0.710   0.792   1.291  1.00  0.00     0.299 C 
ENDROOT
BRANCH   1   7
HETATM    7  C   LIG     1      -0.066   0.716  -1.110  1.00  0.00     0.311 C 
BRANCH   7   8
HETATM    8  C   LIG     1      -1.498   0.752  -1.612  1.00  0.00    -0.030 A 
HETATM    9  C   LIG     1      -2.164  -0.443  -1.925  1.00  0.00     0.009 A 
HETATM   10  C   LIG     1      -3.484  -0.437  -2.375  1.00  0.00     0.001 A 
HETATM   11  C   LIG     1      -4.160   0.776  -2.528  1.00  0.00     0.000 A 
HETATM   12  C   LIG     1      -3.509   1.971  -2.238  1.00  0.00     0.001 A 
HETATM   13  C   LIG     1      -2.188   1.966  -1.786  1.00  0.00     0.009 A 
ENDBRANCH   7   8
ENDBRANCH   1   7
BRANCH   4  14
HETATM   14  C   LIG     1       2.608  -1.075   0.590  1.00  0.00     0.263 C 
BRANCH  14  15
HETATM   15  N   LIG     1       3.356  -2.062   1.384  1.00  0.00    -0.077 N 
ATOM     16  HN3 LIG     1       4.107  -1.618   1.912  1.00  0.00     0.274 HD
ATOM     17  HN2 LIG     1       2.796  -2.411   2.162  1.00  0.00     0.274 HD
ATOM     18  HN1 LIG     1       3.710  -2.827   0.810  1.00  0.00     0.274 HD
ENDBRANCH  14  15
ENDBRANCH   4  14
TORSDOF 4
