REMARK  2 active torsions:
REMARK  status: ('A' for Active; 'I' for Inactive)
REMARK    1  A    between atoms: C_2  and  C_6 
REMARK    2  A    between atoms: C_6  and  O_7 
ROOT
HETATM    1  S   LIG     1      -1.679  -1.562  -0.114  1.00  0.00    -0.092 SA
HETATM    2  C   LIG     1      -2.512  -0.075  -0.031  1.00  0.00     0.007 A 
HETATM    3  C   LIG     1      -1.637   0.988   0.042  1.00  0.00     0.029 A 
HETATM    4  C   LIG     1      -0.137  -0.799  -0.060  1.00  0.00     0.015 A 
HETATM    5  C   LIG     1      -0.259   0.589   0.025  1.00  0.00    -0.018 A 
HETATM    6  C   LIG     1       1.124  -1.428  -0.091  1.00  0.00     0.019 A 
HETATM    7  C   LIG     1       0.925   1.364   0.082  1.00  0.00     0.013 A 
HETATM    8  C   LIG     1       2.274  -0.638  -0.034  1.00  0.00     0.001 A 
HETATM    9  C   LIG     1       2.178   0.744   0.051  1.00  0.00     0.001 A 
ENDROOT
BRANCH   2  10
HETATM   10  C   LIG     1      -4.003  -0.041  -0.036  1.00  0.00     0.210 C 
BRANCH  10  11
HETATM   11  O   LIG     1      -4.422   0.295   1.281  1.00  0.00    -0.396 OA
ATOM     12  HO  LIG     1      -5.372   0.317   1.278  1.00  0.00     0.209 HD
ENDBRANCH  10  11
ENDBRANCH   2  10
TORSDOF 2
