REMARK  1 active torsions:
REMARK  status: ('A' for Active; 'I' for Inactive)
REMARK    1  A    between atoms: C_1  and  C_6 
ROOT
HETATM    1  C   LIG     1      -1.622  -1.176  -0.059  1.00  0.00     0.068 A 
HETATM    2  C   LIG     1      -2.402  -0.031  -0.073  1.00  0.00     0.107 A 
HETATM    3  C   LIG     1      -0.257  -0.738  -0.021  1.00  0.00     0.009 A 
HETATM    4  N   LIG     1      -1.577   1.059  -0.045  1.00  0.00    -0.364 N 
ATOM      5  HN  LIG     1      -1.892   2.029  -0.047  1.00  0.00     0.165 HD
HETATM    6  C   LIG     1      -0.262   0.659  -0.013  1.00  0.00     0.043 A 
HETATM    7  C   LIG     1       0.990  -1.400   0.008  1.00  0.00     0.015 A 
HETATM    8  C   LIG     1       0.911   1.423   0.021  1.00  0.00     0.030 A 
HETATM    9  C   LIG     1       2.172  -0.651   0.042  1.00  0.00     0.001 A 
HETATM   10  C   LIG     1       2.130   0.740   0.049  1.00  0.00     0.002 A 
ENDROOT
BRANCH   1  11
HETATM   11  C   LIG     1      -2.113  -2.541  -0.080  1.00  0.00     0.211 C 
HETATM   12  O   LIG     1      -1.427  -3.553  -0.066  1.00  0.00    -0.644 OA
HETATM   13  O   LIG     1      -3.462  -2.651  -0.119  1.00  0.00    -0.644 OA
ENDBRANCH   1  11
TORSDOF 1
