REMARK  3 active torsions:
REMARK  status: ('A' for Active; 'I' for Inactive)
REMARK    1  A    between atoms: C_1  and  C_3 
REMARK    2  A    between atoms: C_11  and  C_14 
REMARK    3  A    between atoms: O_12  and  C_14 
ROOT
HETATM    1  C   LIG     1      -0.697  -2.462  -0.108  1.00  0.00    -0.019 A 
HETATM    2  C   LIG     1       0.202  -3.481   0.247  1.00  0.00     0.013 A 
HETATM    3  C   LIG     1      -1.954  -2.840  -0.602  1.00  0.00     0.013 A 
HETATM    4  C   LIG     1      -2.302  -4.189  -0.741  1.00  0.00     0.010 A 
HETATM    5  C   LIG     1      -0.144  -4.831   0.112  1.00  0.00     0.010 A 
HETATM    6  C   LIG     1      -1.404  -5.196  -0.374  1.00  0.00    -0.035 A 
ENDROOT
BRANCH   1   7
HETATM    7  C   LIG     1      -0.312  -1.047   0.059  1.00  0.00     0.015 A 
HETATM    8  S   LIG     1      -0.905   0.165  -1.011  1.00  0.00    -0.101 SA
HETATM    9  C   LIG     1      -0.061   1.408  -0.202  1.00  0.00     0.050 A 
HETATM   10  C   LIG     1       0.680   0.926   0.852  1.00  0.00     0.008 A 
HETATM   11  C   LIG     1       0.537  -0.485   0.999  1.00  0.00     0.020 A 
ENDBRANCH   1   7
BRANCH   6  12
HETATM   12  C   LIG     1      -1.763  -6.646  -0.552  1.00  0.00     0.202 C 
BRANCH  12  13
HETATM   13  O   LIG     1      -1.316  -7.122  -1.814  1.00  0.00    -0.396 OA
ATOM     14  HO  LIG     1      -1.543  -8.038  -1.926  1.00  0.00     0.209 HD
ENDBRANCH  12  13
ENDBRANCH   6  12
TORSDOF 3
