REMARK  1 active torsions:
REMARK  status: ('A' for Active; 'I' for Inactive)
REMARK    1  A    between atoms: C_1  and  C_5 
ROOT
HETATM    1  C   LIG     1       1.649  -1.117   0.065  1.00  0.00     0.058 A 
HETATM    2  C   LIG     1       2.530  -0.051   0.085  1.00  0.00     0.069 A 
HETATM    3  C   LIG     1       0.272  -0.658   0.025  1.00  0.00    -0.002 A 
HETATM    4  S   LIG     1       1.753   1.461   0.057  1.00  0.00    -0.100 SA
HETATM    5  C   LIG     1       0.193   0.739   0.017  1.00  0.00     0.016 A 
HETATM    6  C   LIG     1      -0.952  -1.379  -0.005  1.00  0.00     0.014 A 
HETATM    7  C   LIG     1      -1.043   1.416  -0.020  1.00  0.00     0.019 A 
HETATM    8  C   LIG     1      -2.181  -0.712  -0.042  1.00  0.00     0.001 A 
HETATM    9  C   LIG     1      -2.224   0.673  -0.049  1.00  0.00     0.001 A 
ENDROOT
BRANCH   1  10
HETATM   10  C   LIG     1       2.085  -2.506   0.084  1.00  0.00     0.210 C 
HETATM   11  O   LIG     1       1.360  -3.490   0.067  1.00  0.00    -0.644 OA
HETATM   12  O   LIG     1       3.428  -2.675   0.125  1.00  0.00    -0.644 OA
ENDBRANCH   1  10
TORSDOF 1
