REMARK  3 active torsions:
REMARK  status: ('A' for Active; 'I' for Inactive)
REMARK    1  A    between atoms: C_1  and  C_6 
REMARK    2  A    between atoms: C_5  and  C_11 
REMARK    3  A    between atoms: C_11  and  O_13 
ROOT
HETATM    1  C   UNK     1       0.142   1.092  -0.013  1.00  0.00     0.086 A 
HETATM    2  N   UNK     1       0.484  -0.184  -0.084  1.00  0.00    -0.351 N 
ATOM      3  HN  UNK     1       1.432  -0.520  -0.250  1.00  0.00     0.166 HD
HETATM    4  S   UNK     1      -1.539   1.353   0.282  1.00  0.00    -0.081 SA
HETATM    5  C   UNK     1      -0.625  -1.006   0.099  1.00  0.00     0.040 A 
HETATM    6  C   UNK     1      -1.810  -0.333   0.312  1.00  0.00     0.079 A 
ENDROOT
BRANCH   1   7
HETATM    7  C   UNK     1       1.091   2.208  -0.166  1.00  0.00     0.013 A 
HETATM    8  C   UNK     1       0.734   3.554  -0.089  1.00  0.00     0.101 A 
HETATM    9  N   UNK     1       1.595   4.596  -0.228  1.00  0.00    -0.374 N 
HETATM   10  C   UNK     1       2.887   4.290  -0.458  1.00  0.00     0.087 A 
ATOM     11  HN  UNK     1       1.279   5.563  -0.161  1.00  0.00     0.164 HD
HETATM   12  C   UNK     1       3.358   2.993  -0.553  1.00  0.00     0.018 A 
HETATM   13  C   UNK     1       2.447   1.947  -0.404  1.00  0.00     0.017 A 
ENDBRANCH   1   7
BRANCH   5  14
HETATM   14  C   UNK     1      -0.433  -2.487   0.053  1.00  0.00     0.221 C 
BRANCH  14  15
HETATM   15  O   UNK     1       0.649  -2.849  -0.802  1.00  0.00    -0.395 OA
ATOM     16  HO  UNK     1       0.771  -3.791  -0.831  1.00  0.00     0.209 HD
ENDBRANCH  14  15
ENDBRANCH   5  14
TORSDOF 3
