REMARK  2 active torsions:
REMARK  status: ('A' for Active; 'I' for Inactive)
REMARK    1  A    between atoms: C_1  and  C_6 
REMARK    2  A    between atoms: C_6  and  O_7 
ROOT
HETATM    1  C   LIG     1      -0.442   1.091  -0.023  1.00  0.00    -0.028 A 
HETATM    2  S   LIG     1      -0.443  -1.488  -0.185  1.00  0.00    -0.113 SA
HETATM    3  C   LIG     1      -1.277   0.006  -0.215  1.00  0.00     0.058 A 
HETATM    4  C   LIG     1       0.915   0.661   0.152  1.00  0.00     0.017 A 
HETATM    5  C   LIG     1       1.052  -0.708   0.086  1.00  0.00     0.050 A 
ENDROOT
BRANCH   1   6
HETATM    6  C   LIG     1      -0.883   2.519   0.003  1.00  0.00     0.203 C 
BRANCH   6   7
HETATM    7  O   LIG     1      -0.624   3.117   1.267  1.00  0.00    -0.396 OA
ATOM      8  HO  LIG     1      -0.904   4.025   1.284  1.00  0.00     0.209 HD
ENDBRANCH   6   7
ENDBRANCH   1   6
TORSDOF 2
