REMARK  1 active torsions:
REMARK  status: ('A' for Active; 'I' for Inactive)
REMARK    1  A    between atoms: C_1  and  C_2 
ROOT
HETATM    1  C   LIG     1      -0.319  -1.206   0.075  1.00  0.00     0.081 A 
HETATM    2  S   LIG     1       1.337  -0.778   0.189  1.00  0.00    -0.095 SA
HETATM    3  C   LIG     1      -1.113  -0.080  -0.059  1.00  0.00     0.026 A 
HETATM    4  C   LIG     1       0.990   0.891   0.060  1.00  0.00     0.051 A 
HETATM    5  C   LIG     1      -0.360   1.129  -0.068  1.00  0.00     0.009 A 
ENDROOT
BRANCH   1   6
HETATM    6  C   LIG     1      -0.775  -2.578   0.119  1.00  0.00     0.216 C 
HETATM    7  O   LIG     1      -1.932  -2.969   0.044  1.00  0.00    -0.643 OA
HETATM    8  O   LIG     1       0.224  -3.478   0.259  1.00  0.00    -0.643 OA
ENDBRANCH   1   6
TORSDOF 1
