REMARK  3 active torsions:
REMARK  status: ('A' for Active; 'I' for Inactive)
REMARK    1  A    between atoms: C_1  and  C_6 
REMARK    2  A    between atoms: C_3  and  C_7 
REMARK    3  A    between atoms: C_7  and  O_9 
ROOT
HETATM    1  C   LIG     1      -0.409   1.033   0.009  1.00  0.00     0.086 A 
HETATM    2  O   LIG     1       0.909   0.678   0.010  1.00  0.00    -0.314 OA
HETATM    3  C   LIG     1      -0.295  -1.226   0.017  1.00  0.00    -0.003 A 
HETATM    4  C   LIG     1      -1.184  -0.112   0.013  1.00  0.00     0.050 A 
HETATM    5  C   LIG     1       0.976  -0.681   0.015  1.00  0.00     0.058 A 
HETATM    6  C   LIG     1       2.337  -1.256   0.013  1.00  0.00     0.077 C 
ENDROOT
BRANCH   1   7
HETATM    7  C   LIG     1      -0.696   2.466   0.004  1.00  0.00    -0.002 A 
HETATM    8  C   LIG     1      -2.020   2.931   0.000  1.00  0.00     0.014 A 
HETATM    9  C   LIG     1      -2.302   4.301  -0.008  1.00  0.00     0.001 A 
HETATM   10  C   LIG     1      -1.262   5.227  -0.012  1.00  0.00     0.000 A 
HETATM   11  C   LIG     1       0.058   4.785  -0.008  1.00  0.00     0.001 A 
HETATM   12  C   LIG     1       0.338   3.415   0.000  1.00  0.00     0.014 A 
ENDBRANCH   1   7
BRANCH   3  13
HETATM   13  C   LIG     1      -0.664  -2.665   0.023  1.00  0.00     0.205 C 
BRANCH  13  14
HETATM   14  O   LIG     1      -0.161  -3.342  -1.123  1.00  0.00    -0.396 OA
ATOM     15  HO  LIG     1      -0.397  -4.262  -1.119  1.00  0.00     0.209 HD
ENDBRANCH  13  14
ENDBRANCH   3  13
TORSDOF 3
