REMARK  2 active torsions:
REMARK  status: ('A' for Active; 'I' for Inactive)
REMARK    1  A    between atoms: C_2  and  C_4 
REMARK    2  A    between atoms: C_3  and  C_7 
ROOT
HETATM    1  S   LIG     1       1.308  -1.163  -0.181  1.00  0.00    -0.082 SA
HETATM    2  C   LIG     1       1.181   0.544  -0.003  1.00  0.00     0.023 A 
HETATM    3  C   LIG     1      -0.379  -1.402  -0.055  1.00  0.00     0.082 A 
HETATM    4  C   LIG     1      -1.038  -0.203   0.121  1.00  0.00     0.027 A 
HETATM    5  C   LIG     1      -0.146   0.910   0.148  1.00  0.00     0.022 A 
ENDROOT
BRANCH   2   6
HETATM    6  C   LIG     1       2.352   1.400  -0.022  1.00  0.00     0.021 A 
HETATM    7  S   LIG     1       2.226   3.111   0.133  1.00  0.00    -0.101 SA
HETATM    8  C   LIG     1       3.915   3.331   0.015  1.00  0.00     0.050 A 
HETATM    9  C   LIG     1       4.579   2.137  -0.137  1.00  0.00     0.008 A 
HETATM   10  C   LIG     1       3.681   1.029  -0.157  1.00  0.00     0.021 A 
ENDBRANCH   2   6
BRANCH   3  11
HETATM   11  C   LIG     1      -0.913  -2.740  -0.138  1.00  0.00     0.216 C 
HETATM   12  O   LIG     1      -0.320  -3.796  -0.306  1.00  0.00    -0.643 OA
HETATM   13  O   LIG     1      -2.259  -2.745   0.001  1.00  0.00    -0.643 OA
ENDBRANCH   3  11
TORSDOF 2
