REMARK  3 active torsions:
REMARK  status: ('A' for Active; 'I' for Inactive)
REMARK    1  A    between atoms: N_1  and  C_7 
REMARK    2  A    between atoms: C_5  and  C_8 
REMARK    3  A    between atoms: C_8  and  O_10 
ROOT
HETATM    1  N   LIG     1       1.662   0.108  -0.262  1.00  0.00    -0.261 N 
HETATM    2  N   LIG     1       0.805  -0.953  -0.185  1.00  0.00    -0.304 N 
ATOM      3  HN  LIG     1       1.047  -1.943  -0.223  1.00  0.00     0.186 HD
HETATM    4  C   LIG     1       0.951   1.308  -0.150  1.00  0.00     0.040 A 
HETATM    5  C   LIG     1      -0.392   0.969  -0.017  1.00  0.00     0.006 A 
HETATM    6  C   LIG     1      -0.406  -0.431  -0.050  1.00  0.00     0.119 A 
HETATM    7  C   LIG     1       1.527   2.678  -0.172  1.00  0.00     0.071 C 
ENDROOT
BRANCH   1   8
HETATM    8  C   LIG     1       3.061  -0.168  -0.438  1.00  0.00     0.056 A 
HETATM    9  C   LIG     1       4.042   0.824  -0.539  1.00  0.00     0.031 A 
HETATM   10  C   LIG     1       5.390   0.481  -0.713  1.00  0.00     0.002 A 
HETATM   11  C   LIG     1       5.777  -0.853  -0.791  1.00  0.00     0.000 A 
HETATM   12  C   LIG     1       4.817  -1.853  -0.694  1.00  0.00     0.002 A 
HETATM   13  C   LIG     1       3.472  -1.514  -0.519  1.00  0.00     0.031 A 
ENDBRANCH   1   8
BRANCH   5  14
HETATM   14  C   LIG     1      -1.573   1.860   0.126  1.00  0.00     0.206 C 
BRANCH  14  15
HETATM   15  O   LIG     1      -1.480   2.673   1.289  1.00  0.00    -0.396 OA
ATOM     16  HO  LIG     1      -2.235   3.243   1.380  1.00  0.00     0.209 HD
ENDBRANCH  14  15
ENDBRANCH   5  14
TORSDOF 3
