REMARK  1 active torsions:
REMARK  status: ('A' for Active; 'I' for Inactive)
REMARK    1  A    between atoms: C_1  and  C_2 
ROOT
HETATM    1  C   LIG     1       0.563  -1.428  -0.588  1.00  0.00     0.222 C 
HETATM    2  O   LIG     1      -0.852  -1.254  -0.320  1.00  0.00    -0.375 OA
HETATM    3  C   LIG     1      -1.319  -2.413   0.390  1.00  0.00     0.169 C 
HETATM    4  C   LIG     1       0.997  -2.685   0.143  1.00  0.00     0.045 C 
HETATM    5  C   LIG     1      -0.277  -3.489   0.187  1.00  0.00     0.029 C 
ENDROOT
BRANCH   1   6
HETATM    6  C   LIG     1       1.313  -0.189  -0.112  1.00  0.00     0.203 C 
HETATM    7  O   LIG     1       2.528  -0.084  -0.051  1.00  0.00    -0.646 OA
HETATM    8  O   LIG     1       0.462   0.810   0.239  1.00  0.00    -0.646 OA
ENDBRANCH   1   6
TORSDOF 1
