REMARK  3 active torsions:
REMARK  status: ('A' for Active; 'I' for Inactive)
REMARK    1  A    between atoms: N_1  and  C_2 
REMARK    2  A    between atoms: C_8  and  C_15 
REMARK    3  A    between atoms: O_11  and  C_15 
ROOT
HETATM    1  C   LIG     1       1.117   2.264  -0.933  1.00  0.00     0.030 A 
HETATM    2  C   LIG     1       0.701   3.582  -0.676  1.00  0.00     0.030 A 
HETATM    3  C   LIG     1       1.841   2.056  -2.113  1.00  0.00     0.030 A 
HETATM    4  C   LIG     1       2.102   3.099  -3.014  1.00  0.00     0.011 A 
HETATM    5  C   LIG     1       0.962   4.632  -1.564  1.00  0.00     0.011 A 
HETATM    6  C   LIG     1       1.652   4.395  -2.753  1.00  0.00    -0.035 A 
ENDROOT
BRANCH   1   7
HETATM    7  N   LIG     1       0.841   1.260  -0.005  1.00  0.00    -0.377 N 
HETATM    8  C   LIG     1       1.556  -0.033  -0.044  1.00  0.00     0.149 C 
HETATM    9  C   LIG     1       0.803  -1.064  -0.901  1.00  0.00     0.187 C 
HETATM   10  O   LIG     1      -0.559  -1.222  -0.467  1.00  0.00    -0.388 OA
HETATM   11  C   LIG     1      -1.251   0.037  -0.526  1.00  0.00     0.187 C 
HETATM   12  C   LIG     1      -0.581   1.087   0.377  1.00  0.00     0.149 C 
ENDBRANCH   1   7
BRANCH   6  13
HETATM   13  C   LIG     1       1.968   5.522  -3.696  1.00  0.00     0.202 C 
BRANCH  13  14
HETATM   14  O   LIG     1       3.221   6.111  -3.372  1.00  0.00    -0.396 OA
ATOM     15  HO  LIG     1       3.421   6.823  -3.968  1.00  0.00     0.209 HD
ENDBRANCH  13  14
ENDBRANCH   6  13
TORSDOF 3
