REMARK  3 active torsions:
REMARK  status: ('A' for Active; 'I' for Inactive)
REMARK    1  A    between atoms: N_1  and  C_2 
REMARK    2  A    between atoms: N_8  and  C_16 
REMARK    3  A    between atoms: C_11  and  C_16 
ROOT
HETATM    1  C   LIG     1       1.174   2.361  -0.800  1.00  0.00     0.030 A 
HETATM    2  C   LIG     1       0.412   3.537  -0.854  1.00  0.00     0.030 A 
HETATM    3  C   LIG     1       2.171   2.226  -1.782  1.00  0.00     0.030 A 
HETATM    4  C   LIG     1       0.653   4.537  -1.806  1.00  0.00     0.011 A 
HETATM    5  C   LIG     1       2.418   3.220  -2.743  1.00  0.00     0.011 A 
HETATM    6  C   LIG     1       1.656   4.387  -2.765  1.00  0.00    -0.033 A 
ENDROOT
BRANCH   1   7
HETATM    7  N   LIG     1       0.944   1.339   0.129  1.00  0.00    -0.377 N 
HETATM    8  C   LIG     1      -0.180   1.442   1.090  1.00  0.00     0.149 C 
HETATM    9  C   LIG     1       0.248   2.223   2.347  1.00  0.00     0.187 C 
HETATM   10  O   LIG     1       1.409   1.638   2.965  1.00  0.00    -0.388 OA
HETATM   11  C   LIG     1       2.503   1.585   2.032  1.00  0.00     0.187 C 
HETATM   12  C   LIG     1       2.136   0.753   0.791  1.00  0.00     0.149 C 
ENDBRANCH   1   7
BRANCH   6  13
HETATM   13  C   LIG     1       1.895   5.461  -3.799  1.00  0.00     0.270 C 
BRANCH  13  14
HETATM   14  N   LIG     1       0.691   5.695  -4.597  1.00  0.00    -0.075 N 
HETATM   15  C   LIG     1       0.913   6.730  -5.594  1.00  0.00     0.267 C 
ATOM     16  HN2 LIG     1       0.349   4.833  -5.022  1.00  0.00     0.277 HD
ATOM     17  HN1 LIG     1      -0.114   5.909  -4.008  1.00  0.00     0.277 HD
ENDBRANCH  13  14
ENDBRANCH   6  13
TORSDOF 3
