REMARK  3 active torsions:
REMARK  status: ('A' for Active; 'I' for Inactive)
REMARK    1  A    between atoms: N_1  and  C_4 
REMARK    2  A    between atoms: C_12  and  C_15 
REMARK    3  A    between atoms: O_13  and  C_15 
ROOT
HETATM    1  C   LIG     1      -0.645  -2.404   0.097  1.00  0.00     0.056 A 
HETATM    2  C   LIG     1       0.325  -3.397   0.287  1.00  0.00     0.032 A 
HETATM    3  C   LIG     1      -1.956  -2.781  -0.231  1.00  0.00     0.032 A 
HETATM    4  C   LIG     1      -2.289  -4.130  -0.377  1.00  0.00     0.011 A 
HETATM    5  C   LIG     1      -0.014  -4.747   0.139  1.00  0.00     0.011 A 
HETATM    6  C   LIG     1      -1.318  -5.124  -0.208  1.00  0.00    -0.035 A 
ENDROOT
BRANCH   1   7
HETATM    7  N   LIG     1      -0.326  -1.023   0.227  1.00  0.00    -0.268 N 
HETATM    8  N   LIG     1      -1.272  -0.065   0.027  1.00  0.00    -0.305 N 
HETATM    9  C   LIG     1      -0.634   1.090   0.216  1.00  0.00     0.109 A 
ATOM     10  HN  LIG     1      -2.254  -0.201  -0.214  1.00  0.00     0.186 HD
HETATM   11  C   LIG     1       0.716   0.910   0.542  1.00  0.00     0.038 A 
HETATM   12  C   LIG     1       0.891  -0.454   0.545  1.00  0.00     0.118 A 
ENDBRANCH   1   7
BRANCH   6  13
HETATM   13  C   LIG     1      -1.679  -6.578  -0.348  1.00  0.00     0.202 C 
BRANCH  13  14
HETATM   14  O   LIG     1      -2.078  -7.120   0.903  1.00  0.00    -0.396 OA
ATOM     15  HO  LIG     1      -2.306  -8.038   0.815  1.00  0.00     0.209 HD
ENDBRANCH  13  14
ENDBRANCH   6  13
TORSDOF 3
