REMARK  3 active torsions:
REMARK  status: ('A' for Active; 'I' for Inactive)
REMARK    1  A    between atoms: N_1  and  C_3 
REMARK    2  A    between atoms: C_12  and  C_16 
REMARK    3  A    between atoms: O_14  and  C_16 
ROOT
HETATM    1  C   LIG     1       1.042   1.048  -1.733  1.00  0.00     0.030 A 
HETATM    2  C   LIG     1       0.960   2.358  -2.238  1.00  0.00     0.030 A 
HETATM    3  C   LIG     1       1.328   0.034  -2.652  1.00  0.00     0.030 A 
HETATM    4  C   LIG     1       1.476   0.300  -4.020  1.00  0.00     0.011 A 
HETATM    5  C   LIG     1       1.120   2.637  -3.601  1.00  0.00     0.011 A 
HETATM    6  C   LIG     1       1.357   1.605  -4.508  1.00  0.00    -0.035 A 
ENDROOT
BRANCH   1   7
HETATM    7  N   LIG     1       0.854   0.835  -0.365  1.00  0.00    -0.378 N 
HETATM    8  C   LIG     1       1.406  -0.369   0.287  1.00  0.00     0.153 C 
HETATM    9  C   LIG     1       0.404  -1.552   0.315  1.00  0.00     0.291 C 
HETATM   10  N   LIG     1      -0.962  -1.235   0.789  1.00  0.00     0.087 N 
HETATM   11  C   LIG     1      -1.448  -0.020   0.095  1.00  0.00     0.291 C 
HETATM   12  C   LIG     1      -1.007  -1.083   2.240  1.00  0.00     0.310 C 
HETATM   13  C   LIG     1      -0.491   1.196   0.139  1.00  0.00     0.153 C 
ENDBRANCH   1   7
BRANCH   6  14
HETATM   14  C   LIG     1       1.544   1.894  -5.972  1.00  0.00     0.202 C 
BRANCH  14  15
HETATM   15  O   LIG     1       2.912   2.139  -6.265  1.00  0.00    -0.396 OA
ATOM     16  HO  LIG     1       3.030   2.322  -7.190  1.00  0.00     0.209 HD
ENDBRANCH  14  15
ENDBRANCH   6  14
TORSDOF 3
