REMARK  3 active torsions:
REMARK  status: ('A' for Active; 'I' for Inactive)
REMARK    1  A    between atoms: C_3  and  C_7 
REMARK    2  A    between atoms: C_5  and  C_8 
REMARK    3  A    between atoms: C_8  and  N_9 
ROOT
HETATM    1  N   LIG     1       0.597  -0.062   0.001  1.00  0.00    -0.351 N 
ATOM      2  HN  LIG     1       1.576  -0.346   0.035  1.00  0.00     0.166 HD
HETATM    3  C   LIG     1       0.179   1.194   0.013  1.00  0.00     0.084 A 
HETATM    4  S   LIG     1      -1.538   1.363  -0.042  1.00  0.00    -0.081 SA
HETATM    5  C   LIG     1      -0.477  -0.943  -0.064  1.00  0.00     0.042 A 
HETATM    6  C   LIG     1      -1.715  -0.334  -0.086  1.00  0.00     0.078 A 
ENDROOT
BRANCH   3   7
HETATM    7  C   LIG     1       1.083   2.365   0.054  1.00  0.00    -0.002 A 
HETATM    8  C   LIG     1       2.473   2.152   0.049  1.00  0.00     0.014 A 
HETATM    9  C   LIG     1       3.374   3.220   0.079  1.00  0.00     0.001 A 
HETATM   10  C   LIG     1       2.903   4.528   0.114  1.00  0.00     0.000 A 
HETATM   11  C   LIG     1       1.532   4.767   0.122  1.00  0.00     0.001 A 
HETATM   12  C   LIG     1       0.630   3.696   0.092  1.00  0.00     0.014 A 
ENDBRANCH   3   7
BRANCH   5  13
HETATM   13  C   LIG     1      -0.212  -2.413  -0.103  1.00  0.00     0.286 C 
BRANCH  13  14
HETATM   14  N   LIG     1      -0.196  -2.929   1.263  1.00  0.00    -0.074 N 
ATOM     15  HN3 LIG     1       0.465  -2.431   1.859  1.00  0.00     0.274 HD
ATOM     16  HN2 LIG     1      -1.049  -2.701   1.774  1.00  0.00     0.274 HD
ATOM     17  HN1 LIG     1      -0.015  -3.932   1.236  1.00  0.00     0.274 HD
ENDBRANCH  13  14
ENDBRANCH   5  13
TORSDOF 3
