REMARK  1 active torsions:
REMARK  status: ('A' for Active; 'I' for Inactive)
REMARK    1  A    between atoms: N_1  and  C_4 
ROOT
HETATM    1  C   LIG     1      -0.699  -2.428  -0.035  1.00  0.00     0.056 A 
HETATM    2  C   LIG     1       0.267  -3.430   0.113  1.00  0.00     0.033 A 
HETATM    3  C   LIG     1      -2.034  -2.796  -0.251  1.00  0.00     0.033 A 
HETATM    4  C   LIG     1      -1.421  -5.148  -0.251  1.00  0.00     0.046 A 
HETATM    5  N   LIG     1      -1.800  -6.494  -0.211  1.00  0.00    -0.102 NA
HETATM    6  C   LIG     1      -0.103  -4.779   0.026  1.00  0.00     0.029 A 
HETATM    7  C   LIG     1      -2.390  -4.146  -0.335  1.00  0.00     0.029 A 
ENDROOT
BRANCH   1   8
HETATM    8  N   LIG     1      -0.356  -1.049   0.048  1.00  0.00    -0.268 N 
HETATM    9  N   LIG     1      -1.304  -0.082  -0.086  1.00  0.00    -0.305 N 
HETATM   10  C   LIG     1      -0.641   1.066   0.046  1.00  0.00     0.109 A 
ATOM     11  HN  LIG     1      -2.303  -0.208  -0.251  1.00  0.00     0.186 HD
HETATM   12  C   LIG     1       0.730   0.874   0.259  1.00  0.00     0.038 A 
HETATM   13  C   LIG     1       0.890  -0.491   0.255  1.00  0.00     0.118 A 
ENDBRANCH   1   8
TORSDOF 1
