REMARK  3 active torsions:
REMARK  status: ('A' for Active; 'I' for Inactive)
REMARK    1  A    between atoms: C_3  and  C_7 
REMARK    2  A    between atoms: C_5  and  C_8 
REMARK    3  A    between atoms: C_8  and  O_9 
ROOT
HETATM    1  N   UNK     1       0.228  -0.279   0.470  1.00  0.00    -0.351 N 
ATOM      2  HN  UNK     1       0.974  -0.892   0.799  1.00  0.00     0.166 HD
HETATM    3  C   UNK     1       0.407   0.953   0.030  1.00  0.00     0.084 A 
HETATM    4  S   UNK     1      -1.036   1.737  -0.502  1.00  0.00    -0.081 SA
HETATM    5  C   UNK     1      -1.120  -0.626   0.422  1.00  0.00     0.040 A 
HETATM    6  C   UNK     1      -1.949   0.353  -0.086  1.00  0.00     0.079 A 
ENDROOT
BRANCH   3   7
HETATM    7  C   UNK     1       1.719   1.622  -0.060  1.00  0.00    -0.002 A 
HETATM    8  C   UNK     1       1.868   3.017   0.013  1.00  0.00     0.014 A 
HETATM    9  C   UNK     1       3.131   3.611  -0.072  1.00  0.00     0.001 A 
HETATM   10  C   UNK     1       4.266   2.820  -0.228  1.00  0.00     0.000 A 
HETATM   11  C   UNK     1       4.141   1.435  -0.295  1.00  0.00     0.001 A 
HETATM   12  C   UNK     1       2.878   0.841  -0.207  1.00  0.00     0.014 A 
ENDBRANCH   3   7
BRANCH   5  13
HETATM   13  C   UNK     1      -1.530  -1.980   0.905  1.00  0.00     0.221 C 
BRANCH  13  14
HETATM   14  O   UNK     1      -0.429  -2.710   1.447  1.00  0.00    -0.395 OA
ATOM     15  HO  UNK     1      -0.690  -3.570   1.754  1.00  0.00     0.209 HD
ENDBRANCH  13  14
ENDBRANCH   5  13
TORSDOF 3
