REMARK  2 active torsions:
REMARK  status: ('A' for Active; 'I' for Inactive)
REMARK    1  A    between atoms: N_1  and  C_5 
REMARK    2  A    between atoms: C_8  and  C_9 
ROOT
HETATM    1  C   LIG     1      -0.715   2.293  -0.038  1.00  0.00     0.039 A 
HETATM    2  C   LIG     1      -1.483   4.994  -0.339  1.00  0.00     0.009 A 
HETATM    3  C   LIG     1      -1.974   2.621  -0.560  1.00  0.00     0.031 A 
HETATM    4  C   LIG     1       0.154   3.330   0.333  1.00  0.00     0.031 A 
HETATM    5  C   LIG     1      -0.228   4.670   0.184  1.00  0.00     0.017 A 
HETATM    6  C   LIG     1      -2.352   3.962  -0.707  1.00  0.00     0.017 A 
ENDROOT
BRANCH   1   7
HETATM    7  N   LIG     1      -0.325   0.929   0.114  1.00  0.00    -0.317 N 
HETATM    8  C   LIG     1       0.871   0.450   0.607  1.00  0.00     0.188 A 
HETATM    9  N   LIG     1       0.927  -0.864   0.624  1.00  0.00    -0.360 N 
HETATM   10  C   LIG     1      -0.273  -1.274   0.124  1.00  0.00     0.106 A 
ATOM     11  HN  LIG     1       1.700  -1.449   0.942  1.00  0.00     0.166 HD
HETATM   12  C   LIG     1      -1.061  -0.195  -0.199  1.00  0.00     0.115 A 
ENDBRANCH   1   7
BRANCH   2  13
HETATM   13  C   LIG     1      -1.931   6.407  -0.519  1.00  0.00     0.155 C 
HETATM   14  O   LIG     1      -3.055   6.641  -0.958  1.00  0.00    -0.293 OA
HETATM   15  C   LIG     1      -0.987   7.523  -0.153  1.00  0.00     0.096 C 
ENDBRANCH   2  13
TORSDOF 2
