REMARK  2 active torsions:
REMARK  status: ('A' for Active; 'I' for Inactive)
REMARK    1  A    between atoms: C_1  and  C_5 
REMARK    2  A    between atoms: C_6  and  C_12 
ROOT
HETATM    1  S   LIG     1      -2.532  -2.700   0.164  1.00  0.00    -0.081 SA
HETATM    2  C   LIG     1      -0.885  -2.273   0.028  1.00  0.00     0.033 A 
HETATM    3  C   LIG     1      -2.185  -4.376   0.100  1.00  0.00     0.082 A 
HETATM    4  C   LIG     1      -0.077  -3.387  -0.061  1.00  0.00     0.023 A 
HETATM    5  C   LIG     1      -0.826  -4.599  -0.018  1.00  0.00     0.027 A 
ENDROOT
BRANCH   2   6
HETATM    6  C   LIG     1      -0.356  -0.870   0.001  1.00  0.00     0.056 A 
HETATM    7  N   LIG     1       1.003  -0.625  -0.127  1.00  0.00    -0.353 N 
HETATM    8  C   LIG     1       1.227   0.671  -0.140  1.00  0.00     0.047 A 
ATOM      9  HN  LIG     1       1.723  -1.344  -0.200  1.00  0.00     0.166 HD
HETATM   10  S   LIG     1      -0.166   1.665   0.012  1.00  0.00    -0.087 SA
HETATM   11  C   LIG     1       2.571   1.294  -0.277  1.00  0.00     0.076 C 
HETATM   12  C   LIG     1      -1.144   0.260   0.092  1.00  0.00     0.082 A 
ENDBRANCH   2   6
BRANCH   3  13
HETATM   13  C   LIG     1      -3.268  -5.327   0.169  1.00  0.00     0.216 C 
HETATM   14  O   LIG     1      -4.469  -5.120   0.262  1.00  0.00    -0.643 OA
HETATM   15  O   LIG     1      -2.811  -6.600   0.120  1.00  0.00    -0.643 OA
ENDBRANCH   3  13
TORSDOF 2
