REMARK  3 active torsions:
REMARK  status: ('A' for Active; 'I' for Inactive)
REMARK    1  A    between atoms: N_1  and  C_5 
REMARK    2  A    between atoms: C_12  and  C_15 
REMARK    3  A    between atoms: O_13  and  C_15 
ROOT
HETATM    1  C   LIG     1      -0.741   2.368  -0.043  1.00  0.00     0.039 A 
HETATM    2  C   LIG     1      -2.048   2.666  -0.453  1.00  0.00     0.030 A 
HETATM    3  C   LIG     1       0.145   3.424   0.212  1.00  0.00     0.030 A 
HETATM    4  C   LIG     1      -0.267   4.751   0.048  1.00  0.00     0.011 A 
HETATM    5  C   LIG     1      -2.456   3.995  -0.613  1.00  0.00     0.011 A 
HETATM    6  C   LIG     1      -1.566   5.048  -0.379  1.00  0.00    -0.035 A 
ENDROOT
BRANCH   1   7
HETATM    7  N   LIG     1      -0.321   1.014   0.110  1.00  0.00    -0.317 N 
HETATM    8  C   LIG     1       0.914   0.561   0.528  1.00  0.00     0.188 A 
HETATM    9  N   LIG     1       0.993  -0.752   0.561  1.00  0.00    -0.360 N 
HETATM   10  C   LIG     1      -0.231  -1.188   0.150  1.00  0.00     0.106 A 
ATOM     11  HN  LIG     1       1.795  -1.320   0.834  1.00  0.00     0.166 HD
HETATM   12  C   LIG     1      -1.058  -0.127  -0.132  1.00  0.00     0.115 A 
ENDBRANCH   1   7
BRANCH   6  13
HETATM   13  C   LIG     1      -2.012   6.477  -0.533  1.00  0.00     0.202 C 
BRANCH  13  14
HETATM   14  O   LIG     1      -2.545   6.972   0.687  1.00  0.00    -0.396 OA
ATOM     15  HO  LIG     1      -2.827   7.874   0.590  1.00  0.00     0.209 HD
ENDBRANCH  13  14
ENDBRANCH   6  13
TORSDOF 3
