REMARK  2 active torsions:
REMARK  status: ('A' for Active; 'I' for Inactive)
REMARK    1  A    between atoms: C_3  and  O_4 
REMARK    2  A    between atoms: O_4  and  C_9 
ROOT
HETATM    1  N   LIG     1      -1.679   1.337   0.060  1.00  0.00    -0.345 N 
ATOM      2  HN  LIG     1      -2.493   1.572  -0.507  1.00  0.00     0.167 HD
HETATM    3  C   LIG     1      -1.312   0.057   0.286  1.00  0.00     0.148 A 
HETATM    4  C   LIG     1      -0.905   2.291   0.629  1.00  0.00     0.116 A 
HETATM    5  C   LIG     1       0.244   2.047   1.381  1.00  0.00     0.061 A 
HETATM    6  C   LIG     1      -0.244  -0.301   1.091  1.00  0.00     0.058 A 
HETATM    7  N   LIG     1       0.936   3.071   2.036  1.00  0.00    -0.101 NA
HETATM    8  C   LIG     1       0.533   0.711   1.655  1.00  0.00     0.032 A 
ENDROOT
BRANCH   3   9
HETATM    9  O   LIG     1      -2.070  -0.989  -0.227  1.00  0.00    -0.294 OA
BRANCH   9  10
HETATM   10  C   LIG     1      -2.764  -0.788  -1.396  1.00  0.00     0.077 A 
HETATM   11  C   LIG     1      -4.018  -1.397  -1.485  1.00  0.00     0.037 A 
HETATM   12  C   LIG     1      -4.762  -1.304  -2.662  1.00  0.00     0.003 A 
HETATM   13  C   LIG     1      -4.248  -0.612  -3.758  1.00  0.00     0.000 A 
HETATM   14  C   LIG     1      -2.987  -0.021  -3.680  1.00  0.00     0.003 A 
HETATM   15  C   LIG     1      -2.239  -0.118  -2.505  1.00  0.00     0.037 A 
ENDBRANCH   9  10
ENDBRANCH   3   9
TORSDOF 2
