REMARK  3 active torsions:
REMARK  status: ('A' for Active; 'I' for Inactive)
REMARK    1  A    between atoms: C_3  and  C_7 
REMARK    2  A    between atoms: C_9  and  C_15 
REMARK    3  A    between atoms: O_11  and  C_15 
ROOT
HETATM    1  C   LIG     1      -0.793   2.321  -0.014  1.00  0.00    -0.008 A 
HETATM    2  C   LIG     1      -2.045   2.742  -0.488  1.00  0.00     0.023 A 
HETATM    3  C   LIG     1      -2.355   4.107  -0.604  1.00  0.00    -0.034 A 
HETATM    4  C   LIG     1       0.151   3.291   0.353  1.00  0.00     0.014 A 
HETATM    5  C   LIG     1      -0.147   4.651   0.243  1.00  0.00     0.002 A 
HETATM    6  C   LIG     1      -1.392   5.056  -0.235  1.00  0.00     0.009 A 
ENDROOT
BRANCH   1   7
HETATM    7  C   LIG     1      -0.507   0.893   0.098  1.00  0.00     0.049 A 
HETATM    8  N   LIG     1      -1.523  -0.034   0.292  1.00  0.00    -0.353 N 
HETATM    9  C   LIG     1      -1.022  -1.248   0.362  1.00  0.00     0.047 A 
ATOM     10  HN  LIG     1      -2.514   0.194   0.369  1.00  0.00     0.166 HD
HETATM   11  S   LIG     1       0.681  -1.358   0.168  1.00  0.00    -0.087 SA
HETATM   12  C   LIG     1      -1.830  -2.481   0.573  1.00  0.00     0.076 C 
HETATM   13  C   LIG     1       0.758   0.345   0.002  1.00  0.00     0.081 A 
ENDBRANCH   1   7
BRANCH   3  14
HETATM   14  C   LIG     1      -3.696   4.555  -1.119  1.00  0.00     0.202 C 
BRANCH  14  15
HETATM   15  O   LIG     1      -4.371   5.336  -0.141  1.00  0.00    -0.396 OA
ATOM     16  HO  LIG     1      -5.218   5.619  -0.466  1.00  0.00     0.209 HD
ENDBRANCH  14  15
ENDBRANCH   3  14
TORSDOF 3
