REMARK  1 active torsions:
REMARK  status: ('A' for Active; 'I' for Inactive)
REMARK    1  A    between atoms: C_3  and  C_7 
ROOT
HETATM    1  N   LIG     1       0.503   0.548   0.828  1.00  0.00    -0.353 N 
ATOM      2  HN  LIG     1       1.120   1.172   1.348  1.00  0.00     0.166 HD
HETATM    3  C   LIG     1      -0.573   0.962   0.050  1.00  0.00     0.049 A 
HETATM    4  C   LIG     1       0.613  -0.762   0.798  1.00  0.00     0.047 A 
HETATM    5  S   LIG     1      -0.546  -1.579  -0.169  1.00  0.00    -0.087 SA
HETATM    6  C   LIG     1      -1.249  -0.068  -0.576  1.00  0.00     0.081 A 
HETATM    7  C   LIG     1       1.652  -1.535   1.530  1.00  0.00     0.076 C 
ENDROOT
BRANCH   3   8
HETATM    8  C   LIG     1      -0.904   2.381  -0.079  1.00  0.00    -0.007 A 
HETATM    9  C   LIG     1      -2.131   2.824  -0.601  1.00  0.00     0.040 A 
HETATM   10  C   LIG     1      -2.412   4.189  -0.745  1.00  0.00     0.047 A 
HETATM   11  N   LIG     1      -3.686   4.607  -1.154  1.00  0.00    -0.102 NA
HETATM   12  C   LIG     1      -1.495   5.120  -0.254  1.00  0.00     0.026 A 
HETATM   13  C   LIG     1      -0.274   4.703   0.274  1.00  0.00     0.003 A 
HETATM   14  C   LIG     1       0.022   3.342   0.352  1.00  0.00     0.014 A 
ENDBRANCH   3   8
TORSDOF 1
