REMARK  3 active torsions:
REMARK  status: ('A' for Active; 'I' for Inactive)
REMARK    1  A    between atoms: C_3  and  C_7 
REMARK    2  A    between atoms: C_9  and  C_16 
REMARK    3  A    between atoms: N_10  and  C_16 
ROOT
HETATM    1  C   LIG     1      -0.460   1.892   0.241  1.00  0.00    -0.008 A 
HETATM    2  C   LIG     1      -1.637   2.567  -0.115  1.00  0.00     0.022 A 
HETATM    3  C   LIG     1      -1.731   3.968  -0.034  1.00  0.00    -0.032 A 
HETATM    4  C   LIG     1       0.626   2.641   0.709  1.00  0.00     0.014 A 
HETATM    5  C   LIG     1       0.547   4.033   0.795  1.00  0.00     0.002 A 
HETATM    6  C   LIG     1      -0.624   4.694   0.422  1.00  0.00     0.009 A 
ENDROOT
BRANCH   1   7
HETATM    7  C   LIG     1      -0.355   0.439   0.138  1.00  0.00     0.049 A 
HETATM    8  N   LIG     1       0.476  -0.293   0.975  1.00  0.00    -0.353 N 
HETATM    9  C   LIG     1       0.379  -1.576   0.697  1.00  0.00     0.047 A 
ATOM     10  HN  LIG     1       1.074   0.105   1.699  1.00  0.00     0.166 HD
HETATM   11  S   LIG     1      -0.680  -1.976  -0.596  1.00  0.00    -0.087 SA
HETATM   12  C   LIG     1       1.099  -2.654   1.427  1.00  0.00     0.076 C 
HETATM   13  C   LIG     1      -1.040  -0.314  -0.797  1.00  0.00     0.081 A 
ENDBRANCH   1   7
BRANCH   3  14
HETATM   14  C   LIG     1      -3.014   4.665  -0.422  1.00  0.00     0.270 C 
BRANCH  14  15
HETATM   15  N   LIG     1      -3.345   4.409  -1.825  1.00  0.00    -0.075 N 
HETATM   16  C   LIG     1      -4.576   5.087  -2.203  1.00  0.00     0.267 C 
ATOM     17  HN2 LIG     1      -2.574   4.657  -2.445  1.00  0.00     0.277 HD
ATOM     18  HN1 LIG     1      -3.389   3.410  -2.025  1.00  0.00     0.277 HD
ENDBRANCH  14  15
ENDBRANCH   3  14
TORSDOF 3
