REMARK  3 active torsions:
REMARK  status: ('A' for Active; 'I' for Inactive)
REMARK    1  A    between atoms: C_3  and  C_9 
REMARK    2  A    between atoms: C_6  and  C_10 
REMARK    3  A    between atoms: C_10  and  O_11 
ROOT
HETATM    1  N   LIG     1      -0.745   1.192  -0.094  1.00  0.00    -0.345 N 
ATOM      2  HN  LIG     1      -1.284   2.055  -0.163  1.00  0.00     0.167 HD
HETATM    3  C   LIG     1      -1.359  -0.004  -0.005  1.00  0.00     0.115 A 
HETATM    4  N   LIG     1      -0.704  -1.178   0.082  1.00  0.00    -0.351 N 
ATOM      5  HN  LIG     1      -1.201  -2.067   0.145  1.00  0.00     0.166 HD
HETATM    6  C   LIG     1       1.367   0.056  -0.006  1.00  0.00     0.003 A 
HETATM    7  C   LIG     1       0.607   1.214  -0.089  1.00  0.00     0.016 A 
HETATM    8  C   LIG     1       0.639  -1.116   0.081  1.00  0.00     0.101 A 
HETATM    9  C   LIG     1       1.236   2.576  -0.164  1.00  0.00     0.069 C 
ENDROOT
BRANCH   3  10
HETATM   10  C   LIG     1      -2.835  -0.028   0.008  1.00  0.00     0.008 A 
HETATM   11  C   LIG     1      -3.591   1.158  -0.092  1.00  0.00     0.015 A 
HETATM   12  C   LIG     1      -4.989   1.139  -0.081  1.00  0.00     0.001 A 
HETATM   13  C   LIG     1      -5.668  -0.070   0.033  1.00  0.00     0.000 A 
HETATM   14  C   LIG     1      -4.951  -1.258   0.136  1.00  0.00     0.001 A 
HETATM   15  C   LIG     1      -3.552  -1.235   0.123  1.00  0.00     0.015 A 
ENDBRANCH   3  10
BRANCH   6  16
HETATM   16  C   LIG     1       2.861   0.034   0.035  1.00  0.00     0.206 C 
BRANCH  16  17
HETATM   17  O   LIG     1       3.424   0.571  -1.153  1.00  0.00    -0.396 OA
ATOM     18  HO  LIG     1       4.374   0.557  -1.127  1.00  0.00     0.209 HD
ENDBRANCH  16  17
ENDBRANCH   6  16
TORSDOF 3
