REMARK  2 active torsions:
REMARK  status: ('A' for Active; 'I' for Inactive)
REMARK    1  A    between atoms: C_2  and  C_7 
REMARK    2  A    between atoms: C_7  and  O_9 
ROOT
HETATM    1  N   LIG     1       0.913  -0.746   0.011  1.00  0.00    -0.348 N 
HETATM    2  C   LIG     1       0.971   0.628   0.044  1.00  0.00     0.106 A 
HETATM    3  N   LIG     1      -0.245   1.141   0.020  1.00  0.00    -0.352 N 
ATOM      4  HN  LIG     1      -0.495   2.130   0.017  1.00  0.00     0.166 HD
HETATM    5  C   LIG     1      -1.102   0.073  -0.000  1.00  0.00     0.106 A 
HETATM    6  C   LIG     1      -0.405  -1.110  -0.006  1.00  0.00     0.108 A 
HETATM    7  C   LIG     1       2.037  -1.650  -0.026  1.00  0.00     0.157 C 
ENDROOT
BRANCH   2   8
HETATM    8  C   LIG     1       2.241   1.402   0.055  1.00  0.00     0.240 C 
BRANCH   8   9
HETATM    9  O   LIG     1       2.743   1.411  -1.276  1.00  0.00    -0.393 OA
ATOM     10  HO  LIG     1       3.554   1.905  -1.269  1.00  0.00     0.209 HD
ENDBRANCH   8   9
ENDBRANCH   2   8
TORSDOF 2
