REMARK  3 active torsions:
REMARK  status: ('A' for Active; 'I' for Inactive)
REMARK    1  A    between atoms: C_1  and  C_8 
REMARK    2  A    between atoms: C_2  and  C_7 
REMARK    3  A    between atoms: C_8  and  O_9 
ROOT
HETATM    1  C   LIG     1      -0.338  -1.333  -0.004  1.00  0.00     0.026 A 
HETATM    2  C   LIG     1       0.960  -0.857   0.001  1.00  0.00     0.119 A 
HETATM    3  O   LIG     1       0.931   0.506   0.007  1.00  0.00    -0.236 OA
HETATM    4  N   LIG     1      -0.373   0.951   0.006  1.00  0.00    -0.265 N 
ATOM      5  HN  LIG     1      -0.693   1.919   0.007  1.00  0.00     0.194 HD
HETATM    6  C   LIG     1      -1.132  -0.150   0.003  1.00  0.00     0.040 A 
HETATM    7  C   LIG     1      -2.607  -0.004   0.014  1.00  0.00     0.071 C 
ENDROOT
BRANCH   2   8
HETATM    8  C   LIG     1       2.294  -1.447   0.004  1.00  0.00     0.000 A 
HETATM    9  C   LIG     1       3.342  -0.828   0.702  1.00  0.00     0.014 A 
HETATM   10  C   LIG     1       4.623  -1.385   0.718  1.00  0.00     0.001 A 
HETATM   11  C   LIG     1       4.874  -2.571   0.032  1.00  0.00     0.000 A 
HETATM   12  C   LIG     1       3.846  -3.196  -0.670  1.00  0.00     0.001 A 
HETATM   13  C   LIG     1       2.563  -2.638  -0.684  1.00  0.00     0.014 A 
ENDBRANCH   2   8
BRANCH   1  14
HETATM   14  C   LIG     1      -0.803  -2.739   0.019  1.00  0.00     0.207 C 
BRANCH  14  15
HETATM   15  O   LIG     1      -0.951  -3.266  -1.294  1.00  0.00    -0.396 OA
ATOM     16  HO  LIG     1      -1.249  -4.168  -1.279  1.00  0.00     0.209 HD
ENDBRANCH  14  15
ENDBRANCH   1  14
TORSDOF 3
