REMARK  1 active torsions:
REMARK  status: ('A' for Active; 'I' for Inactive)
REMARK    1  A    between atoms: N_1  and  C_2 
ROOT
HETATM    1  C   LIG     1      -0.712  -2.451   0.013  1.00  0.00     0.040 A 
HETATM    2  C   LIG     1       0.235  -3.476   0.190  1.00  0.00     0.056 A 
HETATM    3  C   LIG     1      -0.130  -4.825   0.097  1.00  0.00     0.048 A 
HETATM    4  N   LIG     1       0.802  -5.829   0.397  1.00  0.00    -0.102 NA
HETATM    5  C   LIG     1      -2.050  -2.804  -0.214  1.00  0.00     0.030 A 
HETATM    6  C   LIG     1      -2.429  -4.147  -0.243  1.00  0.00     0.004 A 
HETATM    7  C   LIG     1      -1.477  -5.149  -0.066  1.00  0.00     0.027 A 
ENDROOT
BRANCH   1   8
HETATM    8  N   LIG     1      -0.320  -1.076   0.075  1.00  0.00    -0.333 N 
HETATM    9  C   LIG     1      -1.146   0.027  -0.063  1.00  0.00     0.096 A 
HETATM   10  C   LIG     1      -0.400   1.180   0.054  1.00  0.00     0.019 A 
HETATM   11  C   LIG     1       0.934   0.791   0.271  1.00  0.00     0.019 A 
HETATM   12  C   LIG     1       0.960  -0.586   0.280  1.00  0.00     0.096 A 
ENDBRANCH   1   8
TORSDOF 1
