REMARK  2 active torsions:
REMARK  status: ('A' for Active; 'I' for Inactive)
REMARK    1  A    between atoms: C_1  and  C_4 
REMARK    2  A    between atoms: C_5  and  C_10 
ROOT
HETATM    1  C   LIG     1       0.601   1.246  -0.121  1.00  0.00     0.056 A 
HETATM    2  N   LIG     1      -1.244  -0.321  -0.175  1.00  0.00    -0.364 N 
ATOM      3  HN  LIG     1      -2.248  -0.493  -0.227  1.00  0.00     0.165 HD
HETATM    4  C   LIG     1      -0.360  -1.352  -0.098  1.00  0.00     0.042 A 
HETATM    5  C   LIG     1      -0.750   0.945  -0.180  1.00  0.00     0.106 A 
HETATM    6  C   LIG     1       1.500   0.185  -0.057  1.00  0.00     0.022 A 
HETATM    7  C   LIG     1       1.017  -1.123  -0.047  1.00  0.00     0.031 A 
ENDROOT
BRANCH   4   8
HETATM    8  C   LIG     1      -0.940  -2.712  -0.075  1.00  0.00    -0.009 A 
HETATM    9  C   LIG     1      -0.309  -3.781   0.591  1.00  0.00     0.013 A 
HETATM   10  C   LIG     1      -0.861  -5.066   0.599  1.00  0.00     0.001 A 
HETATM   11  C   LIG     1      -2.063  -5.311  -0.055  1.00  0.00     0.000 A 
HETATM   12  C   LIG     1      -2.715  -4.273  -0.714  1.00  0.00     0.001 A 
HETATM   13  C   LIG     1      -2.160  -2.989  -0.720  1.00  0.00     0.013 A 
ENDBRANCH   4   8
BRANCH   1  14
HETATM   14  C   LIG     1       1.031   2.656  -0.130  1.00  0.00     0.210 C 
HETATM   15  O   LIG     1       0.303   3.627  -0.184  1.00  0.00    -0.644 OA
HETATM   16  O   LIG     1       2.370   2.778  -0.066  1.00  0.00    -0.644 OA
ENDBRANCH   1  14
TORSDOF 2
