REMARK  2 active torsions:
REMARK  status: ('A' for Active; 'I' for Inactive)
REMARK    1  A    between atoms: C_5  and  C_11 
REMARK    2  A    between atoms: C_11  and  O_13 
ROOT
HETATM    1  N   LIG     1       0.215  -0.691   0.015  1.00  0.00    -0.308 N 
HETATM    2  N   LIG     1       1.531   1.122  -0.040  1.00  0.00    -0.344 N 
ATOM      3  HN  LIG     1       1.854   2.089  -0.062  1.00  0.00     0.167 HD
HETATM    4  C   LIG     1       0.286   0.701  -0.006  1.00  0.00     0.112 A 
HETATM    5  C   LIG     1       1.518  -1.152  -0.002  1.00  0.00     0.063 A 
HETATM    6  C   LIG     1       2.305  -0.011  -0.039  1.00  0.00     0.032 A 
HETATM    7  C   LIG     1      -0.999  -1.384   0.039  1.00  0.00     0.099 A 
HETATM    8  C   LIG     1      -0.941   1.423   0.006  1.00  0.00     0.049 A 
HETATM    9  C   LIG     1      -2.154  -0.697   0.048  1.00  0.00     0.018 A 
HETATM   10  C   LIG     1      -2.111   0.757   0.033  1.00  0.00     0.005 A 
HETATM   11  C   LIG     1       3.783   0.090  -0.076  1.00  0.00     0.070 C 
ENDROOT
BRANCH   5  12
HETATM   12  C   LIG     1       1.911  -2.576   0.028  1.00  0.00     0.223 C 
BRANCH  12  13
HETATM   13  O   LIG     1       2.415  -2.904  -1.258  1.00  0.00    -0.395 OA
ATOM     14  HO  LIG     1       2.668  -3.820  -1.239  1.00  0.00     0.209 HD
ENDBRANCH  12  13
ENDBRANCH   5  12
TORSDOF 2
