REMARK  1 active torsions:
REMARK  status: ('A' for Active; 'I' for Inactive)
REMARK    1  A    between atoms: C_5  and  C_8 
ROOT
HETATM    1  N   LIG     1       0.999  -1.056   0.787  1.00  0.00    -0.364 N 
ATOM      2  HN  LIG     1       1.698  -1.741   1.075  1.00  0.00     0.165 HD
HETATM    3  N   LIG     1      -3.778  -0.805   1.352  1.00  0.00    -0.191 NA
HETATM    4  C   LIG     1      -2.671  -0.601   1.069  1.00  0.00     0.101 C 
HETATM    5  C   LIG     1       1.358   0.058   0.094  1.00  0.00     0.042 A 
HETATM    6  C   LIG     1      -1.310  -0.348   0.720  1.00  0.00     0.060 A 
HETATM    7  C   LIG     1      -0.311  -1.232   1.085  1.00  0.00     0.111 A 
HETATM    8  C   LIG     1       0.403   0.990  -0.316  1.00  0.00     0.032 A 
HETATM    9  C   LIG     1      -0.942   0.786   0.001  1.00  0.00     0.026 A 
ENDROOT
BRANCH   5  10
HETATM   10  C   LIG     1       2.801   0.199  -0.196  1.00  0.00    -0.009 A 
HETATM   11  C   LIG     1       3.425   1.455  -0.311  1.00  0.00     0.013 A 
HETATM   12  C   LIG     1       4.792   1.568  -0.591  1.00  0.00     0.001 A 
HETATM   13  C   LIG     1       5.567   0.425  -0.759  1.00  0.00     0.000 A 
HETATM   14  C   LIG     1       4.980  -0.830  -0.642  1.00  0.00     0.001 A 
HETATM   15  C   LIG     1       3.614  -0.939  -0.361  1.00  0.00     0.013 A 
ENDBRANCH   5  10
TORSDOF 1
