REMARK  3 active torsions:
REMARK  status: ('A' for Active; 'I' for Inactive)
REMARK    1  A    between atoms: N_1  and  C_2 
REMARK    2  A    between atoms: C_8  and  C_15 
REMARK    3  A    between atoms: N_9  and  C_15 
ROOT
HETATM    1  C   LIG     1      -0.762  -2.412  -0.030  1.00  0.00     0.038 A 
HETATM    2  C   LIG     1       0.121  -3.480   0.203  1.00  0.00     0.038 A 
HETATM    3  C   LIG     1      -0.310  -4.817   0.110  1.00  0.00    -0.031 A 
HETATM    4  C   LIG     1      -2.094  -2.702  -0.355  1.00  0.00     0.030 A 
HETATM    5  C   LIG     1      -2.531  -4.027  -0.443  1.00  0.00     0.003 A 
HETATM    6  C   LIG     1      -1.647  -5.078  -0.211  1.00  0.00     0.009 A 
ENDROOT
BRANCH   1   7
HETATM    7  N   LIG     1      -0.310  -1.057   0.063  1.00  0.00    -0.333 N 
HETATM    8  C   LIG     1      -1.069   0.084  -0.141  1.00  0.00     0.096 A 
HETATM    9  C   LIG     1      -0.281   1.201   0.039  1.00  0.00     0.019 A 
HETATM   10  C   LIG     1       1.010   0.749   0.366  1.00  0.00     0.019 A 
HETATM   11  C   LIG     1       0.969  -0.628   0.376  1.00  0.00     0.096 A 
ENDBRANCH   1   7
BRANCH   3  12
HETATM   12  C   LIG     1       0.652  -5.949   0.369  1.00  0.00     0.268 C 
BRANCH  12  13
HETATM   13  N   LIG     1       1.781  -5.914  -0.554  1.00  0.00    -0.075 N 
ATOM     14  HN3 LIG     1       1.469  -5.905  -1.525  1.00  0.00     0.274 HD
ATOM     15  HN2 LIG     1       2.254  -5.010  -0.531  1.00  0.00     0.274 HD
ATOM     16  HN1 LIG     1       2.432  -6.680  -0.379  1.00  0.00     0.274 HD
ENDBRANCH  12  13
ENDBRANCH   3  12
TORSDOF 3
