REMARK  3 active torsions:
REMARK  status: ('A' for Active; 'I' for Inactive)
REMARK    1  A    between atoms: C_3  and  C_6 
REMARK    2  A    between atoms: C_4  and  C_11 
REMARK    3  A    between atoms: O_9  and  C_11 
ROOT
HETATM    1  N   LIG     1       0.739   1.090  -0.152  1.00  0.00    -0.365 N 
ATOM      2  HN  LIG     1       1.264   1.964  -0.181  1.00  0.00     0.165 HD
HETATM    3  C   LIG     1       1.381  -0.107  -0.132  1.00  0.00     0.042 A 
HETATM    4  C   LIG     1      -1.394  -0.052  -0.093  1.00  0.00    -0.019 A 
HETATM    5  C   LIG     1      -0.613   1.093  -0.133  1.00  0.00     0.097 A 
HETATM    6  C   LIG     1       0.669  -1.306  -0.081  1.00  0.00     0.031 A 
HETATM    7  C   LIG     1      -0.725  -1.275  -0.061  1.00  0.00     0.013 A 
ENDROOT
BRANCH   3   8
HETATM    8  C   LIG     1       2.859  -0.045  -0.154  1.00  0.00    -0.009 A 
HETATM    9  C   LIG     1       3.538   1.049   0.416  1.00  0.00     0.013 A 
HETATM   10  C   LIG     1       4.934   1.131   0.407  1.00  0.00     0.001 A 
HETATM   11  C   LIG     1       5.686   0.119  -0.180  1.00  0.00     0.000 A 
HETATM   12  C   LIG     1       5.043  -0.972  -0.757  1.00  0.00     0.001 A 
HETATM   13  C   LIG     1       3.646  -1.052  -0.745  1.00  0.00     0.013 A 
ENDBRANCH   3   8
BRANCH   4  14
HETATM   14  C   LIG     1      -2.890   0.022  -0.063  1.00  0.00     0.204 C 
BRANCH  14  15
HETATM   15  O   LIG     1      -3.453  -0.667  -1.172  1.00  0.00    -0.396 OA
ATOM     16  HO  LIG     1      -4.402  -0.620  -1.153  1.00  0.00     0.209 HD
ENDBRANCH  14  15
ENDBRANCH   4  14
TORSDOF 3
