REMARK  2 active torsions:
REMARK  status: ('A' for Active; 'I' for Inactive)
REMARK    1  A    between atoms: N_1  and  C_3 
REMARK    2  A    between atoms: C_2  and  C_4 
ROOT
HETATM    1  C   LIG     1      -0.752  -2.416  -0.043  1.00  0.00     0.039 A 
HETATM    2  C   LIG     1      -2.436  -4.110  -0.532  1.00  0.00     0.043 A 
HETATM    3  C   LIG     1      -2.056  -2.761  -0.434  1.00  0.00     0.048 A 
HETATM    4  C   LIG     1       0.160  -3.443   0.251  1.00  0.00     0.030 A 
HETATM    5  C   LIG     1      -1.515  -5.119  -0.234  1.00  0.00     0.018 A 
HETATM    6  C   LIG     1      -0.222  -4.784   0.157  1.00  0.00     0.003 A 
ENDROOT
BRANCH   1   7
HETATM    7  N   LIG     1      -0.355  -1.045   0.056  1.00  0.00    -0.333 N 
HETATM    8  C   LIG     1      -1.150   0.067  -0.167  1.00  0.00     0.096 A 
HETATM    9  C   LIG     1      -0.407   1.210   0.031  1.00  0.00     0.019 A 
HETATM   10  C   LIG     1       0.894   0.806   0.382  1.00  0.00     0.019 A 
HETATM   11  C   LIG     1       0.902  -0.571   0.392  1.00  0.00     0.096 A 
ENDBRANCH   1   7
BRANCH   2  12
HETATM   12  C   LIG     1      -3.822  -4.423  -0.960  1.00  0.00     0.209 C 
HETATM   13  O   LIG     1      -4.686  -3.611  -1.231  1.00  0.00    -0.644 OA
HETATM   14  O   LIG     1      -4.057  -5.746  -1.032  1.00  0.00    -0.644 OA
ENDBRANCH   2  12
TORSDOF 2
