REMARK  2 active torsions:
REMARK  status: ('A' for Active; 'I' for Inactive)
REMARK    1  A    between atoms: C_9  and  C_12 
REMARK    2  A    between atoms: C_12  and  O_13 
ROOT
HETATM    1  C   LIG     1       0.151  -0.798   0.008  1.00  0.00     0.103 A 
HETATM    2  C   LIG     1      -0.075   0.516  -0.006  1.00  0.00     0.024 A 
HETATM    3  N   LIG     1      -1.058  -1.399   0.009  1.00  0.00    -0.289 N 
HETATM    4  N   LIG     1      -2.077  -0.485  -0.004  1.00  0.00    -0.302 N 
ATOM      5  HN  LIG     1      -3.081  -0.667  -0.006  1.00  0.00     0.187 HD
HETATM    6  C   LIG     1      -1.450   0.715  -0.014  1.00  0.00     0.035 A 
HETATM    7  S   LIG     1       1.757  -1.214   0.017  1.00  0.00    -0.072 SA
HETATM    8  C   LIG     1       1.062   1.315  -0.009  1.00  0.00     0.033 A 
HETATM    9  C   LIG     1       2.188   0.487   0.004  1.00  0.00     0.009 A 
HETATM   10  C   LIG     1      -1.344  -2.810   0.023  1.00  0.00     0.178 C 
HETATM   11  C   LIG     1      -2.220   1.978  -0.029  1.00  0.00     0.070 C 
ENDROOT
BRANCH   9  12
HETATM   12  C   LIG     1       3.628   0.881   0.010  1.00  0.00     0.210 C 
BRANCH  12  13
HETATM   13  O   LIG     1       4.074   0.881   1.359  1.00  0.00    -0.396 OA
ATOM     14  HO  LIG     1       4.990   1.132   1.363  1.00  0.00     0.209 HD
ENDBRANCH  12  13
ENDBRANCH   9  12
TORSDOF 2
