REMARK  3 active torsions:
REMARK  status: ('A' for Active; 'I' for Inactive)
REMARK    1  A    between atoms: C_1  and  N_2 
REMARK    2  A    between atoms: C_3  and  C_11 
REMARK    3  A    between atoms: C_11  and  O_12 
ROOT
HETATM    1  C   LIG     1       0.582  -0.893  -0.615  1.00  0.00     0.054 A 
HETATM    2  C   LIG     1       1.505  -0.336  -1.498  1.00  0.00     0.033 A 
HETATM    3  S   LIG     1       0.825   0.994  -2.367  1.00  0.00    -0.102 SA
HETATM    4  C   LIG     1      -0.695  -0.239  -0.731  1.00  0.00     0.038 A 
HETATM    5  C   LIG     1      -0.693   0.797  -1.636  1.00  0.00     0.052 A 
ENDROOT
BRANCH   1   6
HETATM    6  N   LIG     1       0.796  -1.985   0.306  1.00  0.00    -0.332 N 
HETATM    7  C   LIG     1      -0.176  -2.559   1.111  1.00  0.00     0.096 A 
HETATM    8  C   LIG     1       0.371  -3.591   1.843  1.00  0.00     0.019 A 
HETATM    9  C   LIG     1       1.733  -3.657   1.502  1.00  0.00     0.019 A 
HETATM   10  C   LIG     1       1.972  -2.654   0.586  1.00  0.00     0.096 A 
ENDBRANCH   1   6
BRANCH   2  11
HETATM   11  C   LIG     1       2.926  -0.672  -1.819  1.00  0.00     0.212 C 
BRANCH  11  12
HETATM   12  O   LIG     1       3.741  -0.091  -0.811  1.00  0.00    -0.396 OA
ATOM     13  HO  LIG     1       4.644  -0.305  -1.015  1.00  0.00     0.209 HD
ENDBRANCH  11  12
ENDBRANCH   2  11
TORSDOF 3
