REMARK  1 active torsions:
REMARK  status: ('A' for Active; 'I' for Inactive)
REMARK    1  A    between atoms: C_1  and  C_6 
ROOT
HETATM    1  C   LIG     1       1.643   1.178  -0.081  1.00  0.00     0.088 A 
HETATM    2  S   LIG     1       2.783  -0.103  -0.153  1.00  0.00    -0.094 SA
HETATM    3  C   LIG     1       0.342   0.688  -0.060  1.00  0.00    -0.027 A 
HETATM    4  C   LIG     1       0.302  -0.753  -0.077  1.00  0.00    -0.044 A 
HETATM    5  C   LIG     1       1.566  -1.296  -0.134  1.00  0.00     0.058 A 
HETATM    6  C   LIG     1      -0.918   1.511   0.016  1.00  0.00     0.041 C 
HETATM    7  C   LIG     1      -0.983  -1.527  -0.062  1.00  0.00     0.040 C 
HETATM    8  C   LIG     1      -2.174   0.691  -0.308  1.00  0.00     0.005 C 
HETATM    9  C   LIG     1      -2.164  -0.667   0.400  1.00  0.00     0.005 C 
ENDROOT
BRANCH   1  10
HETATM   10  C   LIG     1       2.065   2.565  -0.039  1.00  0.00     0.217 C 
HETATM   11  O   LIG     1       1.353   3.557   0.056  1.00  0.00    -0.643 OA
HETATM   12  O   LIG     1       3.406   2.727  -0.117  1.00  0.00    -0.643 OA
ENDBRANCH   1  10
TORSDOF 1
