REMARK  2 active torsions:
REMARK  status: ('A' for Active; 'I' for Inactive)
REMARK    1  A    between atoms: C_1  and  C_4 
REMARK    2  A    between atoms: C_2  and  N_3 
ROOT
HETATM    1  C   LIG     1       1.362  -0.355  -1.071  1.00  0.00     0.108 A 
HETATM    2  C   LIG     1       0.030  -0.560  -0.731  1.00  0.00     0.062 A 
HETATM    3  S   LIG     1       1.549   1.040  -2.064  1.00  0.00    -0.093 SA
HETATM    4  C   LIG     1      -0.830   0.364  -1.418  1.00  0.00     0.039 A 
HETATM    5  C   LIG     1      -0.133   1.285  -2.164  1.00  0.00     0.053 A 
ENDROOT
BRANCH   2   6
HETATM    6  N   LIG     1      -0.482  -1.535   0.193  1.00  0.00    -0.331 N 
HETATM    7  C   LIG     1      -1.805  -1.928   0.300  1.00  0.00     0.096 A 
HETATM    8  C   LIG     1      -1.928  -2.858   1.309  1.00  0.00     0.019 A 
HETATM    9  C   LIG     1      -0.650  -3.029   1.872  1.00  0.00     0.019 A 
HETATM   10  C   LIG     1       0.211  -2.199   1.187  1.00  0.00     0.096 A 
ENDBRANCH   2   6
BRANCH   1  11
HETATM   11  C   LIG     1       2.562  -1.106  -0.797  1.00  0.00     0.218 C 
HETATM   12  O   LIG     1       3.691  -0.690  -0.583  1.00  0.00    -0.643 OA
HETATM   13  O   LIG     1       2.346  -2.437  -0.885  1.00  0.00    -0.643 OA
ENDBRANCH   1  11
TORSDOF 2
