REMARK  2 active torsions:
REMARK  status: ('A' for Active; 'I' for Inactive)
REMARK    1  A    between atoms: C_4  and  C_10 
REMARK    2  A    between atoms: O_6  and  C_10 
ROOT
HETATM    1  O   LIG     1      -1.709   0.627  -0.382  1.00  0.00    -0.343 OA
HETATM    2  C   LIG     1      -0.365   0.449  -0.185  1.00  0.00     0.075 A 
HETATM    3  C   LIG     1       0.006  -0.877  -0.028  1.00  0.00    -0.022 A 
HETATM    4  C   LIG     1      -2.283  -0.668  -0.058  1.00  0.00     0.156 C 
HETATM    5  C   LIG     1      -1.188  -1.741  -0.171  1.00  0.00     0.076 C 
HETATM    6  C   LIG     1       0.558   1.473  -0.163  1.00  0.00     0.037 A 
HETATM    7  C   LIG     1       1.331  -1.227   0.161  1.00  0.00     0.010 A 
HETATM    8  C   LIG     1       1.899   1.138   0.038  1.00  0.00     0.003 A 
HETATM    9  C   LIG     1       2.282  -0.204   0.200  1.00  0.00     0.001 A 
ENDROOT
BRANCH   4  10
HETATM   10  C   LIG     1      -3.473  -0.935  -0.978  1.00  0.00     0.196 C 
BRANCH  10  11
HETATM   11  O   LIG     1      -4.076  -2.195  -0.704  1.00  0.00    -0.398 OA
ATOM     12  HO  LIG     1      -4.816  -2.361  -1.276  1.00  0.00     0.209 HD
ENDBRANCH  10  11
ENDBRANCH   4  10
TORSDOF 2
