REMARK  3 active torsions:
REMARK  status: ('A' for Active; 'I' for Inactive)
REMARK    1  A    between atoms: C_1  and  C_6 
REMARK    2  A    between atoms: C_7  and  C_12 
REMARK    3  A    between atoms: C_12  and  O_13 
ROOT
HETATM    1  C   LIG     1      -0.948  -1.017   0.033  1.00  0.00     0.117 A 
HETATM    2  C   LIG     1      -1.660   0.157  -0.133  1.00  0.00     0.070 A 
HETATM    3  N   LIG     1       0.499   0.704   0.289  1.00  0.00    -0.263 N 
ATOM      4  HN  LIG     1       1.354   1.235   0.457  1.00  0.00     0.194 HD
HETATM    5  O   LIG     1       0.356  -0.673   0.283  1.00  0.00    -0.236 OA
HETATM    6  C   LIG     1      -0.718   1.193   0.029  1.00  0.00     0.058 A 
ENDROOT
BRANCH   1   7
HETATM    7  C   LIG     1      -1.395  -2.380  -0.023  1.00  0.00     0.040 A 
HETATM    8  S   LIG     1      -3.030  -2.797  -0.331  1.00  0.00    -0.099 SA
HETATM    9  C   LIG     1      -2.701  -4.469  -0.228  1.00  0.00     0.050 A 
HETATM   10  C   LIG     1      -1.374  -4.717   0.037  1.00  0.00     0.008 A 
HETATM   11  C   LIG     1      -0.619  -3.512   0.155  1.00  0.00     0.022 A 
ENDBRANCH   1   7
BRANCH   6  12
HETATM   12  C   LIG     1      -0.943   2.662  -0.020  1.00  0.00     0.223 C 
BRANCH  12  13
HETATM   13  O   LIG     1      -0.647   3.286   1.229  1.00  0.00    -0.395 OA
ATOM     14  HO  LIG     1      -0.791   4.225   1.198  1.00  0.00     0.209 HD
ENDBRANCH  12  13
ENDBRANCH   6  12
TORSDOF 3
