REMARK  4 active torsions:
REMARK  status: ('A' for Active; 'I' for Inactive)
REMARK    1  A    between atoms: N_1  and  C_7 
REMARK    2  A    between atoms: C_2  and  C_9 
REMARK    3  A    between atoms: C_7  and  C_8 
REMARK    4  A    between atoms: C_9  and  O_10 
ROOT
HETATM    1  N   LIG     1       2.129  -0.706  -3.855  1.00  0.00    -0.339 N 
HETATM    2  C   LIG     1       2.110  -1.728  -4.779  1.00  0.00     0.107 A 
HETATM    3  N   LIG     1       1.922  -1.248  -5.997  1.00  0.00    -0.352 N 
ATOM      4  HN  LIG     1       1.900  -1.778  -6.868  1.00  0.00     0.166 HD
HETATM    5  C   LIG     1       1.763   0.103  -5.851  1.00  0.00     0.106 A 
HETATM    6  C   LIG     1       1.861   0.461  -4.526  1.00  0.00     0.109 A 
ENDROOT
BRANCH   1   7
HETATM    7  C   LIG     1       2.336  -0.804  -2.416  1.00  0.00     0.168 C 
BRANCH   7   8
HETATM    8  C   LIG     1       3.733  -1.246  -2.049  1.00  0.00    -0.040 A 
HETATM    9  C   LIG     1       4.864  -0.528  -2.470  1.00  0.00     0.009 A 
HETATM   10  C   LIG     1       6.147  -0.948  -2.109  1.00  0.00     0.001 A 
HETATM   11  C   LIG     1       6.315  -2.079  -1.315  1.00  0.00     0.000 A 
HETATM   12  C   LIG     1       5.202  -2.791  -0.877  1.00  0.00     0.001 A 
HETATM   13  C   LIG     1       3.919  -2.376  -1.238  1.00  0.00     0.009 A 
ENDBRANCH   7   8
ENDBRANCH   1   7
BRANCH   2  14
HETATM   14  C   LIG     1       2.291  -3.174  -4.456  1.00  0.00     0.240 C 
BRANCH  14  15
HETATM   15  O   LIG     1       2.281  -3.902  -5.684  1.00  0.00    -0.393 OA
ATOM     16  HO  LIG     1       2.396  -4.822  -5.478  1.00  0.00     0.209 HD
ENDBRANCH  14  15
ENDBRANCH   2  14
TORSDOF 4
