REMARK  2 active torsions:
REMARK  status: ('A' for Active; 'I' for Inactive)
REMARK    1  A    between atoms: C_2  and  C_7 
REMARK    2  A    between atoms: C_7  and  N_8 
ROOT
HETATM    1  N   LIG     1      -0.422   1.065  -0.025  1.00  0.00    -0.348 N 
HETATM    2  C   LIG     1       0.900   0.686  -0.005  1.00  0.00     0.053 A 
HETATM    3  N   LIG     1      -0.436  -1.151  -0.001  1.00  0.00    -0.360 N 
ATOM      4  HN  LIG     1      -0.751  -2.121   0.008  1.00  0.00     0.166 HD
HETATM    5  C   LIG     1      -1.181  -0.071  -0.028  1.00  0.00     0.182 A 
HETATM    6  C   LIG     1       0.855  -0.694   0.013  1.00  0.00     0.115 A 
HETATM    7  C   LIG     1      -0.940   2.411  -0.038  1.00  0.00     0.157 C 
ENDROOT
BRANCH   2   8
HETATM    8  C   LIG     1       2.057   1.617   0.024  1.00  0.00     0.290 C 
BRANCH   8   9
HETATM    9  N   LIG     1       2.098   2.396  -1.210  1.00  0.00    -0.074 N 
HETATM   10  C   LIG     1       3.232   3.310  -1.210  1.00  0.00     0.267 C 
ATOM     11  HN2 LIG     1       2.098   1.796  -2.035  1.00  0.00     0.277 HD
ATOM     12  HN1 LIG     1       1.219   2.886  -1.376  1.00  0.00     0.277 HD
ENDBRANCH   8   9
ENDBRANCH   2   8
TORSDOF 2
