REMARK  0 active torsions:
REMARK  status: ('A' for Active; 'I' for Inactive)
ROOT
HETATM    1  C   LIG     1       0.985  -0.678  -0.002  1.00  0.00     0.132 A 
HETATM    2  N   LIG     1      -0.318  -1.102   0.003  1.00  0.00    -0.338 N 
HETATM    3  N   LIG     1      -0.399   1.111  -0.000  1.00  0.00    -0.359 N 
ATOM      4  HN  LIG     1      -0.743   2.071  -0.000  1.00  0.00     0.166 HD
HETATM    5  C   LIG     1       2.140  -1.499  -0.007  1.00  0.00     0.119 C 
HETATM    6  N   LIG     1       3.063  -2.200  -0.012  1.00  0.00    -0.190 NA
HETATM    7  C   LIG     1      -1.114   0.008   0.001  1.00  0.00     0.183 A 
HETATM    8  C   LIG     1       0.909   0.695  -0.001  1.00  0.00     0.130 A 
HETATM    9  C   LIG     1      -0.777  -2.470   0.010  1.00  0.00     0.158 C 
ENDROOT
TORSDOF 0
