REMARK  2 active torsions:
REMARK  status: ('A' for Active; 'I' for Inactive)
REMARK    1  A    between atoms: C_1  and  C_3 
REMARK    2  A    between atoms: C_2  and  N_4 
ROOT
HETATM    1  C   LIG     1      -0.432  -0.256  -0.775  1.00  0.00     0.062 A 
HETATM    2  C   LIG     1      -1.205  -1.210  -0.067  1.00  0.00     0.028 A 
HETATM    3  C   LIG     1      -0.469   1.105  -0.403  1.00  0.00     0.020 A 
HETATM    4  C   LIG     1      -1.986  -0.732   1.008  1.00  0.00     0.025 A 
HETATM    5  C   LIG     1      -1.248   1.537   0.668  1.00  0.00     0.001 A 
HETATM    6  C   LIG     1      -2.006   0.616   1.375  1.00  0.00     0.002 A 
ENDROOT
BRANCH   2   7
HETATM    7  N   LIG     1      -1.190  -2.581  -0.389  1.00  0.00    -0.279 NA
HETATM    8  C   LIG     1      -1.365  -3.548   0.718  1.00  0.00     0.122 C 
HETATM    9  C   LIG     1      -1.129  -4.977   0.204  1.00  0.00     0.182 C 
HETATM   10  O   LIG     1      -2.014  -5.293  -0.884  1.00  0.00    -0.389 OA
HETATM   11  C   LIG     1      -1.806  -4.371  -1.970  1.00  0.00     0.182 C 
HETATM   12  C   LIG     1      -2.078  -2.920  -1.532  1.00  0.00     0.122 C 
ENDBRANCH   2   7
BRANCH   1  13
HETATM   13  C   LIG     1       0.467  -0.638  -1.907  1.00  0.00     0.211 C 
HETATM   14  O   LIG     1       0.360  -1.553  -2.699  1.00  0.00    -0.644 OA
HETATM   15  O   LIG     1       1.516   0.210  -2.010  1.00  0.00    -0.644 OA
ENDBRANCH   1  13
TORSDOF 2
