REMARK  3 active torsions:
REMARK  status: ('A' for Active; 'I' for Inactive)
REMARK    1  A    between atoms: N_1  and  C_2 
REMARK    2  A    between atoms: C_3  and  C_11 
REMARK    3  A    between atoms: N_5  and  C_11 
ROOT
HETATM    1  C   LIG     1       1.353   1.781  -1.419  1.00  0.00     0.018 A 
HETATM    2  C   LIG     1       1.866   2.016  -2.719  1.00  0.00    -0.012 A 
HETATM    3  C   LIG     1       0.871   2.887  -0.695  1.00  0.00     0.024 A 
HETATM    4  C   LIG     1       1.873   3.327  -3.239  1.00  0.00     0.011 A 
HETATM    5  C   LIG     1       0.891   4.181  -1.223  1.00  0.00     0.002 A 
HETATM    6  C   LIG     1       1.391   4.402  -2.499  1.00  0.00     0.001 A 
ENDROOT
BRANCH   1   7
HETATM    7  N   LIG     1       1.317   0.471  -0.894  1.00  0.00    -0.279 NA
HETATM    8  C   LIG     1       1.486   0.335   0.572  1.00  0.00     0.122 C 
HETATM    9  C   LIG     1       1.563  -1.155   0.942  1.00  0.00     0.182 C 
HETATM   10  O   LIG     1       0.385  -1.860   0.510  1.00  0.00    -0.389 OA
HETATM   11  C   LIG     1       0.236  -1.746  -0.915  1.00  0.00     0.182 C 
HETATM   12  C   LIG     1       0.124  -0.277  -1.361  1.00  0.00     0.122 C 
ENDBRANCH   1   7
BRANCH   2  13
HETATM   13  C   LIG     1       2.461   0.919  -3.573  1.00  0.00     0.269 C 
BRANCH  13  14
HETATM   14  N   LIG     1       1.693   0.712  -4.803  1.00  0.00    -0.075 N 
ATOM     15  HN3 LIG     1       0.709   0.534  -4.601  1.00  0.00     0.274 HD
ATOM     16  HN2 LIG     1       1.593   1.580  -5.329  1.00  0.00     0.274 HD
ATOM     17  HN1 LIG     1       2.094  -0.028  -5.379  1.00  0.00     0.274 HD
ENDBRANCH  13  14
ENDBRANCH   2  13
TORSDOF 3
