REMARK  3 active torsions:
REMARK  status: ('A' for Active; 'I' for Inactive)
REMARK    1  A    between atoms: N_1  and  C_4 
REMARK    2  A    between atoms: C_6  and  C_13 
REMARK    3  A    between atoms: N_9  and  C_13 
ROOT
HETATM    1  C   LIG     1      -0.830  -2.134  -0.269  1.00  0.00     0.063 A 
HETATM    2  C   LIG     1      -2.093  -2.677  -0.632  1.00  0.00    -0.004 A 
HETATM    3  C   LIG     1       0.157  -3.005   0.245  1.00  0.00     0.032 A 
HETATM    4  C   LIG     1      -2.300  -4.067  -0.469  1.00  0.00     0.011 A 
HETATM    5  C   LIG     1      -0.082  -4.373   0.398  1.00  0.00     0.002 A 
HETATM    6  C   LIG     1      -1.310  -4.906   0.040  1.00  0.00     0.001 A 
ENDROOT
BRANCH   1   7
HETATM    7  N   LIG     1      -0.499  -0.742  -0.409  1.00  0.00    -0.268 N 
HETATM    8  N   LIG     1      -1.389   0.181  -0.868  1.00  0.00    -0.305 N 
HETATM    9  C   LIG     1      -0.722   1.327  -0.921  1.00  0.00     0.109 A 
ATOM     10  HN  LIG     1      -2.365   0.024  -1.119  1.00  0.00     0.186 HD
HETATM   11  C   LIG     1       0.592   1.203  -0.468  1.00  0.00     0.038 A 
HETATM   12  C   LIG     1       0.711  -0.124  -0.137  1.00  0.00     0.118 A 
ENDBRANCH   1   7
BRANCH   2  13
HETATM   13  C   LIG     1      -3.273  -1.893  -1.170  1.00  0.00     0.270 C 
BRANCH  13  14
HETATM   14  N   LIG     1      -3.021  -1.329  -2.494  1.00  0.00    -0.075 N 
ATOM     15  HN3 LIG     1      -2.174  -0.761  -2.494  1.00  0.00     0.274 HD
ATOM     16  HN2 LIG     1      -2.734  -2.054  -3.151  1.00  0.00     0.274 HD
ATOM     17  HN1 LIG     1      -3.815  -0.801  -2.856  1.00  0.00     0.274 HD
ENDBRANCH  13  14
ENDBRANCH   2  13
TORSDOF 3
