REMARK  0 active torsions:
REMARK  status: ('A' for Active; 'I' for Inactive)
ROOT
HETATM    1  C   LIG     1      -0.267   0.657  -0.005  1.00  0.00    -0.017 A 
HETATM    2  S   LIG     1      -1.776  -1.439   0.058  1.00  0.00    -0.101 SA
HETATM    3  C   LIG     1      -0.203  -0.738   0.020  1.00  0.00     0.015 A 
HETATM    4  C   LIG     1      -2.538   0.086   0.028  1.00  0.00     0.051 A 
HETATM    5  C   LIG     1      -1.627   1.116  -0.007  1.00  0.00     0.020 A 
HETATM    6  C   LIG     1       0.952   1.382  -0.040  1.00  0.00     0.039 A 
HETATM    7  C   LIG     1       1.030  -1.414  -0.000  1.00  0.00     0.021 A 
HETATM    8  C   LIG     1       2.188   0.725   0.000  1.00  0.00     0.047 A 
HETATM    9  N   LIG     1       3.374   1.453  -0.161  1.00  0.00    -0.102 NA
HETATM   10  C   LIG     1       2.211  -0.665  -0.034  1.00  0.00     0.028 A 
ENDROOT
TORSDOF 0
