REMARK  3 active torsions:
REMARK  status: ('A' for Active; 'I' for Inactive)
REMARK    1  A    between atoms: N_1  and  C_2 
REMARK    2  A    between atoms: C_3  and  C_7 
REMARK    3  A    between atoms: C_7  and  O_8 
ROOT
HETATM    1  C   LIG     1       1.312   2.050  -1.177  1.00  0.00     0.019 A 
HETATM    2  C   LIG     1       1.853   2.094  -2.484  1.00  0.00    -0.013 A 
HETATM    3  C   LIG     1       0.964   3.267  -0.565  1.00  0.00     0.024 A 
HETATM    4  C   LIG     1       1.977   3.332  -3.147  1.00  0.00     0.011 A 
HETATM    5  C   LIG     1       1.122   4.490  -1.223  1.00  0.00     0.002 A 
HETATM    6  C   LIG     1       1.622   4.522  -2.518  1.00  0.00     0.001 A 
ENDROOT
BRANCH   1   7
HETATM    7  N   LIG     1       1.115   0.808  -0.543  1.00  0.00    -0.279 NA
HETATM    8  C   LIG     1       1.285   0.765   0.927  1.00  0.00     0.122 C 
HETATM    9  C   LIG     1       1.200  -0.695   1.402  1.00  0.00     0.182 C 
HETATM   10  O   LIG     1      -0.056  -1.290   1.030  1.00  0.00    -0.389 OA
HETATM   11  C   LIG     1      -0.216  -1.262  -0.399  1.00  0.00     0.182 C 
HETATM   12  C   LIG     1      -0.166   0.174  -0.948  1.00  0.00     0.122 C 
ENDBRANCH   1   7
BRANCH   2  13
HETATM   13  C   LIG     1       2.268   0.833  -3.210  1.00  0.00     0.204 C 
BRANCH  13  14
HETATM   14  O   LIG     1       3.430   1.043  -4.009  1.00  0.00    -0.396 OA
ATOM     15  HO  LIG     1       3.691   0.251  -4.465  1.00  0.00     0.209 HD
ENDBRANCH  13  14
ENDBRANCH   2  13
TORSDOF 3
