REMARK  2 active torsions:
REMARK  status: ('A' for Active; 'I' for Inactive)
REMARK    1  A    between atoms: C_1  and  C_3 
REMARK    2  A    between atoms: C_3  and  N_9 
ROOT
HETATM    1  C   LIG     1       2.352  -0.834   0.049  1.00  0.00     0.004 C 
HETATM    2  C   LIG     1       1.202  -1.523   0.051  1.00  0.00     0.026 C 
HETATM    3  O   LIG     1       1.172   1.311  -0.390  1.00  0.00    -0.346 OA
HETATM    4  C   LIG     1      -0.037  -0.755   0.046  1.00  0.00    -0.002 A 
HETATM    5  C   LIG     1       2.377   0.668   0.063  1.00  0.00     0.217 C 
HETATM    6  C   LIG     1       0.006   0.626  -0.175  1.00  0.00     0.079 A 
HETATM    7  C   LIG     1      -1.274  -1.384   0.221  1.00  0.00     0.014 A 
HETATM    8  C   LIG     1      -1.173   1.368  -0.237  1.00  0.00     0.037 A 
HETATM    9  C   LIG     1      -2.454  -0.637   0.175  1.00  0.00     0.001 A 
HETATM   10  C   LIG     1      -2.404   0.737  -0.057  1.00  0.00     0.003 A 
ENDROOT
BRANCH   1  11
HETATM   11  C   LIG     1       3.643  -1.568   0.068  1.00  0.00     0.102 C 
HETATM   12  S   LIG     1       4.954  -1.247   1.049  1.00  0.00    -0.060 SA
BRANCH  11  13
HETATM   13  N   LIG     1       3.739  -2.571  -0.855  1.00  0.00    -0.390 N 
ATOM     14  HN2 LIG     1       2.938  -2.767  -1.455  1.00  0.00     0.157 HD
ATOM     15  HN1 LIG     1       4.626  -3.075  -0.842  1.00  0.00     0.157 HD
ENDBRANCH  11  13
ENDBRANCH   1  11
TORSDOF 2
