REMARK  2 active torsions:
REMARK  status: ('A' for Active; 'I' for Inactive)
REMARK    1  A    between atoms: C_1  and  C_2 
REMARK    2  A    between atoms: C_4  and  C_8 
ROOT
HETATM    1  C   LIG     1      -0.697   1.231   0.019  1.00  0.00     0.057 A 
HETATM    2  C   LIG     1      -1.373   0.005   0.046  1.00  0.00     0.033 A 
HETATM    3  C   LIG     1      -0.666  -1.208  -0.016  1.00  0.00    -0.009 A 
HETATM    4  N   LIG     1       1.415   0.081  -0.147  1.00  0.00    -0.373 N 
ATOM      5  HN  LIG     1       2.432   0.101  -0.222  1.00  0.00     0.164 HD
HETATM    6  C   LIG     1       0.684   1.217  -0.082  1.00  0.00     0.106 A 
HETATM    7  C   LIG     1       0.725  -1.089  -0.107  1.00  0.00     0.100 A 
ENDROOT
BRANCH   3   8
HETATM    8  C   LIG     1      -1.347  -2.524   0.013  1.00  0.00    -0.025 A 
HETATM    9  C   LIG     1      -2.544  -2.718   0.730  1.00  0.00     0.012 A 
HETATM   10  C   LIG     1      -3.192  -3.959   0.753  1.00  0.00     0.001 A 
HETATM   11  C   LIG     1      -2.651  -5.041   0.069  1.00  0.00     0.000 A 
HETATM   12  C   LIG     1      -1.468  -4.882  -0.644  1.00  0.00     0.001 A 
HETATM   13  C   LIG     1      -0.829  -3.637  -0.675  1.00  0.00     0.012 A 
ENDBRANCH   3   8
BRANCH   1  14
HETATM   14  C   LIG     1      -1.381   2.536   0.088  1.00  0.00     0.210 C 
HETATM   15  O   LIG     1      -0.842   3.624   0.066  1.00  0.00    -0.644 OA
HETATM   16  O   LIG     1      -2.718   2.416   0.182  1.00  0.00    -0.644 OA
ENDBRANCH   1  14
TORSDOF 2
