REMARK  1 active torsions:
REMARK  status: ('A' for Active; 'I' for Inactive)
REMARK    1  A    between atoms: N_1  and  C_4 
ROOT
HETATM    1  N   LIG     1      -2.113  -7.655  -0.430  1.00  0.00    -0.191 NA
HETATM    2  C   LIG     1      -1.813  -6.537  -0.340  1.00  0.00     0.099 C 
HETATM    3  C   LIG     1      -0.714  -2.440  -0.012  1.00  0.00     0.038 A 
HETATM    4  C   LIG     1       0.256  -3.451   0.077  1.00  0.00     0.031 A 
HETATM    5  C   LIG     1      -2.053  -2.809  -0.212  1.00  0.00     0.031 A 
HETATM    6  C   LIG     1      -1.443  -5.157  -0.230  1.00  0.00     0.044 A 
HETATM    7  C   LIG     1      -2.414  -4.158  -0.320  1.00  0.00     0.025 A 
HETATM    8  C   LIG     1      -0.108  -4.800  -0.031  1.00  0.00     0.025 A 
ENDROOT
BRANCH   3   9
HETATM    9  N   LIG     1      -0.344  -1.061   0.098  1.00  0.00    -0.333 N 
HETATM   10  C   LIG     1      -1.192   0.031   0.037  1.00  0.00     0.096 A 
HETATM   11  C   LIG     1      -0.463   1.191   0.184  1.00  0.00     0.019 A 
HETATM   12  C   LIG     1       0.884   0.817   0.343  1.00  0.00     0.019 A 
HETATM   13  C   LIG     1       0.933  -0.559   0.287  1.00  0.00     0.096 A 
ENDBRANCH   3   9
TORSDOF 1
