REMARK  1 active torsions:
REMARK  status: ('A' for Active; 'I' for Inactive)
REMARK    1  A    between atoms: C_1  and  C_2 
ROOT
HETATM    1  C   LIG     1      -2.420   0.592  -0.399  1.00  0.00     0.115 C 
HETATM    2  O   LIG     1      -1.080  -1.442   0.039  1.00  0.00    -0.350 OA
HETATM    3  C   LIG     1      -1.244   1.481  -0.004  1.00  0.00     0.059 C 
HETATM    4  C   LIG     1       0.048   0.717   0.021  1.00  0.00    -0.024 A 
HETATM    5  C   LIG     1      -2.294  -0.742   0.328  1.00  0.00     0.191 C 
HETATM    6  C   LIG     1       0.055  -0.679   0.057  1.00  0.00     0.075 A 
HETATM    7  C   LIG     1       1.269   1.407   0.045  1.00  0.00     0.010 A 
HETATM    8  C   LIG     1       1.262  -1.378   0.076  1.00  0.00     0.037 A 
HETATM    9  C   LIG     1       2.476   0.706   0.077  1.00  0.00     0.001 A 
HETATM   10  C   LIG     1       2.473  -0.687   0.089  1.00  0.00     0.003 A 
ENDROOT
BRANCH   1  11
HETATM   11  C   LIG     1      -2.555   0.358  -1.887  1.00  0.00     0.179 C 
HETATM   12  O   LIG     1      -3.096  -0.598  -2.421  1.00  0.00    -0.648 OA
HETATM   13  O   LIG     1      -2.145   1.391  -2.646  1.00  0.00    -0.648 OA
ENDBRANCH   1  11
TORSDOF 1
