REMARK  3 active torsions:
REMARK  status: ('A' for Active; 'I' for Inactive)
REMARK    1  A    between atoms: N_1  and  C_2 
REMARK    2  A    between atoms: C_11  and  C_16 
REMARK    3  A    between atoms: N_12  and  C_16 
ROOT
HETATM    1  C   LIG     1      -0.686  -2.359  -0.012  1.00  0.00     0.038 A 
HETATM    2  C   LIG     1       0.265  -3.379   0.126  1.00  0.00     0.030 A 
HETATM    3  C   LIG     1      -2.012  -2.713  -0.301  1.00  0.00     0.030 A 
HETATM    4  C   LIG     1      -2.377  -4.057  -0.447  1.00  0.00     0.011 A 
HETATM    5  C   LIG     1      -0.105  -4.721  -0.020  1.00  0.00     0.011 A 
HETATM    6  C   LIG     1      -1.428  -5.076  -0.310  1.00  0.00    -0.033 A 
ENDROOT
BRANCH   1   7
HETATM    7  N   LIG     1      -0.311  -0.986   0.138  1.00  0.00    -0.333 N 
HETATM    8  C   LIG     1      -1.143   0.117   0.028  1.00  0.00     0.096 A 
HETATM    9  C   LIG     1      -0.414   1.267   0.241  1.00  0.00     0.019 A 
HETATM   10  C   LIG     1       0.914   0.877   0.490  1.00  0.00     0.019 A 
HETATM   11  C   LIG     1       0.954  -0.499   0.422  1.00  0.00     0.096 A 
ENDBRANCH   1   7
BRANCH   6  12
HETATM   12  C   LIG     1      -1.818  -6.524  -0.459  1.00  0.00     0.268 C 
BRANCH  12  13
HETATM   13  N   LIG     1      -1.103  -7.159  -1.559  1.00  0.00    -0.075 N 
ATOM     14  HN3 LIG     1      -1.230  -6.647  -2.432  1.00  0.00     0.274 HD
ATOM     15  HN2 LIG     1      -0.094  -7.053  -1.459  1.00  0.00     0.274 HD
ATOM     16  HN1 LIG     1      -1.367  -8.139  -1.660  1.00  0.00     0.274 HD
ENDBRANCH  12  13
ENDBRANCH   6  12
TORSDOF 3
