REMARK  2 active torsions:
REMARK  status: ('A' for Active; 'I' for Inactive)
REMARK    1  A    between atoms: N_1  and  C_3 
REMARK    2  A    between atoms: C_2  and  C_4 
ROOT
HETATM    1  C   LIG     1      -0.716  -2.427  -0.004  1.00  0.00     0.038 A 
HETATM    2  C   LIG     1      -1.469  -5.138  -0.227  1.00  0.00     0.041 A 
HETATM    3  C   LIG     1       0.206  -3.450   0.266  1.00  0.00     0.031 A 
HETATM    4  C   LIG     1      -2.018  -2.779  -0.392  1.00  0.00     0.031 A 
HETATM    5  C   LIG     1      -2.391  -4.125  -0.503  1.00  0.00     0.020 A 
HETATM    6  C   LIG     1      -0.169  -4.795   0.155  1.00  0.00     0.020 A 
ENDROOT
BRANCH   1   7
HETATM    7  N   LIG     1      -0.337  -1.051   0.116  1.00  0.00    -0.333 N 
HETATM    8  C   LIG     1      -1.142   0.051  -0.112  1.00  0.00     0.096 A 
HETATM    9  C   LIG     1      -0.420   1.204   0.110  1.00  0.00     0.019 A 
HETATM   10  C   LIG     1       0.877   0.814   0.490  1.00  0.00     0.019 A 
HETATM   11  C   LIG     1       0.905  -0.564   0.487  1.00  0.00     0.096 A 
ENDBRANCH   1   7
BRANCH   2  12
HETATM   12  C   LIG     1      -1.822  -6.575  -0.322  1.00  0.00     0.209 C 
HETATM   13  O   LIG     1      -1.073  -7.509  -0.104  1.00  0.00    -0.644 OA
HETATM   14  O   LIG     1      -3.103  -6.775  -0.680  1.00  0.00    -0.644 OA
ENDBRANCH   2  12
TORSDOF 2
