REMARK  2 active torsions:
REMARK  status: ('A' for Active; 'I' for Inactive)
REMARK    1  A    between atoms: C_5  and  C_10 
REMARK    2  A    between atoms: O_7  and  C_10 
ROOT
HETATM    1  O   LIG     1      -1.113  -1.427   0.040  1.00  0.00    -0.350 OA
HETATM    2  C   LIG     1       0.048   0.718   0.027  1.00  0.00    -0.024 A 
HETATM    3  C   LIG     1       0.036  -0.682   0.064  1.00  0.00     0.075 A 
HETATM    4  C   LIG     1      -1.235   1.501  -0.007  1.00  0.00     0.050 C 
HETATM    5  C   LIG     1      -2.424   0.612  -0.376  1.00  0.00     0.038 C 
HETATM    6  C   LIG     1      -2.291  -0.698   0.398  1.00  0.00     0.182 C 
HETATM    7  C   LIG     1       1.278   1.390   0.048  1.00  0.00     0.010 A 
HETATM    8  C   LIG     1       1.233  -1.398   0.077  1.00  0.00     0.037 A 
HETATM    9  C   LIG     1       2.474   0.672   0.076  1.00  0.00     0.001 A 
HETATM   10  C   LIG     1       2.452  -0.721   0.086  1.00  0.00     0.003 A 
ENDROOT
BRANCH   5  11
HETATM   11  C   LIG     1      -2.502   0.392  -1.892  1.00  0.00     0.171 C 
BRANCH  11  12
HETATM   12  O   LIG     1      -3.649  -0.384  -2.222  1.00  0.00    -0.400 OA
ATOM     13  HO  LIG     1      -3.697  -0.520  -3.161  1.00  0.00     0.209 HD
ENDBRANCH  11  12
ENDBRANCH   5  11
TORSDOF 2
