REMARK  1 active torsions:
REMARK  status: ('A' for Active; 'I' for Inactive)
REMARK    1  A    between atoms: N_1  and  C_2 
ROOT
HETATM    1  C   LIG     1      -0.701  -2.446  -0.019  1.00  0.00     0.038 A 
HETATM    2  C   LIG     1       0.257  -3.462   0.097  1.00  0.00     0.032 A 
HETATM    3  C   LIG     1      -2.040  -2.813  -0.208  1.00  0.00     0.032 A 
HETATM    4  C   LIG     1      -1.440  -5.171  -0.246  1.00  0.00     0.046 A 
HETATM    5  N   LIG     1      -1.825  -6.516  -0.211  1.00  0.00    -0.102 NA
HETATM    6  C   LIG     1      -0.118  -4.809   0.007  1.00  0.00     0.029 A 
HETATM    7  C   LIG     1      -2.403  -4.164  -0.298  1.00  0.00     0.029 A 
ENDROOT
BRANCH   1   8
HETATM    8  N   LIG     1      -0.323  -1.069   0.069  1.00  0.00    -0.333 N 
HETATM    9  C   LIG     1      -1.166   0.028  -0.010  1.00  0.00     0.096 A 
HETATM   10  C   LIG     1      -0.430   1.185   0.118  1.00  0.00     0.019 A 
HETATM   11  C   LIG     1       0.915   0.806   0.279  1.00  0.00     0.019 A 
HETATM   12  C   LIG     1       0.957  -0.571   0.245  1.00  0.00     0.096 A 
ENDBRANCH   1   8
TORSDOF 1
