REMARK  3 active torsions:
REMARK  status: ('A' for Active; 'I' for Inactive)
REMARK    1  A    between atoms: C_3  and  C_7 
REMARK    2  A    between atoms: C_4  and  C_8 
REMARK    3  A    between atoms: C_8  and  O_10 
ROOT
HETATM    1  N   UNK     1      -0.215  -0.910  -0.031  1.00  0.00    -0.336 N 
ATOM      2  HN  UNK     1      -0.419  -1.909  -0.021  1.00  0.00     0.168 HD
HETATM    3  C   UNK     1       0.969  -0.322  -0.022  1.00  0.00     0.158 A 
HETATM    4  C   UNK     1      -1.114   0.140  -0.057  1.00  0.00     0.064 A 
HETATM    5  O   UNK     1       0.907   1.049  -0.022  1.00  0.00    -0.296 OA
HETATM    6  C   UNK     1      -0.427   1.334  -0.037  1.00  0.00     0.076 A 
HETATM    7  C   UNK     1      -0.812   2.755  -0.021  1.00  0.00     0.079 C 
ENDROOT
BRANCH   3   8
HETATM    8  C   UNK     1       2.306  -0.912  -0.019  1.00  0.00     0.015 A 
HETATM    9  C   UNK     1       3.463  -0.116  -0.009  1.00  0.00     0.016 A 
HETATM   10  C   UNK     1       4.734  -0.697  -0.009  1.00  0.00     0.001 A 
HETATM   11  C   UNK     1       4.866  -2.083  -0.019  1.00  0.00     0.000 A 
HETATM   12  C   UNK     1       3.729  -2.889  -0.029  1.00  0.00     0.001 A 
HETATM   13  C   UNK     1       2.458  -2.307  -0.029  1.00  0.00     0.016 A 
ENDBRANCH   3   8
BRANCH   4  14
HETATM   14  C   UNK     1      -2.576  -0.110  -0.071  1.00  0.00     0.223 C 
BRANCH  14  15
HETATM   15  O   UNK     1      -2.985  -0.862   1.068  1.00  0.00    -0.395 OA
ATOM     16  HO  UNK     1      -3.921  -1.022   1.059  1.00  0.00     0.209 HD
ENDBRANCH  14  15
ENDBRANCH   4  14
TORSDOF 3
