REMARK  3 active torsions:
REMARK  status: ('A' for Active; 'I' for Inactive)
REMARK    1  A    between atoms: C_3  and  C_7 
REMARK    2  A    between atoms: C_4  and  C_8 
REMARK    3  A    between atoms: C_8  and  N_9 
ROOT
HETATM    1  N   LIG     1      -0.059  -0.757   0.058  1.00  0.00    -0.336 N 
ATOM      2  HN  LIG     1      -0.206  -1.764   0.127  1.00  0.00     0.168 HD
HETATM    3  C   LIG     1       1.089  -0.107  -0.000  1.00  0.00     0.158 A 
HETATM    4  C   LIG     1      -1.016   0.239   0.004  1.00  0.00     0.066 A 
HETATM    5  O   LIG     1       0.955   1.255  -0.084  1.00  0.00    -0.296 OA
HETATM    6  C   LIG     1      -0.393   1.466  -0.075  1.00  0.00     0.075 A 
HETATM    7  C   LIG     1      -0.861   2.861  -0.136  1.00  0.00     0.079 C 
ENDROOT
BRANCH   3   8
HETATM    8  C   LIG     1       2.453  -0.632   0.004  1.00  0.00     0.015 A 
HETATM    9  C   LIG     1       2.666  -2.016   0.096  1.00  0.00     0.016 A 
HETATM   10  C   LIG     1       3.960  -2.544   0.098  1.00  0.00     0.001 A 
HETATM   11  C   LIG     1       5.060  -1.694   0.008  1.00  0.00     0.000 A 
HETATM   12  C   LIG     1       4.867  -0.317  -0.085  1.00  0.00     0.001 A 
HETATM   13  C   LIG     1       3.573   0.210  -0.087  1.00  0.00     0.016 A 
ENDBRANCH   3   8
BRANCH   4  14
HETATM   14  C   LIG     1      -2.467  -0.081   0.042  1.00  0.00     0.288 C 
BRANCH  14  15
HETATM   15  N   LIG     1      -2.920  -0.066   1.430  1.00  0.00    -0.074 N 
ATOM     16  HN3 LIG     1      -2.370  -0.685   2.025  1.00  0.00     0.274 HD
ATOM     17  HN2 LIG     1      -2.703   0.813   1.900  1.00  0.00     0.274 HD
ATOM     18  HN1 LIG     1      -3.916  -0.286   1.456  1.00  0.00     0.274 HD
ENDBRANCH  14  15
ENDBRANCH   4  14
TORSDOF 3
