REMARK  2 active torsions:
REMARK  status: ('A' for Active; 'I' for Inactive)
REMARK    1  A    between atoms: C_3  and  C_7 
REMARK    2  A    between atoms: C_7  and  O_10 
ROOT
HETATM    1  N   UNK     1      -0.142  -1.140  -0.278  1.00  0.00    -0.340 N 
ATOM      2  HN  UNK     1      -0.365  -2.120  -0.454  1.00  0.00     0.167 HD
HETATM    3  C   UNK     1       1.106  -0.559  -0.150  1.00  0.00     0.064 A 
HETATM    4  C   UNK     1       0.964   0.792   0.084  1.00  0.00     0.076 A 
HETATM    5  C   UNK     1      -0.976  -0.132  -0.120  1.00  0.00     0.120 A 
HETATM    6  O   UNK     1      -0.373   1.074   0.104  1.00  0.00    -0.301 OA
HETATM    7  C   UNK     1       1.887   1.919   0.295  1.00  0.00     0.079 C 
HETATM    8  C   UNK     1      -2.451  -0.132  -0.153  1.00  0.00     0.098 C 
ENDROOT
BRANCH   3   9
HETATM    9  C   UNK     1       2.335  -1.385  -0.269  1.00  0.00     0.223 C 
BRANCH   9  10
HETATM   10  O   UNK     1       2.100  -2.569  -1.030  1.00  0.00    -0.395 OA
ATOM     11  HO  UNK     1       2.886  -3.097  -1.106  1.00  0.00     0.209 HD
ENDBRANCH   9  10
ENDBRANCH   3   9
TORSDOF 2
