REMARK  1 active torsions:
REMARK  status: ('A' for Active; 'I' for Inactive)
REMARK    1  A    between atoms: C_2  and  C_4 
ROOT
HETATM    1  C   LIG     1      -0.450   0.432  -0.068  1.00  0.00     0.093 A 
HETATM    2  C   LIG     1       0.502   1.436   0.038  1.00  0.00     0.074 A 
HETATM    3  O   LIG     1      -1.800   0.609  -0.238  1.00  0.00    -0.339 OA
HETATM    4  C   LIG     1      -0.085  -0.909  -0.049  1.00  0.00    -0.021 A 
HETATM    5  C   LIG     1      -2.393  -0.708  -0.080  1.00  0.00     0.064 C 
HETATM    6  C   LIG     1      -1.281  -1.765  -0.237  1.00  0.00     0.079 C 
HETATM    7  C   LIG     1       1.849   1.052   0.155  1.00  0.00     0.021 A 
HETATM    8  C   LIG     1       1.240  -1.297   0.069  1.00  0.00     0.010 A 
HETATM    9  C   LIG     1       2.213  -0.304   0.174  1.00  0.00     0.002 A 
HETATM   10  C   LIG     1      -3.463  -0.866  -1.161  1.00  0.00     0.046 C 
HETATM   11  C   LIG     1      -3.042  -0.767   1.309  1.00  0.00     0.046 C 
ENDROOT
BRANCH   2  12
HETATM   12  C   LIG     1       0.197   2.883   0.026  1.00  0.00     0.212 C 
HETATM   13  O   LIG     1       1.009   3.765  -0.195  1.00  0.00    -0.644 OA
HETATM   14  O   LIG     1      -1.069   3.180   0.359  1.00  0.00    -0.644 OA
ENDBRANCH   2  12
TORSDOF 1
