REMARK  1 active torsions:
REMARK  status: ('A' for Active; 'I' for Inactive)
REMARK    1  A    between atoms: C_1  and  C_4 
ROOT
HETATM    1  C   LIG     1       1.608  -1.175   0.067  1.00  0.00     0.076 A 
HETATM    2  C   LIG     1       2.334   0.000   0.086  1.00  0.00     0.162 A 
HETATM    3  C   LIG     1       0.236  -0.777   0.025  1.00  0.00     0.017 A 
HETATM    4  O   LIG     1       1.517   1.083   0.060  1.00  0.00    -0.321 OA
HETATM    5  C   LIG     1       0.241   0.614   0.023  1.00  0.00     0.086 A 
HETATM    6  C   LIG     1      -1.008  -1.437  -0.010  1.00  0.00     0.015 A 
HETATM    7  C   LIG     1      -0.907   1.402  -0.013  1.00  0.00     0.038 A 
HETATM    8  C   LIG     1      -2.182  -0.671  -0.046  1.00  0.00     0.001 A 
HETATM    9  C   LIG     1      -2.130   0.725  -0.047  1.00  0.00     0.003 A 
ENDROOT
BRANCH   1  10
HETATM   10  C   LIG     1       2.156  -2.508   0.086  1.00  0.00     0.212 C 
HETATM   11  O   LIG     1       1.511  -3.546   0.068  1.00  0.00    -0.644 OA
HETATM   12  O   LIG     1       3.507  -2.558   0.128  1.00  0.00    -0.644 OA
ENDBRANCH   1  10
TORSDOF 1
