REMARK  2 active torsions:
REMARK  status: ('A' for Active; 'I' for Inactive)
REMARK    1  A    between atoms: C_5  and  C_8 
REMARK    2  A    between atoms: C_8  and  O_9 
ROOT
HETATM    1  C   LIG     1      -0.413   0.411  -0.073  1.00  0.00     0.084 A 
HETATM    2  O   LIG     1      -1.760   0.623  -0.224  1.00  0.00    -0.340 OA
HETATM    3  C   LIG     1      -0.066  -0.931  -0.053  1.00  0.00    -0.021 A 
HETATM    4  C   LIG     1      -2.372  -0.691  -0.091  1.00  0.00     0.064 C 
HETATM    5  C   LIG     1       0.532   1.418   0.040  1.00  0.00    -0.001 A 
HETATM    6  C   LIG     1      -1.274  -1.766  -0.249  1.00  0.00     0.079 C 
HETATM    7  C   LIG     1       1.253  -1.327   0.078  1.00  0.00     0.010 A 
HETATM    8  C   LIG     1       1.873   1.022   0.175  1.00  0.00     0.012 A 
HETATM    9  C   LIG     1      -3.432  -0.819  -1.186  1.00  0.00     0.046 C 
HETATM   10  C   LIG     1      -3.037  -0.758   1.290  1.00  0.00     0.046 C 
HETATM   11  C   LIG     1       2.229  -0.337   0.197  1.00  0.00     0.001 A 
ENDROOT
BRANCH   5  12
HETATM   12  C   LIG     1       0.161   2.871  -0.004  1.00  0.00     0.205 C 
BRANCH  12  13
HETATM   13  O   LIG     1       0.679   3.553   1.134  1.00  0.00    -0.396 OA
ATOM     14  HO  LIG     1       0.444   4.473   1.106  1.00  0.00     0.209 HD
ENDBRANCH  12  13
ENDBRANCH   5  12
TORSDOF 2
