REMARK  0 active torsions:
REMARK  status: ('A' for Active; 'I' for Inactive)
ROOT
HETATM    1  C   LIG     1      -0.208  -0.764  -0.014  1.00  0.00     0.100 A 
HETATM    2  O   LIG     1      -1.330  -1.555  -0.035  1.00  0.00    -0.338 OA
HETATM    3  C   LIG     1      -0.478   0.593   0.024  1.00  0.00    -0.020 A 
HETATM    4  C   LIG     1      -2.457  -0.637   0.019  1.00  0.00     0.064 A 
HETATM    5  C   LIG     1      -1.939   0.821   0.010  1.00  0.00     0.079 A 
HETATM    6  C   LIG     1       1.088  -1.266  -0.008  1.00  0.00     0.080 A 
HETATM    7  N   LIG     1       1.339  -2.632  -0.187  1.00  0.00    -0.100 NA
HETATM    8  C   LIG     1       0.549   1.519   0.041  1.00  0.00     0.010 A 
HETATM    9  C   LIG     1      -3.335  -0.922  -1.202  1.00  0.00     0.046 C 
HETATM   10  C   LIG     1      -3.234  -0.942   1.304  1.00  0.00     0.046 C 
HETATM   11  C   LIG     1       1.863   1.047  -0.000  1.00  0.00     0.003 A 
HETATM   12  C   LIG     1       2.128  -0.333  -0.046  1.00  0.00     0.029 A 
ENDROOT
TORSDOF 0
