REMARK  3 active torsions:
REMARK  status: ('A' for Active; 'I' for Inactive)
REMARK    1  A    between atoms: C_3  and  C_7 
REMARK    2  A    between atoms: C_4  and  C_8 
REMARK    3  A    between atoms: C_8  and  O_10 
ROOT
HETATM    1  N   LIG     1      -0.533   0.877  -0.199  1.00  0.00    -0.309 N 
ATOM      2  HN  LIG     1      -1.083   1.734  -0.262  1.00  0.00     0.186 HD
HETATM    3  C   LIG     1       1.239  -0.572  -0.211  1.00  0.00     0.070 A 
HETATM    4  C   LIG     1       0.093  -1.293   0.129  1.00  0.00     0.011 A 
HETATM    5  N   LIG     1       0.784   0.717  -0.430  1.00  0.00    -0.296 N 
HETATM    6  C   LIG     1      -0.950  -0.343   0.130  1.00  0.00     0.119 A 
HETATM    7  C   LIG     1       1.527   1.866  -0.896  1.00  0.00     0.178 C 
ENDROOT
BRANCH   3   8
HETATM    8  C   LIG     1       2.635  -1.017  -0.352  1.00  0.00    -0.007 A 
HETATM    9  C   LIG     1       2.933  -2.242  -0.965  1.00  0.00     0.014 A 
HETATM   10  C   LIG     1       4.253  -2.690  -1.082  1.00  0.00     0.001 A 
HETATM   11  C   LIG     1       5.300  -1.909  -0.604  1.00  0.00     0.000 A 
HETATM   12  C   LIG     1       5.026  -0.688   0.007  1.00  0.00     0.001 A 
HETATM   13  C   LIG     1       3.703  -0.255   0.146  1.00  0.00     0.014 A 
ENDBRANCH   3   8
BRANCH   4  14
HETATM   14  C   LIG     1      -0.063  -2.735   0.451  1.00  0.00     0.206 C 
BRANCH  14  15
HETATM   15  O   LIG     1      -0.329  -3.506  -0.718  1.00  0.00    -0.396 OA
ATOM     16  HO  LIG     1      -0.429  -4.428  -0.512  1.00  0.00     0.209 HD
ENDBRANCH  14  15
ENDBRANCH   4  14
TORSDOF 3
