REMARK  2 active torsions:
REMARK  status: ('A' for Active; 'I' for Inactive)
REMARK    1  A    between atoms: C_9  and  C_14 
REMARK    2  A    between atoms: O_12  and  C_14 
ROOT
HETATM    1  N   LIG     1       1.192   1.360  -0.118  1.00  0.00    -0.359 N 
ATOM      2  HN  LIG     1       1.169   2.377  -0.194  1.00  0.00     0.166 HD
HETATM    3  C   LIG     1       0.051   0.649  -0.084  1.00  0.00     0.042 A 
HETATM    4  C   LIG     1       0.039  -0.756   0.021  1.00  0.00    -0.009 A 
HETATM    5  C   LIG     1      -1.181  -1.456   0.055  1.00  0.00     0.023 A 
HETATM    6  C   LIG     1      -1.168   1.310  -0.150  1.00  0.00     0.031 A 
HETATM    7  C   LIG     1       2.372   0.698  -0.049  1.00  0.00     0.005 A 
HETATM    8  C   LIG     1       1.271  -1.417   0.094  1.00  0.00     0.015 A 
HETATM    9  C   LIG     1      -2.401  -0.773  -0.023  1.00  0.00    -0.034 A 
HETATM   10  C   LIG     1       2.452  -0.684   0.058  1.00  0.00     0.025 A 
HETATM   11  C   LIG     1      -2.385   0.620  -0.117  1.00  0.00     0.011 A 
HETATM   12  C   LIG     1       3.623   1.523  -0.087  1.00  0.00     0.068 C 
ENDROOT
BRANCH   9  13
HETATM   13  C   LIG     1      -3.700  -1.530   0.040  1.00  0.00     0.202 C 
BRANCH  13  14
HETATM   14  O   LIG     1      -3.970  -1.945   1.372  1.00  0.00    -0.396 OA
ATOM     15  HO  LIG     1      -4.790  -2.423   1.412  1.00  0.00     0.209 HD
ENDBRANCH  13  14
ENDBRANCH   9  13
TORSDOF 2
