REMARK  2 active torsions:
REMARK  status: ('A' for Active; 'I' for Inactive)
REMARK    1  A    between atoms: C_7  and  C_11 
REMARK    2  A    between atoms: O_8  and  C_11 
ROOT
HETATM    1  C   LIG     1      -0.304   0.704  -0.019  1.00  0.00     0.000 A 
HETATM    2  N   LIG     1      -1.578  -1.131   0.005  1.00  0.00    -0.365 N 
ATOM      3  HN  LIG     1      -1.864  -2.110   0.006  1.00  0.00     0.165 HD
HETATM    4  C   LIG     1      -2.436  -0.066   0.026  1.00  0.00     0.089 A 
HETATM    5  C   LIG     1      -0.273  -0.692  -0.017  1.00  0.00     0.043 A 
HETATM    6  C   LIG     1      -1.678   1.082   0.013  1.00  0.00     0.031 A 
HETATM    7  C   LIG     1       0.917   1.423  -0.043  1.00  0.00    -0.022 A 
HETATM    8  C   LIG     1       2.115  -0.713  -0.043  1.00  0.00     0.003 A 
HETATM    9  C   LIG     1       0.917  -1.427  -0.032  1.00  0.00     0.030 A 
HETATM   10  C   LIG     1       2.117   0.681  -0.044  1.00  0.00     0.010 A 
ENDROOT
BRANCH   7  11
HETATM   11  C   LIG     1       0.992   2.928  -0.023  1.00  0.00     0.203 C 
BRANCH  11  12
HETATM   12  O   LIG     1       1.279   3.394   1.290  1.00  0.00    -0.396 OA
ATOM     13  HO  LIG     1       1.326   4.343   1.303  1.00  0.00     0.209 HD
ENDBRANCH  11  12
ENDBRANCH   7  11
TORSDOF 2
