REMARK  1 active torsions:
REMARK  status: ('A' for Active; 'I' for Inactive)
REMARK    1  A    between atoms: C_3  and  C_4 
ROOT
HETATM    1  N   LIG     1      -1.185  -1.387  -0.096  1.00  0.00    -0.359 N 
ATOM      2  HN  LIG     1      -1.164  -2.403  -0.181  1.00  0.00     0.166 HD
HETATM    3  C   LIG     1       2.404   0.737  -0.022  1.00  0.00     0.041 A 
HETATM    4  C   LIG     1      -0.043  -0.678  -0.070  1.00  0.00     0.042 A 
HETATM    5  C   LIG     1       1.192   1.428   0.071  1.00  0.00     0.032 A 
HETATM    6  C   LIG     1      -0.028   0.727   0.047  1.00  0.00    -0.008 A 
HETATM    7  C   LIG     1       2.391  -0.654  -0.138  1.00  0.00     0.021 A 
HETATM    8  C   LIG     1       1.172  -1.342  -0.160  1.00  0.00     0.031 A 
HETATM    9  C   LIG     1      -2.364  -0.725  -0.007  1.00  0.00     0.005 A 
HETATM   10  C   LIG     1      -1.258   1.388   0.139  1.00  0.00     0.015 A 
HETATM   11  C   LIG     1      -2.440   0.656   0.112  1.00  0.00     0.025 A 
HETATM   12  C   LIG     1      -3.616  -1.548  -0.037  1.00  0.00     0.068 C 
ENDROOT
BRANCH   3  13
HETATM   13  C   LIG     1       3.713   1.432  -0.002  1.00  0.00     0.209 C 
HETATM   14  O   LIG     1       4.804   0.898  -0.077  1.00  0.00    -0.644 OA
HETATM   15  O   LIG     1       3.594   2.766   0.112  1.00  0.00    -0.644 OA
ENDBRANCH   3  13
TORSDOF 1
