REMARK  2 active torsions:
REMARK  status: ('A' for Active; 'I' for Inactive)
REMARK    1  A    between atoms: N_1  and  C_3 
REMARK    2  A    between atoms: C_3  and  C_4 
ROOT
HETATM    1  C   LIG     1       0.326   0.395  -3.177  1.00  0.00    -0.030 A 
HETATM    2  C   LIG     1      -0.388  -0.351  -5.805  1.00  0.00     0.046 A 
HETATM    3  N   LIG     1      -0.889  -0.763  -7.047  1.00  0.00    -0.102 NA
HETATM    4  C   LIG     1      -0.646   0.937  -5.337  1.00  0.00     0.027 A 
HETATM    5  C   LIG     1       0.164  -1.285  -4.924  1.00  0.00     0.027 A 
HETATM    6  C   LIG     1      -0.273   1.318  -4.044  1.00  0.00     0.011 A 
HETATM    7  C   LIG     1       0.541  -0.912  -3.631  1.00  0.00     0.011 A 
ENDROOT
BRANCH   1   8
HETATM    8  C   LIG     1       0.693   0.796  -1.763  1.00  0.00     0.311 C 
BRANCH   8   9
HETATM    9  N   LIG     1       0.001   0.011  -0.724  1.00  0.00     0.096 N 
HETATM   10  C   LIG     1      -1.474   0.128  -0.788  1.00  0.00     0.299 C 
HETATM   11  C   LIG     1      -2.007   1.502  -0.354  1.00  0.00     0.198 C 
HETATM   12  O   LIG     1      -1.573   1.830   0.972  1.00  0.00    -0.388 OA
HETATM   13  C   LIG     1      -0.144   1.796   1.070  1.00  0.00     0.198 C 
HETATM   14  C   LIG     1       0.427   0.435   0.630  1.00  0.00     0.299 C 
ENDBRANCH   8   9
ENDBRANCH   1   8
TORSDOF 2
