REMARK  3 active torsions:
REMARK  status: ('A' for Active; 'I' for Inactive)
REMARK    1  A    between atoms: C_1  and  C_3 
REMARK    2  A    between atoms: N_2  and  C_6 
REMARK    3  A    between atoms: C_6  and  C_10 
ROOT
HETATM    1  C   LIG     1      -0.414   0.818   1.252  1.00  0.00     0.040 A 
HETATM    2  C   LIG     1      -1.722   0.938   0.768  1.00  0.00     0.019 A 
HETATM    3  C   LIG     1       0.456   1.912   1.187  1.00  0.00     0.019 A 
HETATM    4  C   LIG     1      -1.265   3.223   0.077  1.00  0.00    -0.030 A 
HETATM    5  C   LIG     1       0.032   3.108   0.604  1.00  0.00     0.010 A 
HETATM    6  C   LIG     1      -2.139   2.131   0.174  1.00  0.00     0.010 A 
ENDROOT
BRANCH   4   7
HETATM    7  C   LIG     1      -1.721   4.519  -0.562  1.00  0.00     0.311 C 
BRANCH   7   8
HETATM    8  N   LIG     1      -2.137   4.384  -1.971  1.00  0.00     0.096 N 
HETATM    9  C   LIG     1      -1.063   3.890  -2.863  1.00  0.00     0.299 C 
HETATM   10  C   LIG     1       0.068   4.903  -3.100  1.00  0.00     0.198 C 
HETATM   11  O   LIG     1      -0.442   6.135  -3.626  1.00  0.00    -0.388 OA
HETATM   12  C   LIG     1      -1.441   6.691  -2.764  1.00  0.00     0.198 C 
HETATM   13  C   LIG     1      -2.587   5.693  -2.506  1.00  0.00     0.299 C 
ENDBRANCH   7   8
ENDBRANCH   4   7
BRANCH   1  14
HETATM   14  C   LIG     1       0.075  -0.439   1.867  1.00  0.00     0.209 C 
HETATM   15  O   LIG     1       0.891  -0.466   2.774  1.00  0.00    -0.644 OA
HETATM   16  O   LIG     1      -0.427  -1.551   1.290  1.00  0.00    -0.644 OA
ENDBRANCH   1  14
TORSDOF 3
