REMARK  1 active torsions:
REMARK  status: ('A' for Active; 'I' for Inactive)
REMARK    1  A    between atoms: C_2  and  O_5 
ROOT
HETATM    1  O   LIG     1       0.684   1.166  -0.249  1.00  0.00    -0.391 OA
HETATM    2  C   LIG     1      -0.744  -1.266   0.221  1.00  0.00     0.122 C 
HETATM    3  C   LIG     1       0.716  -1.258  -0.219  1.00  0.00     0.058 C 
HETATM    4  C   LIG     1      -1.447   0.014  -0.219  1.00  0.00     0.058 C 
HETATM    5  C   LIG     1       1.392   0.025   0.238  1.00  0.00     0.170 C 
HETATM    6  C   LIG     1      -0.655   1.227   0.242  1.00  0.00     0.170 C 
ENDROOT
BRANCH   2   7
HETATM    7  O   LIG     1      -1.412  -2.402  -0.316  1.00  0.00    -0.395 OA
ATOM      8  HO  LIG     1      -2.322  -2.407  -0.042  1.00  0.00     0.210 HD
ENDBRANCH   2   7
TORSDOF 1
