REMARK  2 active torsions:
REMARK  status: ('A' for Active; 'I' for Inactive)
REMARK    1  A    between atoms: C_6  and  C_9 
REMARK    2  A    between atoms: C_9  and  O_10 
ROOT
HETATM    1  N   LIG     1      -1.224   1.565   0.318  1.00  0.00    -0.380 N 
HETATM    2  O   LIG     1      -1.184  -1.333  -0.017  1.00  0.00    -0.340 OA
HETATM    3  C   LIG     1      -0.022   0.834   0.193  1.00  0.00     0.063 A 
HETATM    4  C   LIG     1      -0.035  -0.573   0.033  1.00  0.00     0.096 A 
HETATM    5  C   LIG     1      -2.378   0.798  -0.173  1.00  0.00     0.157 C 
HETATM    6  C   LIG     1      -2.359  -0.621   0.398  1.00  0.00     0.170 C 
HETATM    7  C   LIG     1      -1.212   2.980  -0.039  1.00  0.00     0.150 C 
HETATM    8  C   LIG     1       1.149  -1.306  -0.101  1.00  0.00     0.039 A 
HETATM    9  C   LIG     1       1.238   1.449   0.273  1.00  0.00     0.032 A 
HETATM   10  C   LIG     1       2.380  -0.662  -0.045  1.00  0.00     0.003 A 
HETATM   11  C   LIG     1       2.424   0.714   0.150  1.00  0.00     0.002 A 
ENDROOT
BRANCH   6  12
HETATM   12  C   LIG     1      -2.512  -0.689   1.924  1.00  0.00     0.198 C 
BRANCH  12  13
HETATM   13  O   LIG     1      -3.660   0.020   2.381  1.00  0.00    -0.398 OA
ATOM     14  HO  LIG     1      -3.755  -0.022   3.325  1.00  0.00     0.209 HD
ENDBRANCH  12  13
ENDBRANCH   6  12
TORSDOF 2
