REMARK  3 active torsions:
REMARK  status: ('A' for Active; 'I' for Inactive)
REMARK    1  A    between atoms: C_3  and  C_7 
REMARK    2  A    between atoms: C_5  and  C_8 
REMARK    3  A    between atoms: C_8  and  N_9 
ROOT
HETATM    1  N   LIG     1       0.013  -0.856  -0.040  1.00  0.00    -0.353 N 
ATOM      2  HN  LIG     1      -0.190  -1.855  -0.073  1.00  0.00     0.166 HD
HETATM    3  C   LIG     1       1.229  -0.341  -0.019  1.00  0.00     0.085 A 
HETATM    4  S   LIG     1       1.259   1.381   0.024  1.00  0.00    -0.072 SA
HETATM    5  C   LIG     1      -0.452   1.430   0.031  1.00  0.00     0.032 A 
HETATM    6  C   LIG     1      -0.951   0.140  -0.012  1.00  0.00     0.021 A 
HETATM    7  C   LIG     1      -2.383  -0.261  -0.025  1.00  0.00     0.069 C 
ENDROOT
BRANCH   3   8
HETATM    8  C   LIG     1       2.469  -1.144  -0.031  1.00  0.00    -0.002 A 
HETATM    9  C   LIG     1       3.755  -0.579   0.016  1.00  0.00     0.014 A 
HETATM   10  C   LIG     1       4.898  -1.381  -0.006  1.00  0.00     0.001 A 
HETATM   11  C   LIG     1       4.780  -2.766  -0.074  1.00  0.00     0.000 A 
HETATM   12  C   LIG     1       3.518  -3.350  -0.114  1.00  0.00     0.001 A 
HETATM   13  C   LIG     1       2.375  -2.545  -0.092  1.00  0.00     0.014 A 
ENDBRANCH   3   8
BRANCH   5  14
HETATM   14  C   LIG     1      -1.173   2.739   0.096  1.00  0.00     0.279 C 
BRANCH  14  15
HETATM   15  N   LIG     1      -2.026   2.909  -1.080  1.00  0.00    -0.075 N 
HETATM   16  C   LIG     1      -2.731   4.181  -1.034  1.00  0.00     0.267 C 
ATOM     17  HN2 LIG     1      -1.498   2.803  -1.946  1.00  0.00     0.277 HD
ATOM     18  HN1 LIG     1      -2.670   2.126  -1.194  1.00  0.00     0.277 HD
ENDBRANCH  14  15
ENDBRANCH   5  14
TORSDOF 3
