REMARK  4 active torsions:
REMARK  status: ('A' for Active; 'I' for Inactive)
REMARK    1  A    between atoms: N_1  and  C_3 
REMARK    2  A    between atoms: C_3  and  C_4 
REMARK    3  A    between atoms: C_5  and  C_16 
REMARK    4  A    between atoms: O_12  and  C_16 
ROOT
HETATM    1  C   LIG     1       0.469  -0.038  -2.809  1.00  0.00    -0.030 A 
HETATM    2  C   LIG     1      -0.150  -1.324  -5.245  1.00  0.00    -0.035 A 
HETATM    3  C   LIG     1       0.491  -1.436  -2.902  1.00  0.00     0.009 A 
HETATM    4  C   LIG     1       0.127   0.708  -3.945  1.00  0.00     0.009 A 
HETATM    5  C   LIG     1      -0.188   0.072  -5.149  1.00  0.00     0.010 A 
HETATM    6  C   LIG     1       0.178  -2.072  -4.107  1.00  0.00     0.010 A 
ENDROOT
BRANCH   1   7
HETATM    7  C   LIG     1       0.821   0.663  -1.511  1.00  0.00     0.311 C 
BRANCH   7   8
HETATM    8  N   LIG     1      -0.037   0.292  -0.373  1.00  0.00     0.096 N 
HETATM    9  C   LIG     1      -1.468   0.605  -0.587  1.00  0.00     0.299 C 
HETATM   10  C   LIG     1      -1.798   2.105  -0.527  1.00  0.00     0.198 C 
HETATM   11  O   LIG     1      -1.378   2.677   0.718  1.00  0.00    -0.388 OA
HETATM   12  C   LIG     1       0.024   2.475   0.924  1.00  0.00     0.198 C 
HETATM   13  C   LIG     1       0.399   0.981   0.864  1.00  0.00     0.299 C 
ENDBRANCH   7   8
ENDBRANCH   1   7
BRANCH   2  14
HETATM   14  C   LIG     1      -0.494  -2.006  -6.542  1.00  0.00     0.202 C 
BRANCH  14  15
HETATM   15  O   LIG     1      -1.886  -2.275  -6.621  1.00  0.00    -0.396 OA
ATOM     16  HO  LIG     1      -2.103  -2.705  -7.440  1.00  0.00     0.209 HD
ENDBRANCH  14  15
ENDBRANCH   2  14
TORSDOF 4
