REMARK  2 active torsions:
REMARK  status: ('A' for Active; 'I' for Inactive)
REMARK    1  A    between atoms: C_6  and  C_12 
REMARK    2  A    between atoms: N_8  and  C_12 
ROOT
HETATM    1  N   LIG     1      -1.162   1.552  -0.294  1.00  0.00    -0.380 N 
HETATM    2  O   LIG     1      -1.156  -1.335   0.099  1.00  0.00    -0.340 OA
HETATM    3  C   LIG     1       0.020   0.809  -0.153  1.00  0.00     0.063 A 
HETATM    4  C   LIG     1      -0.001  -0.594  -0.004  1.00  0.00     0.096 A 
HETATM    5  C   LIG     1      -2.365   0.726  -0.451  1.00  0.00     0.156 C 
HETATM    6  C   LIG     1      -2.320  -0.543   0.404  1.00  0.00     0.172 C 
HETATM    7  C   LIG     1      -1.278   2.802   0.444  1.00  0.00     0.150 C 
HETATM    8  C   LIG     1       1.181  -1.337   0.071  1.00  0.00     0.039 A 
HETATM    9  C   LIG     1       1.278   1.429  -0.201  1.00  0.00     0.032 A 
HETATM   10  C   LIG     1       2.414  -0.695   0.022  1.00  0.00     0.003 A 
HETATM   11  C   LIG     1       2.463   0.689  -0.111  1.00  0.00     0.002 A 
ENDROOT
BRANCH   6  12
HETATM   12  C   LIG     1      -2.420  -0.319   1.927  1.00  0.00     0.263 C 
BRANCH  12  13
HETATM   13  N   LIG     1      -3.663   0.327   2.365  1.00  0.00    -0.077 N 
ATOM     14  HN3 LIG     1      -3.802   1.206   1.866  1.00  0.00     0.274 HD
ATOM     15  HN2 LIG     1      -4.472  -0.194   2.028  1.00  0.00     0.274 HD
ATOM     16  HN1 LIG     1      -3.729   0.475   3.372  1.00  0.00     0.274 HD
ENDBRANCH  12  13
ENDBRANCH   6  12
TORSDOF 2
