REMARK  2 active torsions:
REMARK  status: ('A' for Active; 'I' for Inactive)
REMARK    1  A    between atoms: O_2  and  C_7 
REMARK    2  A    between atoms: C_4  and  C_7 
ROOT
HETATM    1  O   LIG     1       0.695   1.193  -0.243  1.00  0.00    -0.391 OA
HETATM    2  C   LIG     1      -0.753  -1.257   0.220  1.00  0.00     0.013 C 
HETATM    3  C   LIG     1       1.393   0.054   0.256  1.00  0.00     0.168 C 
HETATM    4  C   LIG     1      -0.647   1.258   0.239  1.00  0.00     0.168 C 
HETATM    5  C   LIG     1      -1.444   0.043  -0.217  1.00  0.00     0.033 C 
HETATM    6  C   LIG     1       0.720  -1.232  -0.204  1.00  0.00     0.033 C 
ENDROOT
BRANCH   2   7
HETATM    7  C   LIG     1      -1.462  -2.490  -0.344  1.00  0.00     0.168 C 
BRANCH   7   8
HETATM    8  O   LIG     1      -2.798  -2.560   0.137  1.00  0.00    -0.400 OA
ATOM      9  HO  LIG     1      -3.238  -3.326  -0.213  1.00  0.00     0.209 HD
ENDBRANCH   7   8
ENDBRANCH   2   7
TORSDOF 2
