REMARK  2 active torsions:
REMARK  status: ('A' for Active; 'I' for Inactive)
REMARK    1  A    between atoms: C_6  and  C_11 
REMARK    2  A    between atoms: O_8  and  C_11 
ROOT
HETATM    1  O   LIG     1      -1.168   1.331  -0.099  1.00  0.00    -0.340 OA
HETATM    2  N   LIG     1      -1.097  -1.559   0.369  1.00  0.00    -0.385 N 
ATOM      3  HN  LIG     1      -1.090  -2.579   0.364  1.00  0.00     0.159 HD
HETATM    4  C   LIG     1       0.006   0.623   0.005  1.00  0.00     0.095 A 
HETATM    5  C   LIG     1       0.058  -0.768   0.203  1.00  0.00     0.061 A 
HETATM    6  C   LIG     1      -2.318   0.499  -0.332  1.00  0.00     0.170 C 
HETATM    7  C   LIG     1      -2.310  -0.755   0.549  1.00  0.00     0.154 C 
HETATM    8  C   LIG     1       1.179   1.369  -0.118  1.00  0.00     0.039 A 
HETATM    9  C   LIG     1       1.308  -1.395   0.224  1.00  0.00     0.032 A 
HETATM   10  C   LIG     1       2.418   0.732  -0.078  1.00  0.00     0.003 A 
HETATM   11  C   LIG     1       2.482  -0.651   0.086  1.00  0.00     0.002 A 
ENDROOT
BRANCH   6  12
HETATM   12  C   LIG     1      -2.471   0.205  -1.830  1.00  0.00     0.198 C 
BRANCH  12  13
HETATM   13  O   LIG     1      -3.690  -0.482  -2.095  1.00  0.00    -0.398 OA
ATOM     14  HO  LIG     1      -3.785  -0.664  -3.023  1.00  0.00     0.209 HD
ENDBRANCH  12  13
ENDBRANCH   6  12
TORSDOF 2
