REMARK  3 active torsions:
REMARK  status: ('A' for Active; 'I' for Inactive)
REMARK    1  A    between atoms: C_3  and  C_7 
REMARK    2  A    between atoms: C_5  and  C_8 
REMARK    3  A    between atoms: C_8  and  O_10 
ROOT
HETATM    1  N   LIG     1       0.302  -0.671  -0.029  1.00  0.00    -0.353 N 
ATOM      2  HN  LIG     1       0.302  -1.689  -0.094  1.00  0.00     0.166 HD
HETATM    3  C   LIG     1       1.392   0.071   0.044  1.00  0.00     0.085 A 
HETATM    4  S   LIG     1       1.075   1.764   0.141  1.00  0.00    -0.072 SA
HETATM    5  C   LIG     1      -0.609   1.472   0.083  1.00  0.00     0.030 A 
HETATM    6  C   LIG     1      -0.842   0.111  -0.006  1.00  0.00     0.021 A 
HETATM    7  C   LIG     1      -2.166  -0.561  -0.086  1.00  0.00     0.069 C 
ENDROOT
BRANCH   3   8
HETATM    8  C   LIG     1       2.767  -0.473   0.040  1.00  0.00    -0.002 A 
HETATM    9  C   LIG     1       3.919   0.328   0.119  1.00  0.00     0.014 A 
HETATM   10  C   LIG     1       5.198  -0.241   0.110  1.00  0.00     0.001 A 
HETATM   11  C   LIG     1       5.348  -1.622   0.023  1.00  0.00     0.000 A 
HETATM   12  C   LIG     1       4.223  -2.436  -0.056  1.00  0.00     0.001 A 
HETATM   13  C   LIG     1       2.946  -1.866  -0.047  1.00  0.00     0.014 A 
ENDBRANCH   3   8
BRANCH   5  14
HETATM   14  C   LIG     1      -1.580   2.598   0.138  1.00  0.00     0.212 C 
BRANCH  14  15
HETATM   15  O   LIG     1      -2.344   2.570  -1.060  1.00  0.00    -0.396 OA
ATOM     16  HO  LIG     1      -2.964   3.289  -1.025  1.00  0.00     0.209 HD
ENDBRANCH  14  15
ENDBRANCH   5  14
TORSDOF 3
