REMARK  1 active torsions:
REMARK  status: ('A' for Active; 'I' for Inactive)
REMARK    1  A    between atoms: C_1  and  C_4 
ROOT
HETATM    1  O   LIG     1      -2.138  -1.643   0.215  1.00  0.00    -0.391 OA
HETATM    2  C   LIG     1       0.277  -0.640  -1.002  1.00  0.00     0.091 C 
HETATM    3  C   LIG     1      -1.953  -0.234   0.105  1.00  0.00     0.168 C 
HETATM    4  C   LIG     1      -0.912  -2.329   0.464  1.00  0.00     0.168 C 
HETATM    5  C   LIG     1      -1.064   0.093  -1.088  1.00  0.00     0.041 C 
HETATM    6  C   LIG     1       0.060  -2.126  -0.693  1.00  0.00     0.041 C 
ENDROOT
BRANCH   2   7
HETATM    7  C   LIG     1       1.190   0.005   0.020  1.00  0.00     0.177 C 
HETATM    8  O   LIG     1       1.668  -0.514   1.014  1.00  0.00    -0.648 OA
HETATM    9  O   LIG     1       1.490   1.282  -0.288  1.00  0.00    -0.648 OA
ENDBRANCH   2   7
TORSDOF 1
