REMARK  1 active torsions:
REMARK  status: ('A' for Active; 'I' for Inactive)
REMARK    1  A    between atoms: C_1  and  C_4 
REMARK       I    between atoms: C_4  and  N_8 
ROOT
HETATM    1  C   LIG     1      -0.327  -1.185   0.172  1.00  0.00     0.072 A 
HETATM    2  S   LIG     1       1.339  -0.821   0.322  1.00  0.00    -0.096 SA
HETATM    3  C   LIG     1      -1.073  -0.030   0.021  1.00  0.00     0.031 A 
HETATM    4  C   LIG     1       1.057   0.858   0.185  1.00  0.00     0.057 A 
HETATM    5  C   LIG     1      -0.281   1.164   0.028  1.00  0.00    -0.054 A 
HETATM    6  C   LIG     1      -0.822   2.545  -0.117  1.00  0.00     0.048 C 
ENDROOT
BRANCH   1   7
HETATM    7  C   LIG     1      -0.837  -2.546   0.207  1.00  0.00     0.256 C 
HETATM    8  O   LIG     1      -2.025  -2.838   0.098  1.00  0.00    -0.267 OA
HETATM    9  N   LIG     1       0.079  -3.548   0.372  1.00  0.00    -0.366 N 
ATOM     10  HN2 LIG     1       1.066  -3.305   0.463  1.00  0.00     0.159 HD
ATOM     11  HN1 LIG     1      -0.279  -4.503   0.397  1.00  0.00     0.159 HD
ENDBRANCH   1   7
TORSDOF 1
