REMARK  3 active torsions:
REMARK  status: ('A' for Active; 'I' for Inactive)
REMARK    1  A    between atoms: C_1  and  C_7 
REMARK    2  A    between atoms: C_6  and  C_8 
REMARK    3  A    between atoms: C_8  and  O_9 
ROOT
HETATM    1  C   LIG     1      -0.499  -1.070   0.047  1.00  0.00     0.111 A 
HETATM    2  N   LIG     1       0.893   0.652   0.455  1.00  0.00    -0.263 N 
ATOM      3  HN  LIG     1       1.722   1.190   0.708  1.00  0.00     0.194 HD
HETATM    4  C   LIG     1      -1.210   0.084  -0.190  1.00  0.00     0.069 A 
HETATM    5  O   LIG     1       0.765  -0.725   0.431  1.00  0.00    -0.237 OA
HETATM    6  C   LIG     1      -0.299   1.131   0.077  1.00  0.00     0.058 A 
ENDROOT
BRANCH   1   7
HETATM    7  C   LIG     1      -0.798  -2.498  -0.020  1.00  0.00    -0.000 A 
HETATM    8  C   LIG     1       0.171  -3.464   0.292  1.00  0.00     0.014 A 
HETATM    9  C   LIG     1      -0.128  -4.829   0.228  1.00  0.00     0.001 A 
HETATM   10  C   LIG     1      -1.400  -5.248  -0.149  1.00  0.00     0.000 A 
HETATM   11  C   LIG     1      -2.374  -4.305  -0.463  1.00  0.00     0.001 A 
HETATM   12  C   LIG     1      -2.076  -2.940  -0.399  1.00  0.00     0.014 A 
ENDBRANCH   1   7
BRANCH   6  13
HETATM   13  C   LIG     1      -0.522   2.600   0.001  1.00  0.00     0.223 C 
BRANCH  13  14
HETATM   14  O   LIG     1      -0.263   3.246   1.247  1.00  0.00    -0.395 OA
ATOM     15  HO  LIG     1      -0.405   4.184   1.198  1.00  0.00     0.209 HD
ENDBRANCH  13  14
ENDBRANCH   6  13
TORSDOF 3
