REMARK  3 active torsions:
REMARK  status: ('A' for Active; 'I' for Inactive)
REMARK    1  A    between atoms: C_1  and  C_7 
REMARK    2  A    between atoms: C_6  and  C_12 
REMARK    3  A    between atoms: N_8  and  C_12 
ROOT
HETATM    1  C   LIG     1      -0.426  -1.079  -0.003  1.00  0.00     0.111 A 
HETATM    2  N   LIG     1       0.949   0.704  -0.069  1.00  0.00    -0.263 N 
ATOM      3  HN  LIG     1       1.791   1.278  -0.115  1.00  0.00     0.194 HD
HETATM    4  C   LIG     1      -1.221   0.042   0.057  1.00  0.00     0.069 A 
HETATM    5  O   LIG     1       0.877  -0.677  -0.075  1.00  0.00    -0.237 OA
HETATM    6  C   LIG     1      -0.318   1.131   0.010  1.00  0.00     0.060 A 
ENDROOT
BRANCH   1   7
HETATM    7  C   LIG     1      -0.670  -2.518  -0.011  1.00  0.00    -0.000 A 
HETATM    8  C   LIG     1       0.388  -3.439  -0.061  1.00  0.00     0.014 A 
HETATM    9  C   LIG     1       0.144  -4.816  -0.073  1.00  0.00     0.001 A 
HETATM   10  C   LIG     1      -1.163  -5.293  -0.034  1.00  0.00     0.000 A 
HETATM   11  C   LIG     1      -2.226  -4.395   0.017  1.00  0.00     0.001 A 
HETATM   12  C   LIG     1      -1.981  -3.018   0.029  1.00  0.00     0.014 A 
ENDBRANCH   1   7
BRANCH   6  13
HETATM   13  C   LIG     1      -0.627   2.589   0.041  1.00  0.00     0.288 C 
BRANCH  13  14
HETATM   14  N   LIG     1      -1.472   2.939  -1.103  1.00  0.00    -0.074 N 
ATOM     15  HN3 LIG     1      -1.056   2.653  -1.989  1.00  0.00     0.274 HD
ATOM     16  HN2 LIG     1      -2.316   2.368  -1.146  1.00  0.00     0.274 HD
ATOM     17  HN1 LIG     1      -1.683   3.937  -1.082  1.00  0.00     0.274 HD
ENDBRANCH  13  14
ENDBRANCH   6  13
TORSDOF 3
