REMARK  3 active torsions:
REMARK  status: ('A' for Active; 'I' for Inactive)
REMARK    1  A    between atoms: N_1  and  C_2 
REMARK    2  A    between atoms: C_7  and  C_14 
REMARK    3  A    between atoms: N_8  and  C_14 
ROOT
HETATM    1  C   LIG     1      -1.516  -2.031  -0.531  1.00  0.00     0.030 A 
HETATM    2  C   LIG     1      -1.207  -3.394  -0.393  1.00  0.00     0.030 A 
HETATM    3  C   LIG     1      -2.481  -1.716  -1.500  1.00  0.00     0.030 A 
HETATM    4  C   LIG     1      -3.100  -2.698  -2.287  1.00  0.00     0.011 A 
HETATM    5  C   LIG     1      -1.822  -4.386  -1.170  1.00  0.00     0.011 A 
HETATM    6  C   LIG     1      -2.780  -4.048  -2.127  1.00  0.00    -0.033 A 
ENDROOT
BRANCH   1   7
HETATM    7  N   LIG     1      -0.912  -1.067   0.240  1.00  0.00    -0.381 N 
HETATM    8  C   LIG     1       0.077  -1.346   1.278  1.00  0.00     0.123 C 
HETATM    9  C   LIG     1       0.287   0.003   1.960  1.00  0.00     0.021 C 
HETATM   10  C   LIG     1       0.057   0.995   0.835  1.00  0.00     0.021 C 
HETATM   11  C   LIG     1      -1.094   0.371   0.050  1.00  0.00     0.123 C 
ENDBRANCH   1   7
BRANCH   6  12
HETATM   12  C   LIG     1      -3.442  -5.106  -2.970  1.00  0.00     0.268 C 
BRANCH  12  13
HETATM   13  N   LIG     1      -4.887  -5.130  -2.769  1.00  0.00    -0.075 N 
ATOM     14  HN3 LIG     1      -5.124  -5.238  -1.783  1.00  0.00     0.274 HD
ATOM     15  HN2 LIG     1      -5.301  -4.212  -2.932  1.00  0.00     0.274 HD
ATOM     16  HN1 LIG     1      -5.335  -5.847  -3.340  1.00  0.00     0.274 HD
ENDBRANCH  12  13
ENDBRANCH   6  12
TORSDOF 3
