REMARK  1 active torsions:
REMARK  status: ('A' for Active; 'I' for Inactive)
REMARK    1  A    between atoms: C_3  and  C_5 
ROOT
HETATM    1  N   LIG     1      -1.129  -0.752   0.652  1.00  0.00    -0.345 N 
ATOM      2  HN  LIG     1      -1.850  -1.320   1.097  1.00  0.00     0.167 HD
HETATM    3  C   LIG     1      -0.044  -1.322   0.078  1.00  0.00     0.045 A 
HETATM    4  C   LIG     1      -1.223   0.590   0.615  1.00  0.00     0.077 A 
HETATM    5  N   LIG     1      -0.322   1.405   0.042  1.00  0.00    -0.356 N 
ATOM      6  HN  LIG     1      -0.435   2.419   0.041  1.00  0.00     0.166 HD
HETATM    7  C   LIG     1       0.926  -0.555  -0.542  1.00  0.00     0.047 A 
HETATM    8  C   LIG     1       0.736   0.807  -0.529  1.00  0.00     0.091 A 
HETATM    9  C   LIG     1      -2.414   1.225   1.261  1.00  0.00     0.089 C 
ENDROOT
BRANCH   3  10
HETATM   10  C   LIG     1       0.018  -2.799   0.145  1.00  0.00    -0.008 A 
HETATM   11  C   LIG     1       1.243  -3.498   0.179  1.00  0.00     0.040 A 
HETATM   12  C   LIG     1       1.299  -4.898   0.203  1.00  0.00     0.047 A 
HETATM   13  N   LIG     1       2.530  -5.550   0.357  1.00  0.00    -0.102 NA
HETATM   14  C   LIG     1       0.109  -5.616   0.310  1.00  0.00     0.026 A 
HETATM   15  C   LIG     1      -1.118  -4.957   0.288  1.00  0.00     0.003 A 
HETATM   16  C   LIG     1      -1.160  -3.564   0.198  1.00  0.00     0.014 A 
ENDBRANCH   3  10
TORSDOF 1
