REMARK  1 active torsions:
REMARK  status: ('A' for Active; 'I' for Inactive)
REMARK    1  A    between atoms: N_1  and  C_6 
ROOT
HETATM    1  N   LIG     1      -4.656   4.656  -1.868  1.00  0.00    -0.191 NA
HETATM    2  C   LIG     1      -0.750   2.433  -0.028  1.00  0.00     0.041 A 
HETATM    3  C   LIG     1      -3.645   4.405  -1.356  1.00  0.00     0.099 C 
HETATM    4  C   LIG     1      -1.970   2.754  -0.645  1.00  0.00     0.052 A 
HETATM    5  C   LIG     1      -2.397   4.088  -0.724  1.00  0.00     0.046 A 
HETATM    6  C   LIG     1       0.032   3.469   0.508  1.00  0.00     0.030 A 
HETATM    7  C   LIG     1      -0.397   4.797   0.427  1.00  0.00     0.004 A 
HETATM    8  C   LIG     1      -1.609   5.108  -0.187  1.00  0.00     0.023 A 
ENDROOT
BRANCH   2   9
HETATM    9  N   LIG     1      -0.313   1.077   0.053  1.00  0.00    -0.317 N 
HETATM   10  C   LIG     1       0.846   0.602   0.633  1.00  0.00     0.188 A 
HETATM   11  N   LIG     1       0.963  -0.705   0.544  1.00  0.00    -0.360 N 
HETATM   12  C   LIG     1      -0.157  -1.115  -0.117  1.00  0.00     0.106 A 
ATOM     13  HN  LIG     1       1.725  -1.286   0.893  1.00  0.00     0.166 HD
HETATM   14  C   LIG     1      -0.958  -0.042  -0.430  1.00  0.00     0.115 A 
ENDBRANCH   2   9
TORSDOF 1
