REMARK  2 active torsions:
REMARK  status: ('A' for Active; 'I' for Inactive)
REMARK    1  A    between atoms: C_6  and  C_12 
REMARK    2  A    between atoms: N_8  and  C_12 
ROOT
HETATM    1  C   LIG     1      -0.425  -0.552  -0.045  1.00  0.00    -0.024 A 
HETATM    2  C   LIG     1      -0.542   0.841  -0.076  1.00  0.00     0.075 A 
HETATM    3  O   LIG     1      -1.741   1.503  -0.073  1.00  0.00    -0.351 OA
HETATM    4  C   LIG     1       0.853  -1.130  -0.050  1.00  0.00     0.018 A 
HETATM    5  C   LIG     1       0.599   1.642  -0.070  1.00  0.00     0.038 A 
HETATM    6  C   LIG     1       2.010  -0.333  -0.048  1.00  0.00    -0.032 A 
HETATM    7  C   LIG     1       1.869   1.061  -0.057  1.00  0.00     0.011 A 
HETATM    8  C   LIG     1      -1.645  -1.426  -0.029  1.00  0.00     0.043 C 
HETATM    9  C   LIG     1      -2.875   0.689  -0.385  1.00  0.00     0.176 C 
HETATM   10  C   LIG     1      -2.869  -0.623   0.382  1.00  0.00     0.031 C 
ENDROOT
BRANCH   6  11
HETATM   11  C   LIG     1       3.380  -0.972  -0.042  1.00  0.00     0.270 C 
BRANCH  11  12
HETATM   12  N   LIG     1       3.578  -1.779   1.162  1.00  0.00    -0.075 N 
HETATM   13  C   LIG     1       4.902  -2.383   1.178  1.00  0.00     0.267 C 
ATOM     14  HN2 LIG     1       3.402  -1.239   2.009  1.00  0.00     0.277 HD
ATOM     15  HN1 LIG     1       2.845  -2.480   1.269  1.00  0.00     0.277 HD
ENDBRANCH  11  12
ENDBRANCH   6  11
TORSDOF 2
