REMARK  2 active torsions:
REMARK  status: ('A' for Active; 'I' for Inactive)
REMARK    1  A    between atoms: C_6  and  C_13 
REMARK    2  A    between atoms: N_8  and  C_13 
ROOT
HETATM    1  C   LIG     1      -0.044  -0.759  -0.007  1.00  0.00    -0.024 A 
HETATM    2  C   LIG     1      -0.044   0.639  -0.050  1.00  0.00     0.075 A 
HETATM    3  O   LIG     1      -1.184   1.399  -0.042  1.00  0.00    -0.351 OA
HETATM    4  C   LIG     1       1.179  -1.446  -0.023  1.00  0.00     0.018 A 
HETATM    5  C   LIG     1       1.160   1.342  -0.068  1.00  0.00     0.038 A 
HETATM    6  C   LIG     1       2.397  -0.749  -0.050  1.00  0.00    -0.032 A 
HETATM    7  C   LIG     1       2.373   0.653  -0.073  1.00  0.00     0.011 A 
HETATM    8  C   LIG     1      -1.335  -1.526   0.024  1.00  0.00     0.043 C 
HETATM    9  C   LIG     1      -2.379   0.683  -0.360  1.00  0.00     0.176 C 
HETATM   10  C   LIG     1      -2.489  -0.616   0.420  1.00  0.00     0.031 C 
ENDROOT
BRANCH   6  11
HETATM   11  C   LIG     1       3.710  -1.488  -0.060  1.00  0.00     0.268 C 
BRANCH  11  12
HETATM   12  N   LIG     1       4.397  -1.333  -1.336  1.00  0.00    -0.075 N 
ATOM     13  HN3 LIG     1       3.804  -1.614  -2.117  1.00  0.00     0.274 HD
ATOM     14  HN2 LIG     1       4.520  -0.350  -1.578  1.00  0.00     0.274 HD
ATOM     15  HN1 LIG     1       5.286  -1.833  -1.343  1.00  0.00     0.274 HD
ENDBRANCH  11  12
ENDBRANCH   6  11
TORSDOF 2
