REMARK  1 active torsions:
REMARK  status: ('A' for Active; 'I' for Inactive)
REMARK    1  A    between atoms: N_1  and  C_4 
ROOT
HETATM    1  C   LIG     1      -0.587   2.444  -0.055  1.00  0.00     0.064 A 
HETATM    2  C   LIG     1       0.209   3.532   0.361  1.00  0.00     0.073 A 
HETATM    3  N   LIG     1       1.599   3.469   0.540  1.00  0.00    -0.100 NA
HETATM    4  C   LIG     1      -1.904   2.664  -0.509  1.00  0.00     0.032 A 
HETATM    5  C   LIG     1      -0.354   4.820   0.291  1.00  0.00     0.029 A 
HETATM    6  C   LIG     1      -2.441   3.950  -0.538  1.00  0.00     0.002 A 
HETATM    7  C   LIG     1      -1.668   5.029  -0.133  1.00  0.00     0.002 A 
ENDROOT
BRANCH   1   8
HETATM    8  N   LIG     1      -0.136   1.097   0.013  1.00  0.00    -0.315 N 
HETATM    9  C   LIG     1      -0.511   0.058  -0.812  1.00  0.00     0.188 A 
HETATM   10  N   LIG     1       0.047  -1.084  -0.477  1.00  0.00    -0.360 N 
HETATM   11  C   LIG     1       0.795  -0.800   0.629  1.00  0.00     0.106 A 
ATOM     12  HN  LIG     1      -0.056  -1.986  -0.942  1.00  0.00     0.166 HD
HETATM   13  C   LIG     1       0.690   0.530   0.961  1.00  0.00     0.115 A 
ENDBRANCH   1   8
TORSDOF 1
