REMARK  1 active torsions:
REMARK  status: ('A' for Active; 'I' for Inactive)
REMARK    1  A    between atoms: C_1  and  C_2 
REMARK       I    between atoms: C_1  and  N_10 
ROOT
HETATM    1  C   LIG     1       0.350   1.202   0.557  1.00  0.00     0.032 A 
HETATM    2  C   LIG     1      -0.874   1.083   1.232  1.00  0.00     0.027 A 
HETATM    3  C   LIG     1      -1.537   2.226   1.706  1.00  0.00    -0.024 A 
HETATM    4  C   LIG     1      -0.975   3.488   1.478  1.00  0.00     0.075 A 
HETATM    5  O   LIG     1      -1.546   4.659   1.897  1.00  0.00    -0.351 OA
HETATM    6  C   LIG     1       0.919   2.467   0.374  1.00  0.00     0.020 A 
HETATM    7  C   LIG     1       0.255   3.606   0.832  1.00  0.00     0.038 A 
HETATM    8  C   LIG     1      -2.846   2.090   2.432  1.00  0.00     0.043 C 
HETATM    9  C   LIG     1      -2.922   4.557   2.275  1.00  0.00     0.176 C 
HETATM   10  C   LIG     1      -3.175   3.369   3.187  1.00  0.00     0.031 C 
ENDROOT
BRANCH   1  11
HETATM   11  C   LIG     1       1.088   0.017   0.044  1.00  0.00     0.249 C 
HETATM   12  O   LIG     1       2.295   0.048  -0.161  1.00  0.00    -0.268 OA
HETATM   13  N   LIG     1       0.361  -1.106  -0.238  1.00  0.00    -0.366 N 
ATOM     14  HN2 LIG     1      -0.644  -1.132  -0.067  1.00  0.00     0.159 HD
ATOM     15  HN1 LIG     1       0.867  -1.919  -0.590  1.00  0.00     0.159 HD
ENDBRANCH   1  11
TORSDOF 1
