REMARK  2 active torsions:
REMARK  status: ('A' for Active; 'I' for Inactive)
REMARK    1  A    between atoms: CA_5  and  C_10 
REMARK    2  A    between atoms: C_10  and  O_11 
ROOT
HETATM    1  C   LIG     1      -0.034  -0.802   0.316  1.00  0.00     0.155 A 
HETATM    2  N   LIG     1      -1.145  -1.476   0.428  1.00  0.00    -0.337 N 
ATOM      3  HN  LIG     1      -1.270  -2.451   0.699  1.00  0.00     0.168 HD
HETATM    4  N   LIG     1      -0.214   0.493  -0.064  1.00  0.00    -0.311 N 
HETATM    5  CA  LIG     1      -2.120  -0.541   0.088  1.00  0.00     0.051 A 
HETATM    6  C   LIG     1      -1.552   0.689  -0.221  1.00  0.00     0.125 A 
HETATM    7  S   LIG     1       1.649  -1.160   0.542  1.00  0.00    -0.064 SA
HETATM    8  C   LIG     1       0.933   1.242  -0.188  1.00  0.00     0.106 A 
HETATM    9  C   LIG     1       2.028   0.516   0.099  1.00  0.00     0.071 A 
ENDROOT
BRANCH   5  10
HETATM   10  C   LIG     1      -3.556  -0.940   0.110  1.00  0.00     0.222 C 
BRANCH  10  11
HETATM   11  O   LIG     1      -3.813  -1.882   1.149  1.00  0.00    -0.395 OA
ATOM     12  HO  LIG     1      -4.728  -2.136   1.163  1.00  0.00     0.209 HD
ENDBRANCH  10  11
ENDBRANCH   5  10
TORSDOF 2
