REMARK  1 active torsions:
REMARK  status: ('A' for Active; 'I' for Inactive)
REMARK    1  A    between atoms: N_1  and  C_2 
ROOT
HETATM    1  C   LIG     1       1.206   2.074  -1.060  1.00  0.00     0.032 A 
HETATM    2  C   LIG     1       0.850   3.438  -1.080  1.00  0.00     0.055 A 
HETATM    3  C   LIG     1       1.126   4.280  -2.168  1.00  0.00     0.048 A 
HETATM    4  N   LIG     1       0.854   5.653  -2.088  1.00  0.00    -0.102 NA
HETATM    5  C   LIG     1       1.938   1.605  -2.159  1.00  0.00     0.029 A 
HETATM    6  C   LIG     1       2.276   2.443  -3.226  1.00  0.00     0.004 A 
HETATM    7  C   LIG     1       1.885   3.778  -3.221  1.00  0.00     0.027 A 
ENDROOT
BRANCH   1   8
HETATM    8  N   LIG     1       0.878   1.283   0.045  1.00  0.00    -0.377 N 
HETATM    9  C   LIG     1       1.471  -0.059   0.222  1.00  0.00     0.149 C 
HETATM   10  C   LIG     1       0.607  -1.139  -0.451  1.00  0.00     0.187 C 
HETATM   11  O   LIG     1      -0.750  -1.102   0.023  1.00  0.00    -0.388 OA
HETATM   12  C   LIG     1      -1.331   0.191  -0.221  1.00  0.00     0.187 C 
HETATM   13  C   LIG     1      -0.539   1.306   0.484  1.00  0.00     0.149 C 
ENDBRANCH   1   8
TORSDOF 1
