REMARK  3 active torsions:
REMARK  status: ('A' for Active; 'I' for Inactive)
REMARK    1  A    between atoms: N_1  and  C_2 
REMARK    2  A    between atoms: C_5  and  C_14 
REMARK    3  A    between atoms: O_9  and  C_14 
ROOT
HETATM    1  C   LIG     1       1.205   2.488  -1.096  1.00  0.00     0.030 A 
HETATM    2  C   LIG     1       0.818   3.829  -0.917  1.00  0.00     0.038 A 
HETATM    3  C   LIG     1       1.165   4.848  -1.826  1.00  0.00    -0.033 A 
HETATM    4  C   LIG     1       2.029   2.229  -2.203  1.00  0.00     0.029 A 
HETATM    5  C   LIG     1       2.403   3.231  -3.107  1.00  0.00     0.003 A 
HETATM    6  C   LIG     1       1.969   4.538  -2.921  1.00  0.00     0.009 A 
ENDROOT
BRANCH   1   7
HETATM    7  N   LIG     1       0.825   1.504  -0.173  1.00  0.00    -0.377 N 
HETATM    8  C   LIG     1       1.270   0.101  -0.356  1.00  0.00     0.149 C 
HETATM    9  C   LIG     1       0.320  -0.642  -1.314  1.00  0.00     0.187 C 
HETATM   10  O   LIG     1      -1.038  -0.606  -0.839  1.00  0.00    -0.388 OA
HETATM   11  C   LIG     1      -1.483   0.753  -0.676  1.00  0.00     0.187 C 
HETATM   12  C   LIG     1      -0.582   1.525   0.305  1.00  0.00     0.149 C 
ENDBRANCH   1   7
BRANCH   3  13
HETATM   13  C   LIG     1       0.729   6.267  -1.579  1.00  0.00     0.203 C 
BRANCH  13  14
HETATM   14  O   LIG     1       1.690   6.959  -0.795  1.00  0.00    -0.396 OA
ATOM     15  HO  LIG     1       1.415   7.855  -0.639  1.00  0.00     0.209 HD
ENDBRANCH  13  14
ENDBRANCH   3  13
TORSDOF 3
