REMARK  3 active torsions:
REMARK  status: ('A' for Active; 'I' for Inactive)
REMARK    1  A    between atoms: N_1  and  C_2 
REMARK    2  A    between atoms: N_7  and  C_13 
REMARK    3  A    between atoms: C_10  and  C_13 
ROOT
HETATM    1  C   LIG     1       1.155   2.161  -0.860  1.00  0.00     0.030 A 
HETATM    2  C   LIG     1       0.318   3.287  -0.852  1.00  0.00     0.030 A 
HETATM    3  C   LIG     1       2.168   2.165  -1.835  1.00  0.00     0.030 A 
HETATM    4  C   LIG     1       0.503   4.371  -1.721  1.00  0.00     0.011 A 
HETATM    5  C   LIG     1       2.356   3.240  -2.722  1.00  0.00     0.011 A 
HETATM    6  C   LIG     1       1.525   4.360  -2.670  1.00  0.00    -0.033 A 
ENDROOT
BRANCH   1   7
HETATM    7  N   LIG     1       0.974   1.071   0.001  1.00  0.00    -0.381 N 
HETATM    8  C   LIG     1      -0.164   1.048   0.936  1.00  0.00     0.123 C 
HETATM    9  C   LIG     1       0.193   1.789   2.227  1.00  0.00     0.020 C 
HETATM   10  C   LIG     1       1.476   1.238   2.851  1.00  0.00     0.003 C 
HETATM   11  C   LIG     1       2.613   1.140   1.831  1.00  0.00     0.020 C 
HETATM   12  C   LIG     1       2.166   0.410   0.563  1.00  0.00     0.123 C 
ENDBRANCH   1   7
BRANCH   6  13
HETATM   13  C   LIG     1       1.727   5.540  -3.589  1.00  0.00     0.270 C 
BRANCH  13  14
HETATM   14  N   LIG     1       0.526   5.813  -4.381  1.00  0.00    -0.075 N 
HETATM   15  C   LIG     1       0.725   6.950  -5.264  1.00  0.00     0.267 C 
ATOM     16  HN2 LIG     1       0.221   4.987  -4.896  1.00  0.00     0.277 HD
ATOM     17  HN1 LIG     1      -0.294   5.938  -3.787  1.00  0.00     0.277 HD
ENDBRANCH  13  14
ENDBRANCH   6  13
TORSDOF 3
