REMARK  2 active torsions:
REMARK  status: ('A' for Active; 'I' for Inactive)
REMARK    1  A    between atoms: C_6  and  C_14 
REMARK    2  A    between atoms: N_11  and  C_14 
ROOT
HETATM    1  N   LIG     1      -0.314   0.654  -0.036  1.00  0.00    -0.317 N 
HETATM    2  C   LIG     1      -0.363  -0.735  -0.030  1.00  0.00     0.111 A 
HETATM    3  C   LIG     1       0.869   1.388  -0.029  1.00  0.00     0.106 A 
HETATM    4  N   LIG     1      -1.606  -1.173  -0.022  1.00  0.00    -0.351 N 
ATOM      5  HN  LIG     1      -1.921  -2.143  -0.014  1.00  0.00     0.166 HD
HETATM    6  C   LIG     1       2.054   0.742  -0.009  1.00  0.00    -0.017 A 
HETATM    7  C   LIG     1       0.880  -1.425  -0.028  1.00  0.00     0.050 A 
HETATM    8  C   LIG     1       2.033  -0.725  -0.021  1.00  0.00     0.014 A 
HETATM    9  C   LIG     1      -2.386  -0.045  -0.027  1.00  0.00     0.107 A 
HETATM   10  C   LIG     1      -1.613   1.094  -0.043  1.00  0.00     0.115 A 
ENDROOT
BRANCH   6  11
HETATM   11  C   LIG     1       3.386   1.447   0.007  1.00  0.00     0.271 C 
BRANCH  11  12
HETATM   12  N   LIG     1       4.154   1.093   1.201  1.00  0.00    -0.075 N 
HETATM   13  C   LIG     1       5.439   1.777   1.223  1.00  0.00     0.267 C 
ATOM     14  HN2 LIG     1       3.622   1.267   2.054  1.00  0.00     0.277 HD
ATOM     15  HN1 LIG     1       4.265   0.083   1.289  1.00  0.00     0.277 HD
ENDBRANCH  11  12
ENDBRANCH   6  11
TORSDOF 2
