REMARK  5 active torsions:
REMARK  status: ('A' for Active; 'I' for Inactive)
REMARK    1  A    between atoms: N_1  and  C_2 
REMARK    2  A    between atoms: N_7  and  C_12 
REMARK    3  A    between atoms: N_7  and  C_13 
REMARK    4  A    between atoms: C_9  and  C_12 
REMARK    5  A    between atoms: C_13  and  C_14 
ROOT
HETATM    1  C   LIG     1      -0.054   1.789  -0.304  1.00  0.00     0.030 C 
HETATM    2  C   LIG     1      -0.572   3.082  -0.331  1.00  0.00     0.030 C 
HETATM    3  C   LIG     1       0.676   1.386  -1.423  1.00  0.00     0.030 C 
HETATM    4  C   LIG     1      -0.273   3.989  -1.357  1.00  0.00     0.011 C 
HETATM    5  C   LIG     1       0.896   2.263  -2.479  1.00  0.00     0.011 C 
HETATM    6  C   LIG     1       0.529   3.604  -2.444  1.00  0.00    -0.041 C 
ENDROOT
BRANCH   1   7
HETATM    7  N   LIG     1      -0.221   0.875   0.731  1.00  0.00    -0.381 N 
HETATM    8  C   LIG     1      -1.448   0.913   1.532  1.00  0.00     0.123 C 
HETATM    9  C   LIG     1      -1.322   1.841   2.737  1.00  0.00     0.020 C 
HETATM   10  C   LIG     1      -0.038   1.599   3.526  1.00  0.00     0.003 C 
HETATM   11  C   LIG     1       1.191   1.572   2.618  1.00  0.00     0.020 C 
HETATM   12  C   LIG     1       1.003   0.566   1.484  1.00  0.00     0.123 C 
ENDBRANCH   1   7
BRANCH   6  13
HETATM   13  C   LIG     1       0.851   4.625  -3.525  1.00  0.00     0.152 C 
BRANCH  13  14
HETATM   14  N   LIG     1       2.168   4.561  -4.206  1.00  0.00    -0.417 N 
ATOM     15  HN  LIG     1       2.898   5.256  -4.048  1.00  0.00     0.153 HD
BRANCH  14  16
HETATM   16  C   LIG     1       2.346   3.434  -5.118  1.00  0.00     0.113 C 
BRANCH  16  17
HETATM   17  C   LIG     1       3.697   3.368  -5.833  1.00  0.00     0.015 C 
HETATM   18  C   LIG     1       4.027   4.522  -6.753  1.00  0.00     0.006 C 
ENDBRANCH  16  17
ENDBRANCH  14  16
ENDBRANCH  13  14
ENDBRANCH   6  13
TORSDOF 5
