REMARK  3 active torsions:
REMARK  status: ('A' for Active; 'I' for Inactive)
REMARK    1  A    between atoms: N_1  and  C_2 
REMARK    2  A    between atoms: C_4  and  C_13 
REMARK    3  A    between atoms: N_5  and  C_13 
ROOT
HETATM    1  C   LIG     1       1.102   2.321  -1.010  1.00  0.00     0.030 A 
HETATM    2  C   LIG     1       0.804   3.688  -0.839  1.00  0.00     0.038 A 
HETATM    3  C   LIG     1       1.243   4.686  -1.732  1.00  0.00    -0.031 A 
HETATM    4  C   LIG     1       1.915   2.006  -2.111  1.00  0.00     0.029 A 
HETATM    5  C   LIG     1       2.370   2.981  -3.007  1.00  0.00     0.003 A 
HETATM    6  C   LIG     1       2.028   4.314  -2.824  1.00  0.00     0.009 A 
ENDROOT
BRANCH   1   7
HETATM    7  N   LIG     1       0.652   1.365  -0.094  1.00  0.00    -0.381 N 
HETATM    8  C   LIG     1       1.098  -0.035  -0.184  1.00  0.00     0.123 C 
HETATM    9  C   LIG     1       0.163  -0.837  -1.093  1.00  0.00     0.020 C 
HETATM   10  C   LIG     1      -1.290  -0.718  -0.633  1.00  0.00     0.003 C 
HETATM   11  C   LIG     1      -1.701   0.744  -0.456  1.00  0.00     0.020 C 
HETATM   12  C   LIG     1      -0.714   1.488   0.447  1.00  0.00     0.123 C 
ENDBRANCH   1   7
BRANCH   3  13
HETATM   13  C   LIG     1       0.864   6.129  -1.515  1.00  0.00     0.268 C 
BRANCH  13  14
HETATM   14  N   LIG     1       2.039   6.973  -1.332  1.00  0.00    -0.075 N 
ATOM     15  HN3 LIG     1       2.632   6.627  -0.578  1.00  0.00     0.274 HD
ATOM     16  HN2 LIG     1       2.694   6.873  -2.108  1.00  0.00     0.274 HD
ATOM     17  HN1 LIG     1       1.783   7.949  -1.185  1.00  0.00     0.274 HD
ENDBRANCH  13  14
ENDBRANCH   3  13
TORSDOF 3
