REMARK  2 active torsions:
REMARK  status: ('A' for Active; 'I' for Inactive)
REMARK    1  A    between atoms: C_1  and  C_4 
REMARK    2  A    between atoms: N_2  and  C_3 
ROOT
HETATM    1  C   LIG     1      -1.608   0.004   0.002  1.00  0.00     0.068 A 
HETATM    2  C   LIG     1      -1.013  -1.267   0.094  1.00  0.00     0.055 A 
HETATM    3  C   LIG     1      -0.804   1.154  -0.086  1.00  0.00     0.021 A 
HETATM    4  C   LIG     1       0.391  -1.352   0.163  1.00  0.00     0.031 A 
HETATM    5  C   LIG     1       0.585   1.050  -0.045  1.00  0.00     0.001 A 
HETATM    6  C   LIG     1       1.180  -0.200   0.092  1.00  0.00     0.002 A 
ENDROOT
BRANCH   2   7
HETATM    7  N   LIG     1      -1.764  -2.479   0.060  1.00  0.00    -0.332 N 
HETATM    8  C   LIG     1      -1.378  -3.689   0.613  1.00  0.00     0.096 A 
HETATM    9  C   LIG     1      -2.341  -4.638   0.350  1.00  0.00     0.019 A 
HETATM   10  C   LIG     1      -3.343  -4.013  -0.418  1.00  0.00     0.019 A 
HETATM   11  C   LIG     1      -2.961  -2.701  -0.595  1.00  0.00     0.096 A 
ENDBRANCH   2   7
BRANCH   1  12
HETATM   12  C   LIG     1      -3.055   0.263   0.114  1.00  0.00     0.211 C 
HETATM   13  O   LIG     1      -3.711   0.992  -0.604  1.00  0.00    -0.644 OA
HETATM   14  O   LIG     1      -3.564  -0.313   1.216  1.00  0.00    -0.644 OA
ENDBRANCH   1  12
TORSDOF 2
