REMARK  3 active torsions:
REMARK  status: ('A' for Active; 'I' for Inactive)
REMARK    1  A    between atoms: N_1  and  C_2 
REMARK    2  A    between atoms: C_3  and  C_8 
REMARK    3  A    between atoms: C_8  and  O_9 
ROOT
HETATM    1  C   LIG     1      -0.751  -2.260  -0.101  1.00  0.00     0.046 A 
HETATM    2  C   LIG     1      -1.991  -2.687  -0.631  1.00  0.00    -0.008 A 
HETATM    3  C   LIG     1       0.127  -3.225   0.437  1.00  0.00     0.030 A 
HETATM    4  C   LIG     1      -2.288  -4.070  -0.619  1.00  0.00     0.011 A 
HETATM    5  C   LIG     1      -0.195  -4.584   0.439  1.00  0.00     0.002 A 
HETATM    6  C   LIG     1      -1.405  -5.007  -0.089  1.00  0.00     0.001 A 
ENDROOT
BRANCH   1   7
HETATM    7  N   LIG     1      -0.319  -0.894  -0.079  1.00  0.00    -0.332 N 
HETATM    8  C   LIG     1       0.566  -0.348   0.839  1.00  0.00     0.096 A 
HETATM    9  C   LIG     1       0.771   0.985   0.549  1.00  0.00     0.019 A 
HETATM   10  C   LIG     1       0.005   1.276  -0.594  1.00  0.00     0.019 A 
HETATM   11  C   LIG     1      -0.640   0.118  -0.962  1.00  0.00     0.096 A 
ENDBRANCH   1   7
BRANCH   2  12
HETATM   12  C   LIG     1      -3.072  -1.794  -1.186  1.00  0.00     0.205 C 
BRANCH  12  13
HETATM   13  O   LIG     1      -2.934  -1.653  -2.594  1.00  0.00    -0.396 OA
ATOM     14  HO  LIG     1      -3.615  -1.090  -2.944  1.00  0.00     0.209 HD
ENDBRANCH  12  13
ENDBRANCH   2  12
TORSDOF 3
