REMARK  3 active torsions:
REMARK  status: ('A' for Active; 'I' for Inactive)
REMARK    1  A    between atoms: N_1  and  C_2 
REMARK    2  A    between atoms: C_4  and  C_12 
REMARK    3  A    between atoms: N_5  and  C_12 
ROOT
HETATM    1  C   LIG     1       1.288   2.137  -1.148  1.00  0.00     0.030 A 
HETATM    2  C   LIG     1       0.999   3.516  -1.144  1.00  0.00     0.038 A 
HETATM    3  C   LIG     1       1.459   4.402  -2.140  1.00  0.00    -0.031 A 
HETATM    4  C   LIG     1       2.127   1.697  -2.185  1.00  0.00     0.029 A 
HETATM    5  C   LIG     1       2.600   2.557  -3.184  1.00  0.00     0.003 A 
HETATM    6  C   LIG     1       2.261   3.904  -3.166  1.00  0.00     0.009 A 
ENDROOT
BRANCH   1   7
HETATM    7  N   LIG     1       0.803   1.288  -0.144  1.00  0.00    -0.381 N 
HETATM    8  C   LIG     1       1.168  -0.138  -0.137  1.00  0.00     0.123 C 
HETATM    9  C   LIG     1       0.234  -0.930  -1.057  1.00  0.00     0.020 C 
HETATM   10  C   LIG     1      -1.233  -0.702  -0.688  1.00  0.00     0.003 C 
HETATM   11  C   LIG     1      -1.566   0.787  -0.570  1.00  0.00     0.020 C 
HETATM   12  C   LIG     1      -0.572   1.506   0.345  1.00  0.00     0.123 C 
ENDBRANCH   1   7
BRANCH   3  13
HETATM   13  C   LIG     1       1.117   5.872  -2.070  1.00  0.00     0.270 C 
BRANCH  13  14
HETATM   14  N   LIG     1      -0.331   6.085  -2.119  1.00  0.00    -0.075 N 
HETATM   15  C   LIG     1      -0.651   7.503  -2.075  1.00  0.00     0.267 C 
ATOM     16  HN2 LIG     1      -0.751   5.630  -2.929  1.00  0.00     0.277 HD
ATOM     17  HN1 LIG     1      -0.812   5.568  -1.383  1.00  0.00     0.277 HD
ENDBRANCH  13  14
ENDBRANCH   3  13
TORSDOF 3
