REMARK  1 active torsions:
REMARK  status: ('A' for Active; 'I' for Inactive)
REMARK    1  A    between atoms: C_1  and  C_3 
ROOT
HETATM    1  C   LIG     1      -0.801  -2.455  -0.043  1.00  0.00    -0.002 A 
HETATM    2  C   LIG     1       0.191  -3.431   0.120  1.00  0.00     0.016 A 
HETATM    3  C   LIG     1      -2.115  -2.889  -0.270  1.00  0.00     0.016 A 
HETATM    4  C   LIG     1      -1.417  -5.216  -0.252  1.00  0.00     0.046 A 
HETATM    5  N   LIG     1      -1.744  -6.576  -0.210  1.00  0.00    -0.102 NA
HETATM    6  C   LIG     1      -0.119  -4.794   0.038  1.00  0.00     0.027 A 
HETATM    7  C   LIG     1      -2.420  -4.253  -0.351  1.00  0.00     0.027 A 
ENDROOT
BRANCH   1   8
HETATM    8  C   LIG     1      -0.473  -1.033   0.043  1.00  0.00     0.085 A 
HETATM    9  O   LIG     1      -1.516  -0.157  -0.088  1.00  0.00    -0.322 OA
HETATM   10  C   LIG     1      -1.012   1.098   0.020  1.00  0.00     0.142 A 
HETATM   11  C   LIG     1       0.346   1.054   0.218  1.00  0.00     0.027 A 
HETATM   12  C   LIG     1       0.696  -0.319   0.233  1.00  0.00     0.040 A 
ENDBRANCH   1   8
TORSDOF 1
