REMARK  2 active torsions:
REMARK  status: ('A' for Active; 'I' for Inactive)
REMARK    1  A    between atoms: N_1  and  C_3 
REMARK    2  A    between atoms: C_2  and  C_4 
ROOT
HETATM    1  C   LIG     1       1.056   1.793  -1.397  1.00  0.00     0.031 A 
HETATM    2  C   LIG     1       0.744   3.626  -3.016  1.00  0.00     0.043 A 
HETATM    3  C   LIG     1       0.488   3.028  -1.768  1.00  0.00     0.047 A 
HETATM    4  C   LIG     1       1.944   1.222  -2.326  1.00  0.00     0.029 A 
HETATM    5  C   LIG     1       1.607   3.008  -3.918  1.00  0.00     0.018 A 
HETATM    6  C   LIG     1       2.214   1.811  -3.568  1.00  0.00     0.003 A 
ENDROOT
BRANCH   1   7
HETATM    7  N   LIG     1       0.780   1.209  -0.156  1.00  0.00    -0.381 N 
HETATM    8  C   LIG     1       1.469  -0.021   0.276  1.00  0.00     0.123 C 
HETATM    9  C   LIG     1       0.706  -1.261  -0.200  1.00  0.00     0.020 C 
HETATM   10  C   LIG     1      -0.758  -1.218   0.241  1.00  0.00     0.003 C 
HETATM   11  C   LIG     1      -1.416   0.108  -0.144  1.00  0.00     0.020 C 
HETATM   12  C   LIG     1      -0.595   1.292   0.372  1.00  0.00     0.123 C 
ENDBRANCH   1   7
BRANCH   2  13
HETATM   13  C   LIG     1       0.079   4.912  -3.346  1.00  0.00     0.209 C 
HETATM   14  O   LIG     1      -0.674   5.541  -2.630  1.00  0.00    -0.644 OA
HETATM   15  O   LIG     1       0.382   5.339  -4.588  1.00  0.00    -0.644 OA
ENDBRANCH   2  13
TORSDOF 2
