REMARK  1 active torsions:
REMARK  status: ('A' for Active; 'I' for Inactive)
REMARK    1  A    between atoms: C_1  and  C_5 
ROOT
HETATM    1  N   LIG     1      -1.984  -7.723  -0.454  1.00  0.00    -0.191 NA
HETATM    2  C   LIG     1      -1.732  -6.594  -0.360  1.00  0.00     0.099 C 
HETATM    3  C   LIG     1      -0.792  -2.455  -0.013  1.00  0.00    -0.002 A 
HETATM    4  C   LIG     1       0.199  -3.435   0.150  1.00  0.00     0.016 A 
HETATM    5  C   LIG     1      -2.101  -2.877  -0.293  1.00  0.00     0.016 A 
HETATM    6  C   LIG     1      -1.416  -5.201  -0.243  1.00  0.00     0.044 A 
HETATM    7  C   LIG     1      -2.413  -4.237  -0.409  1.00  0.00     0.023 A 
HETATM    8  C   LIG     1      -0.108  -4.797   0.037  1.00  0.00     0.023 A 
ENDROOT
BRANCH   3   9
HETATM    9  C   LIG     1      -0.462  -1.036   0.107  1.00  0.00     0.085 A 
HETATM   10  O   LIG     1      -1.513  -0.161   0.044  1.00  0.00    -0.322 OA
HETATM   11  C   LIG     1      -1.010   1.092   0.177  1.00  0.00     0.142 A 
HETATM   12  C   LIG     1       0.355   1.047   0.324  1.00  0.00     0.027 A 
HETATM   13  C   LIG     1       0.710  -0.324   0.279  1.00  0.00     0.040 A 
ENDBRANCH   3   9
TORSDOF 1
