REMARK  3 active torsions:
REMARK  status: ('A' for Active; 'I' for Inactive)
REMARK    1  A    between atoms: C_1  and  C_3 
REMARK    2  A    between atoms: C_11  and  C_14 
REMARK    3  A    between atoms: O_12  and  C_14 
ROOT
HETATM    1  C   LIG     1      -0.802  -2.385  -0.017  1.00  0.00    -0.002 A 
HETATM    2  C   LIG     1       0.189  -3.322   0.310  1.00  0.00     0.015 A 
HETATM    3  C   LIG     1      -2.047  -2.866  -0.450  1.00  0.00     0.015 A 
HETATM    4  C   LIG     1      -2.298  -4.238  -0.548  1.00  0.00     0.010 A 
HETATM    5  C   LIG     1      -0.059  -4.697   0.211  1.00  0.00     0.010 A 
HETATM    6  C   LIG     1      -1.310  -5.166  -0.206  1.00  0.00    -0.035 A 
ENDROOT
BRANCH   1   7
HETATM    7  C   LIG     1      -0.539  -0.952   0.091  1.00  0.00     0.085 A 
HETATM    8  O   LIG     1      -1.567  -0.117  -0.254  1.00  0.00    -0.322 OA
HETATM    9  C   LIG     1      -1.133   1.157  -0.088  1.00  0.00     0.142 A 
HETATM   10  C   LIG     1       0.163   1.167   0.361  1.00  0.00     0.027 A 
HETATM   11  C   LIG     1       0.550  -0.191   0.477  1.00  0.00     0.040 A 
ENDBRANCH   1   7
BRANCH   6  12
HETATM   12  C   LIG     1      -1.577  -6.643  -0.317  1.00  0.00     0.202 C 
BRANCH  12  13
HETATM   13  O   LIG     1      -1.262  -7.125  -1.616  1.00  0.00    -0.396 OA
ATOM     14  HO  LIG     1      -1.431  -8.057  -1.686  1.00  0.00     0.209 HD
ENDBRANCH  12  13
ENDBRANCH   6  12
TORSDOF 3
