REMARK  3 active torsions:
REMARK  status: ('A' for Active; 'I' for Inactive)
REMARK    1  A    between atoms: N_1  and  C_2 
REMARK    2  A    between atoms: C_3  and  C_12 
REMARK    3  A    between atoms: N_8  and  C_12 
ROOT
HETATM    1  C   LIG     1      -0.744  -2.290  -0.088  1.00  0.00     0.046 A 
HETATM    2  C   LIG     1      -1.996  -2.714  -0.594  1.00  0.00    -0.006 A 
HETATM    3  C   LIG     1       0.169  -3.250   0.402  1.00  0.00     0.030 A 
HETATM    4  C   LIG     1      -2.310  -4.090  -0.500  1.00  0.00     0.011 A 
HETATM    5  C   LIG     1      -0.157  -4.605   0.438  1.00  0.00     0.002 A 
HETATM    6  C   LIG     1      -1.402  -5.024  -0.001  1.00  0.00     0.001 A 
ENDROOT
BRANCH   1   7
HETATM    7  N   LIG     1      -0.336  -0.919  -0.026  1.00  0.00    -0.332 N 
HETATM    8  C   LIG     1      -1.133   0.192   0.172  1.00  0.00     0.096 A 
HETATM    9  C   LIG     1      -0.348   1.327   0.175  1.00  0.00     0.019 A 
HETATM   10  C   LIG     1       0.986   0.908   0.009  1.00  0.00     0.019 A 
HETATM   11  C   LIG     1       0.971  -0.463  -0.091  1.00  0.00     0.096 A 
ENDBRANCH   1   7
BRANCH   2  12
HETATM   12  C   LIG     1      -3.004  -1.794  -1.257  1.00  0.00     0.270 C 
BRANCH  12  13
HETATM   13  N   LIG     1      -3.830  -2.457  -2.271  1.00  0.00    -0.075 N 
ATOM     14  HN3 LIG     1      -3.244  -2.913  -2.971  1.00  0.00     0.274 HD
ATOM     15  HN2 LIG     1      -4.294  -3.276  -1.878  1.00  0.00     0.274 HD
ATOM     16  HN1 LIG     1      -4.508  -1.839  -2.717  1.00  0.00     0.274 HD
ENDBRANCH  12  13
ENDBRANCH   2  12
TORSDOF 3
