REMARK  1 active torsions:
REMARK  status: ('A' for Active; 'I' for Inactive)
REMARK    1  A    between atoms: C_1  and  C_5 
ROOT
HETATM    1  C   LIG     1      -1.353  -0.098  -0.174  1.00  0.00    -0.024 A 
HETATM    2  C   LIG     1      -0.707   1.137   0.024  1.00  0.00     0.038 A 
HETATM    3  C   LIG     1       0.688   1.244   0.051  1.00  0.00     0.047 A 
HETATM    4  N   LIG     1       1.296   2.465   0.371  1.00  0.00    -0.102 NA
HETATM    5  C   LIG     1      -0.553  -1.244  -0.300  1.00  0.00     0.012 A 
HETATM    6  C   LIG     1       0.837  -1.160  -0.209  1.00  0.00     0.003 A 
HETATM    7  C   LIG     1       1.450   0.077  -0.013  1.00  0.00     0.026 A 
ENDROOT
BRANCH   1   8
HETATM    8  C   LIG     1      -2.823  -0.186  -0.236  1.00  0.00    -0.023 A 
HETATM    9  C   LIG     1      -3.528  -1.124   0.529  1.00  0.00     0.029 A 
HETATM   10  C   LIG     1      -4.911  -1.169   0.436  1.00  0.00     0.088 A 
HETATM   11  N   LIG     1      -5.638  -0.356  -0.358  1.00  0.00    -0.375 N 
HETATM   12  C   LIG     1      -4.949   0.543  -1.089  1.00  0.00     0.088 A 
ATOM     13  HN  LIG     1      -6.655  -0.418  -0.403  1.00  0.00     0.164 HD
HETATM   14  C   LIG     1      -3.568   0.664  -1.062  1.00  0.00     0.029 A 
ENDBRANCH   1   8
TORSDOF 1
