REMARK  3 active torsions:
REMARK  status: ('A' for Active; 'I' for Inactive)
REMARK    1  A    between atoms: C_1  and  C_5 
REMARK    2  A    between atoms: C_6  and  C_14 
REMARK    3  A    between atoms: N_7  and  C_14 
ROOT
HETATM    1  C   LIG     1      -1.424  -0.113  -0.117  1.00  0.00    -0.025 A 
HETATM    2  C   LIG     1      -0.710   1.103  -0.128  1.00  0.00     0.021 A 
HETATM    3  C   LIG     1       0.697   1.149  -0.055  1.00  0.00    -0.032 A 
HETATM    4  C   LIG     1      -0.668  -1.294  -0.020  1.00  0.00     0.012 A 
HETATM    5  C   LIG     1       0.727  -1.266   0.074  1.00  0.00     0.001 A 
HETATM    6  C   LIG     1       1.406  -0.050   0.054  1.00  0.00     0.009 A 
ENDROOT
BRANCH   1   7
HETATM    7  C   LIG     1      -2.905  -0.144  -0.202  1.00  0.00    -0.023 A 
HETATM    8  C   LIG     1      -3.624   0.812  -0.932  1.00  0.00     0.029 A 
HETATM    9  C   LIG     1      -5.010   0.747  -0.975  1.00  0.00     0.088 A 
HETATM   10  N   LIG     1      -5.737  -0.205  -0.356  1.00  0.00    -0.375 N 
HETATM   11  C   LIG     1      -5.043  -1.126   0.339  1.00  0.00     0.088 A 
ATOM     12  HN  LIG     1      -6.755  -0.226  -0.411  1.00  0.00     0.164 HD
HETATM   13  C   LIG     1      -3.659  -1.135   0.447  1.00  0.00     0.029 A 
ENDBRANCH   1   7
BRANCH   3  14
HETATM   14  C   LIG     1       1.422   2.475  -0.071  1.00  0.00     0.270 C 
BRANCH  14  15
HETATM   15  N   LIG     1       1.168   3.207  -1.314  1.00  0.00    -0.075 N 
HETATM   16  C   LIG     1       1.896   4.468  -1.334  1.00  0.00     0.267 C 
ATOM     17  HN2 LIG     1       1.377   2.639  -2.135  1.00  0.00     0.277 HD
ATOM     18  HN1 LIG     1       0.170   3.346  -1.472  1.00  0.00     0.277 HD
ENDBRANCH  14  15
ENDBRANCH   3  14
TORSDOF 3
