REMARK  3 active torsions:
REMARK  status: ('A' for Active; 'I' for Inactive)
REMARK    1  A    between atoms: C_1  and  C_3 
REMARK    2  A    between atoms: C_7  and  C_11 
REMARK    3  A    between atoms: N_8  and  C_11 
ROOT
HETATM    1  C   LIG     1      -0.789  -1.381  -0.453  1.00  0.00    -0.011 A 
HETATM    2  C   LIG     1      -1.756  -2.415  -0.366  1.00  0.00    -0.021 A 
HETATM    3  C   LIG     1       0.488  -1.646   0.113  1.00  0.00     0.013 A 
HETATM    4  C   LIG     1      -1.401  -3.643   0.259  1.00  0.00     0.010 A 
HETATM    5  C   LIG     1       0.807  -2.865   0.729  1.00  0.00     0.001 A 
HETATM    6  C   LIG     1      -0.141  -3.865   0.802  1.00  0.00     0.001 A 
ENDROOT
BRANCH   1   7
HETATM    7  C   LIG     1      -0.967  -0.030  -1.072  1.00  0.00     0.015 A 
HETATM    8  S   LIG     1      -1.970   0.226  -2.453  1.00  0.00    -0.101 SA
HETATM    9  C   LIG     1      -1.669   1.893  -2.520  1.00  0.00     0.050 A 
HETATM   10  C   LIG     1      -0.713   2.258  -1.590  1.00  0.00     0.008 A 
HETATM   11  C   LIG     1      -0.324   1.158  -0.766  1.00  0.00     0.020 A 
ENDBRANCH   1   7
BRANCH   2  12
HETATM   12  C   LIG     1      -3.195  -2.354  -0.856  1.00  0.00     0.271 C 
BRANCH  12  13
HETATM   13  N   LIG     1      -4.145  -1.759   0.087  1.00  0.00    -0.075 N 
HETATM   14  C   LIG     1      -4.323  -2.542   1.299  1.00  0.00     0.267 C 
ATOM     15  HN2 LIG     1      -3.879  -0.800   0.312  1.00  0.00     0.277 HD
ATOM     16  HN1 LIG     1      -5.042  -1.584  -0.366  1.00  0.00     0.277 HD
ENDBRANCH  12  13
ENDBRANCH   2  12
TORSDOF 3
