REMARK  3 active torsions:
REMARK  status: ('A' for Active; 'I' for Inactive)
REMARK    1  A    between atoms: C_1  and  C_3 
REMARK    2  A    between atoms: C_7  and  C_11 
REMARK    3  A    between atoms: O_8  and  C_11 
ROOT
HETATM    1  C   LIG     1      -0.843  -2.322  -0.225  1.00  0.00    -0.011 A 
HETATM    2  C   LIG     1      -2.083  -2.820  -0.683  1.00  0.00    -0.023 A 
HETATM    3  C   LIG     1       0.103  -3.229   0.293  1.00  0.00     0.013 A 
HETATM    4  C   LIG     1      -2.329  -4.206  -0.608  1.00  0.00     0.010 A 
HETATM    5  C   LIG     1      -0.159  -4.596   0.358  1.00  0.00     0.001 A 
HETATM    6  C   LIG     1      -1.378  -5.087  -0.096  1.00  0.00     0.001 A 
ENDROOT
BRANCH   1   7
HETATM    7  C   LIG     1      -0.481  -0.900  -0.213  1.00  0.00     0.015 A 
HETATM    8  S   LIG     1      -0.222  -0.050  -1.681  1.00  0.00    -0.101 SA
HETATM    9  C   LIG     1       0.178   1.393  -0.852  1.00  0.00     0.050 A 
HETATM   10  C   LIG     1       0.181   1.221   0.512  1.00  0.00     0.008 A 
HETATM   11  C   LIG     1      -0.194  -0.103   0.883  1.00  0.00     0.020 A 
ENDBRANCH   1   7
BRANCH   2  12
HETATM   12  C   LIG     1      -3.210  -1.949  -1.183  1.00  0.00     0.203 C 
BRANCH  12  13
HETATM   13  O   LIG     1      -4.193  -1.764  -0.169  1.00  0.00    -0.396 OA
ATOM     14  HO  LIG     1      -4.902  -1.216  -0.484  1.00  0.00     0.209 HD
ENDBRANCH  12  13
ENDBRANCH   2  12
TORSDOF 3
