REMARK  1 active torsions:
REMARK  status: ('A' for Active; 'I' for Inactive)
REMARK    1  A    between atoms: N_1  and  C_2 
ROOT
HETATM    1  N   LIG     1       0.862   1.475   0.248  1.00  0.00    -0.377 N 
HETATM    2  N   LIG     1      -0.625  -1.100   0.038  1.00  0.00     0.087 N 
HETATM    3  C   LIG     1       1.550   0.187   0.469  1.00  0.00     0.153 C 
HETATM    4  C   LIG     1      -0.583   1.409   0.566  1.00  0.00     0.153 C 
HETATM    5  C   LIG     1      -1.260   0.223  -0.167  1.00  0.00     0.291 C 
HETATM    6  C   LIG     1       0.826  -0.985  -0.239  1.00  0.00     0.291 C 
HETATM    7  C   LIG     1      -0.876  -1.616   1.381  1.00  0.00     0.310 C 
ENDROOT
BRANCH   1   8
HETATM    8  C   LIG     1       1.224   2.305  -0.818  1.00  0.00     0.032 A 
HETATM    9  C   LIG     1       0.818   3.655  -0.825  1.00  0.00     0.055 A 
HETATM   10  C   LIG     1       1.123   4.534  -1.874  1.00  0.00     0.048 A 
HETATM   11  C   LIG     1       1.960   4.089  -2.892  1.00  0.00     0.027 A 
HETATM   12  N   LIG     1       0.794   5.894  -1.777  1.00  0.00    -0.102 NA
HETATM   13  C   LIG     1       2.400   2.768  -2.909  1.00  0.00     0.004 A 
HETATM   14  C   LIG     1       2.031   1.890  -1.885  1.00  0.00     0.029 A 
ENDBRANCH   1   8
TORSDOF 1
