REMARK  1 active torsions:
REMARK  status: ('A' for Active; 'I' for Inactive)
REMARK    1  A    between atoms: C_1  and  C_2 
ROOT
HETATM    1  C   LIG     1      -0.811  -2.476  -0.120  1.00  0.00     0.005 A 
HETATM    2  C   LIG     1      -2.006  -2.895  -0.747  1.00  0.00     0.058 A 
HETATM    3  N   LIG     1      -2.933  -1.979  -1.288  1.00  0.00    -0.102 NA
HETATM    4  C   LIG     1       0.013  -3.430   0.503  1.00  0.00     0.014 A 
HETATM    5  C   LIG     1      -2.387  -4.241  -0.641  1.00  0.00     0.027 A 
HETATM    6  C   LIG     1      -0.354  -4.775   0.544  1.00  0.00     0.001 A 
HETATM    7  C   LIG     1      -1.559  -5.178  -0.020  1.00  0.00     0.002 A 
ENDROOT
BRANCH   1   8
HETATM    8  C   LIG     1      -0.409  -1.063  -0.091  1.00  0.00     0.017 A 
HETATM    9  S   LIG     1       1.003  -0.556  -0.923  1.00  0.00    -0.101 SA
HETATM   10  C   LIG     1       0.776   1.072  -0.448  1.00  0.00     0.050 A 
HETATM   11  C   LIG     1      -0.353   1.233   0.323  1.00  0.00     0.008 A 
HETATM   12  C   LIG     1      -1.038   0.001   0.527  1.00  0.00     0.020 A 
ENDBRANCH   1   8
TORSDOF 1
