REMARK  2 active torsions:
REMARK  status: ('A' for Active; 'I' for Inactive)
REMARK    1  A    between atoms: C_1  and  C_2 
REMARK    2  A    between atoms: C_4  and  C_8 
ROOT
HETATM    1  C   LIG     1       0.336   1.360  -0.168  1.00  0.00     0.041 A 
HETATM    2  C   LIG     1      -0.745   1.292  -1.061  1.00  0.00     0.030 A 
HETATM    3  C   LIG     1      -1.406   2.452  -1.507  1.00  0.00    -0.025 A 
HETATM    4  C   LIG     1       0.787   2.598   0.296  1.00  0.00     0.018 A 
HETATM    5  C   LIG     1      -0.939   3.684  -1.008  1.00  0.00     0.012 A 
HETATM    6  C   LIG     1       0.139   3.759  -0.117  1.00  0.00     0.002 A 
ENDROOT
BRANCH   3   7
HETATM    7  C   LIG     1      -2.533   2.382  -2.469  1.00  0.00    -0.023 A 
HETATM    8  C   LIG     1      -3.588   3.307  -2.441  1.00  0.00     0.029 A 
HETATM    9  C   LIG     1      -4.615   3.206  -3.369  1.00  0.00     0.088 A 
HETATM   10  N   LIG     1      -4.680   2.251  -4.316  1.00  0.00    -0.375 N 
HETATM   11  C   LIG     1      -3.670   1.361  -4.338  1.00  0.00     0.088 A 
ATOM     12  HN  LIG     1      -5.452   2.204  -4.981  1.00  0.00     0.164 HD
HETATM   13  C   LIG     1      -2.596   1.388  -3.458  1.00  0.00     0.029 A 
ENDBRANCH   3   7
BRANCH   1  14
HETATM   14  C   LIG     1       1.007   0.095   0.212  1.00  0.00     0.209 C 
HETATM   15  O   LIG     1       1.122  -0.849  -0.553  1.00  0.00    -0.644 OA
HETATM   16  O   LIG     1       1.435   0.071   1.491  1.00  0.00    -0.644 OA
ENDBRANCH   1  14
TORSDOF 2
