REMARK  3 active torsions:
REMARK  status: ('A' for Active; 'I' for Inactive)
REMARK    1  A    between atoms: C_1  and  C_5 
REMARK    2  A    between atoms: C_6  and  C_13 
REMARK    3  A    between atoms: O_7  and  C_13 
ROOT
HETATM    1  C   LIG     1      -1.382  -0.060  -0.126  1.00  0.00    -0.025 A 
HETATM    2  C   LIG     1      -0.706   1.175  -0.105  1.00  0.00     0.021 A 
HETATM    3  C   LIG     1       0.696   1.254  -0.027  1.00  0.00    -0.034 A 
HETATM    4  C   LIG     1      -0.594  -1.225  -0.073  1.00  0.00     0.012 A 
HETATM    5  C   LIG     1       0.800  -1.160   0.002  1.00  0.00     0.002 A 
HETATM    6  C   LIG     1       1.443   0.074   0.020  1.00  0.00     0.009 A 
ENDROOT
BRANCH   1   7
HETATM    7  C   LIG     1      -2.859  -0.135  -0.201  1.00  0.00    -0.023 A 
HETATM    8  C   LIG     1      -3.582  -1.109   0.500  1.00  0.00     0.029 A 
HETATM    9  C   LIG     1      -4.965  -1.144   0.395  1.00  0.00     0.088 A 
HETATM   10  N   LIG     1      -5.683  -0.279  -0.349  1.00  0.00    -0.375 N 
HETATM   11  C   LIG     1      -4.984   0.657  -1.018  1.00  0.00     0.088 A 
ATOM     12  HN  LIG     1      -6.700  -0.331  -0.402  1.00  0.00     0.164 HD
HETATM   13  C   LIG     1      -3.601   0.767  -0.979  1.00  0.00     0.029 A 
ENDBRANCH   1   7
BRANCH   3  14
HETATM   14  C   LIG     1       1.384   2.593  -0.047  1.00  0.00     0.202 C 
BRANCH  14  15
HETATM   15  O   LIG     1       1.680   2.980  -1.382  1.00  0.00    -0.396 OA
ATOM     16  HO  LIG     1       2.114   3.825  -1.395  1.00  0.00     0.209 HD
ENDBRANCH  14  15
ENDBRANCH   3  14
TORSDOF 3
