REMARK  3 active torsions:
REMARK  status: ('A' for Active; 'I' for Inactive)
REMARK    1  A    between atoms: C_1  and  C_4 
REMARK    2  A    between atoms: C_9  and  C_14 
REMARK    3  A    between atoms: O_10  and  C_14 
ROOT
HETATM    1  C   LIG     1      -1.434  -0.080  -0.131  1.00  0.00    -0.026 A 
HETATM    2  C   LIG     1      -0.742   1.112   0.140  1.00  0.00     0.013 A 
HETATM    3  C   LIG     1      -0.661  -1.229  -0.376  1.00  0.00     0.013 A 
HETATM    4  C   LIG     1       0.657   1.157   0.170  1.00  0.00     0.010 A 
HETATM    5  C   LIG     1       0.738  -1.193  -0.335  1.00  0.00     0.010 A 
HETATM    6  C   LIG     1       1.409  -0.000  -0.049  1.00  0.00    -0.035 A 
ENDROOT
BRANCH   1   7
HETATM    7  C   LIG     1      -2.914  -0.127  -0.158  1.00  0.00    -0.023 A 
HETATM    8  C   LIG     1      -3.622  -1.229   0.340  1.00  0.00     0.029 A 
HETATM    9  C   LIG     1      -5.009  -1.231   0.293  1.00  0.00     0.088 A 
HETATM   10  N   LIG     1      -5.744  -0.217  -0.206  1.00  0.00    -0.375 N 
HETATM   11  C   LIG     1      -5.059   0.841  -0.679  1.00  0.00     0.088 A 
ATOM     12  HN  LIG     1      -6.763  -0.250  -0.224  1.00  0.00     0.164 HD
HETATM   13  C   LIG     1      -3.673   0.931  -0.681  1.00  0.00     0.029 A 
ENDBRANCH   1   7
BRANCH   6  14
HETATM   14  C   LIG     1       2.913   0.046  -0.027  1.00  0.00     0.202 C 
BRANCH  14  15
HETATM   15  O   LIG     1       3.430   0.280  -1.330  1.00  0.00    -0.396 OA
ATOM     16  HO  LIG     1       4.379   0.309  -1.316  1.00  0.00     0.209 HD
ENDBRANCH  14  15
ENDBRANCH   6  14
TORSDOF 3
