REMARK  1 active torsions:
REMARK  status: ('A' for Active; 'I' for Inactive)
REMARK    1  A    between atoms: N_1  and  C_2 
ROOT
HETATM    1  N   LIG     1       0.616   0.967  -0.813  1.00  0.00    -0.376 N 
HETATM    2  N   LIG     1      -0.586  -1.301   0.629  1.00  0.00     0.087 N 
HETATM    3  C   LIG     1       1.350   0.351   0.303  1.00  0.00     0.153 C 
HETATM    4  C   LIG     1      -0.850   0.856  -0.734  1.00  0.00     0.153 C 
HETATM    5  C   LIG     1      -1.254  -0.624  -0.510  1.00  0.00     0.291 C 
HETATM    6  C   LIG     1       0.879  -1.111   0.507  1.00  0.00     0.291 C 
HETATM    7  C   LIG     1      -1.087  -0.814   1.912  1.00  0.00     0.310 C 
ENDROOT
BRANCH   1   8
HETATM    8  C   LIG     1       1.116   2.208  -1.239  1.00  0.00     0.054 A 
HETATM    9  C   LIG     1       0.933   3.440  -0.565  1.00  0.00     0.072 A 
HETATM   10  N   LIG     1       0.118   3.557   0.581  1.00  0.00    -0.100 NA
HETATM   11  C   LIG     1       1.405   4.621  -1.160  1.00  0.00     0.029 A 
HETATM   12  C   LIG     1       2.144   4.589  -2.343  1.00  0.00     0.002 A 
HETATM   13  C   LIG     1       2.389   3.374  -2.970  1.00  0.00     0.002 A 
HETATM   14  C   LIG     1       1.872   2.199  -2.425  1.00  0.00     0.031 A 
ENDBRANCH   1   8
TORSDOF 1
