REMARK  3 active torsions:
REMARK  status: ('A' for Active; 'I' for Inactive)
REMARK    1  A    between atoms: C_1  and  C_5 
REMARK    2  A    between atoms: C_9  and  C_15 
REMARK    3  A    between atoms: N_10  and  C_15 
ROOT
HETATM    1  C   LIG     1       1.450  -1.526  -0.019  1.00  0.00    -0.002 A 
HETATM    2  C   LIG     1       2.833  -1.265  -0.105  1.00  0.00     0.023 A 
HETATM    3  C   LIG     1       3.769  -2.295  -0.307  1.00  0.00    -0.032 A 
HETATM    4  C   LIG     1       1.029  -2.860  -0.142  1.00  0.00     0.014 A 
HETATM    5  C   LIG     1       1.946  -3.892  -0.349  1.00  0.00     0.002 A 
HETATM    6  C   LIG     1       3.306  -3.611  -0.434  1.00  0.00     0.009 A 
ENDROOT
BRANCH   1   7
HETATM    7  C   LIG     1       0.514  -0.397   0.191  1.00  0.00     0.084 A 
HETATM    8  N   LIG     1       0.884   0.870   0.278  1.00  0.00    -0.359 N 
HETATM    9  C   LIG     1      -0.214   1.685   0.469  1.00  0.00     0.096 A 
ATOM     10  HN  LIG     1       1.847   1.199   0.213  1.00  0.00     0.166 HD
HETATM   11  C   LIG     1      -1.428   1.041   0.532  1.00  0.00     0.069 A 
HETATM   12  S   LIG     1      -1.194  -0.640   0.346  1.00  0.00    -0.082 SA
ENDBRANCH   1   7
BRANCH   3  13
HETATM   13  C   LIG     1       5.249  -2.003  -0.396  1.00  0.00     0.270 C 
BRANCH  13  14
HETATM   14  N   LIG     1       5.987  -2.726   0.643  1.00  0.00    -0.075 N 
HETATM   15  C   LIG     1       7.413  -2.455   0.565  1.00  0.00     0.267 C 
ATOM     16  HN2 LIG     1       5.618  -2.525   1.572  1.00  0.00     0.277 HD
ATOM     17  HN1 LIG     1       5.794  -3.727   0.611  1.00  0.00     0.277 HD
ENDBRANCH  13  14
ENDBRANCH   3  13
TORSDOF 3
