REMARK  3 active torsions:
REMARK  status: ('A' for Active; 'I' for Inactive)
REMARK    1  A    between atoms: N_1  and  C_2 
REMARK    2  A    between atoms: C_4  and  C_13 
REMARK    3  A    between atoms: N_9  and  C_13 
ROOT
HETATM    1  C   LIG     1       1.192   2.202  -0.789  1.00  0.00     0.018 A 
HETATM    2  C   LIG     1       0.860   3.152  -1.786  1.00  0.00    -0.012 A 
HETATM    3  C   LIG     1       2.256   2.514   0.085  1.00  0.00     0.024 A 
HETATM    4  C   LIG     1       1.617   4.344  -1.886  1.00  0.00     0.011 A 
HETATM    5  C   LIG     1       2.978   3.708  -0.023  1.00  0.00     0.002 A 
HETATM    6  C   LIG     1       2.659   4.623  -1.006  1.00  0.00     0.001 A 
ENDROOT
BRANCH   1   7
HETATM    7  N   LIG     1       0.484   0.983  -0.680  1.00  0.00    -0.280 NA
HETATM    8  C   LIG     1       1.256  -0.188  -0.197  1.00  0.00     0.126 C 
HETATM    9  C   LIG     1       0.402  -1.478  -0.264  1.00  0.00     0.286 C 
HETATM   10  N   LIG     1      -0.911  -1.402   0.419  1.00  0.00     0.086 N 
HETATM   11  C   LIG     1      -1.617  -0.188  -0.050  1.00  0.00     0.286 C 
HETATM   12  C   LIG     1      -0.768  -1.407   1.874  1.00  0.00     0.310 C 
HETATM   13  C   LIG     1      -0.805   1.131   0.041  1.00  0.00     0.126 C 
ENDBRANCH   1   7
BRANCH   2  14
HETATM   14  C   LIG     1      -0.212   2.897  -2.831  1.00  0.00     0.269 C 
BRANCH  14  15
HETATM   15  N   LIG     1      -0.862   4.134  -3.289  1.00  0.00    -0.075 N 
ATOM     16  HN3 LIG     1      -1.236   4.664  -2.502  1.00  0.00     0.274 HD
ATOM     17  HN2 LIG     1      -0.173   4.806  -3.627  1.00  0.00     0.274 HD
ATOM     18  HN1 LIG     1      -1.582   3.963  -3.991  1.00  0.00     0.274 HD
ENDBRANCH  14  15
ENDBRANCH   2  14
TORSDOF 3
