REMARK  3 active torsions:
REMARK  status: ('A' for Active; 'I' for Inactive)
REMARK    1  A    between atoms: N_1  and  C_2 
REMARK    2  A    between atoms: C_4  and  C_9 
REMARK    3  A    between atoms: C_9  and  O_11 
ROOT
HETATM    1  C   LIG     1       1.316   2.155  -0.670  1.00  0.00     0.019 A 
HETATM    2  C   LIG     1       1.084   3.174  -1.623  1.00  0.00    -0.013 A 
HETATM    3  C   LIG     1       2.372   2.342   0.242  1.00  0.00     0.024 A 
HETATM    4  C   LIG     1       1.898   4.327  -1.628  1.00  0.00     0.011 A 
HETATM    5  C   LIG     1       3.176   3.484   0.220  1.00  0.00     0.002 A 
HETATM    6  C   LIG     1       2.939   4.480  -0.718  1.00  0.00     0.001 A 
ENDROOT
BRANCH   1   7
HETATM    7  N   LIG     1       0.512   0.998  -0.651  1.00  0.00    -0.280 NA
HETATM    8  C   LIG     1       1.172  -0.262  -0.237  1.00  0.00     0.126 C 
HETATM    9  C   LIG     1       0.212  -1.464  -0.404  1.00  0.00     0.286 C 
HETATM   10  N   LIG     1      -1.103  -1.319   0.263  1.00  0.00     0.086 N 
HETATM   11  C   LIG     1      -1.697  -0.022  -0.138  1.00  0.00     0.286 C 
HETATM   12  C   LIG     1      -0.989  -1.426   1.716  1.00  0.00     0.310 C 
HETATM   13  C   LIG     1      -0.778   1.213   0.047  1.00  0.00     0.126 C 
ENDBRANCH   1   7
BRANCH   2  14
HETATM   14  C   LIG     1       0.014   3.074  -2.684  1.00  0.00     0.204 C 
BRANCH  14  15
HETATM   15  O   LIG     1       0.599   3.167  -3.981  1.00  0.00    -0.396 OA
ATOM     16  HO  LIG     1      -0.074   3.104  -4.648  1.00  0.00     0.209 HD
ENDBRANCH  14  15
ENDBRANCH   2  14
TORSDOF 3
