REMARK  3 active torsions:
REMARK  status: ('A' for Active; 'I' for Inactive)
REMARK    1  A    between atoms: C_1  and  N_4 
REMARK    2  A    between atoms: C_5  and  C_14 
REMARK    3  A    between atoms: N_6  and  C_14 
ROOT
HETATM    1  C   LIG     1      -0.262  -1.402   0.429  1.00  0.00     0.082 A 
HETATM    2  N   LIG     1       0.361  -1.164   1.604  1.00  0.00    -0.349 N 
ATOM      3  HN  LIG     1       0.961  -1.872   2.027  1.00  0.00     0.167 HD
HETATM    4  C   LIG     1       0.173   0.037   2.212  1.00  0.00     0.035 A 
HETATM    5  C   LIG     1      -1.067  -0.433  -0.172  1.00  0.00     0.042 A 
HETATM    6  C   LIG     1      -1.243   0.801   0.447  1.00  0.00     0.005 A 
HETATM    7  C   LIG     1      -0.618   1.040   1.661  1.00  0.00     0.027 A 
ENDROOT
BRANCH   1   8
HETATM    8  N   LIG     1      -0.115  -2.653  -0.219  1.00  0.00    -0.269 NA
HETATM    9  C   LIG     1       1.114  -3.345   0.198  1.00  0.00     0.097 C 
HETATM   10  C   LIG     1       1.279  -4.621  -0.630  1.00  0.00     0.015 C 
HETATM   11  C   LIG     1       0.055  -5.522  -0.491  1.00  0.00     0.002 C 
HETATM   12  C   LIG     1      -1.219  -4.756  -0.838  1.00  0.00     0.015 C 
HETATM   13  C   LIG     1      -1.332  -3.462  -0.030  1.00  0.00     0.097 C 
ENDBRANCH   1   8
BRANCH   4  14
HETATM   14  C   LIG     1       0.865   0.254   3.540  1.00  0.00     0.286 C 
BRANCH  14  15
HETATM   15  N   LIG     1       1.837   1.351   3.505  1.00  0.00    -0.074 N 
ATOM     16  HN3 LIG     1       2.517   1.212   2.758  1.00  0.00     0.274 HD
ATOM     17  HN2 LIG     1       1.402   2.213   3.175  1.00  0.00     0.274 HD
ATOM     18  HN1 LIG     1       2.303   1.497   4.400  1.00  0.00     0.274 HD
ENDBRANCH  14  15
ENDBRANCH   4  14
TORSDOF 3
