REMARK  3 active torsions:
REMARK  status: ('A' for Active; 'I' for Inactive)
REMARK    1  A    between atoms: N_1  and  C_2 
REMARK    2  A    between atoms: C_4  and  C_11 
REMARK    3  A    between atoms: O_8  and  C_11 
ROOT
HETATM    1  C   LIG     1      -1.548  -2.068  -0.556  1.00  0.00     0.030 A 
HETATM    2  C   LIG     1      -1.248  -3.439  -0.472  1.00  0.00     0.038 A 
HETATM    3  C   LIG     1      -1.926  -4.414  -1.229  1.00  0.00    -0.033 A 
HETATM    4  C   LIG     1      -2.583  -1.715  -1.435  1.00  0.00     0.029 A 
HETATM    5  C   LIG     1      -3.277  -2.667  -2.190  1.00  0.00     0.003 A 
HETATM    6  C   LIG     1      -2.955  -4.015  -2.083  1.00  0.00     0.009 A 
ENDROOT
BRANCH   1   7
HETATM    7  N   LIG     1      -0.872  -1.128   0.187  1.00  0.00    -0.381 N 
HETATM    8  C   LIG     1       0.198  -1.438   1.133  1.00  0.00     0.123 C 
HETATM    9  C   LIG     1       0.446  -0.118   1.856  1.00  0.00     0.021 C 
HETATM   10  C   LIG     1       0.121   0.920   0.797  1.00  0.00     0.021 C 
HETATM   11  C   LIG     1      -1.077   0.315   0.071  1.00  0.00     0.123 C 
ENDBRANCH   1   7
BRANCH   3  12
HETATM   12  C   LIG     1      -1.588  -5.869  -1.067  1.00  0.00     0.203 C 
BRANCH  12  13
HETATM   13  O   LIG     1      -2.336  -6.445  -0.005  1.00  0.00    -0.396 OA
ATOM     14  HO  LIG     1      -2.122  -7.365   0.097  1.00  0.00     0.209 HD
ENDBRANCH  12  13
ENDBRANCH   3  12
TORSDOF 3
