REMARK  3 active torsions:
REMARK  status: ('A' for Active; 'I' for Inactive)
REMARK    1  A    between atoms: C_1  and  N_4 
REMARK    2  A    between atoms: CA_5  and  C_12 
REMARK    3  A    between atoms: O_9  and  C_12 
ROOT
HETATM    1  C   LIG     1      -0.163  -1.553   1.235  1.00  0.00     0.082 A 
HETATM    2  N   LIG     1       0.386  -1.679   2.463  1.00  0.00    -0.348 N 
ATOM      3  HN  LIG     1       0.896  -2.524   2.721  1.00  0.00     0.167 HD
HETATM    4  CA  LIG     1       0.244  -0.654   3.349  1.00  0.00     0.034 A 
HETATM    5  C   LIG     1      -0.837  -0.388   0.865  1.00  0.00     0.042 A 
HETATM    6  C   LIG     1      -0.968   0.657   1.773  1.00  0.00     0.005 A 
HETATM    7  C   LIG     1      -0.430   0.522   3.044  1.00  0.00     0.027 A 
ENDROOT
BRANCH   1   8
HETATM    8  N   LIG     1      -0.078  -2.611   0.300  1.00  0.00    -0.269 NA
HETATM    9  C   LIG     1       1.043  -3.520   0.591  1.00  0.00     0.097 C 
HETATM   10  C   LIG     1       1.156  -4.558  -0.527  1.00  0.00     0.015 C 
HETATM   11  C   LIG     1      -0.155  -5.323  -0.693  1.00  0.00     0.002 C 
HETATM   12  C   LIG     1      -1.317  -4.357  -0.905  1.00  0.00     0.015 C 
HETATM   13  C   LIG     1      -1.376  -3.302   0.201  1.00  0.00     0.097 C 
ENDBRANCH   1   8
BRANCH   4  14
HETATM   14  C   LIG     1       0.826  -0.869   4.727  1.00  0.00     0.221 C 
BRANCH  14  15
HETATM   15  O   LIG     1       1.843  -1.871   4.696  1.00  0.00    -0.395 OA
ATOM     16  HO  LIG     1       2.209  -2.006   5.562  1.00  0.00     0.209 HD
ENDBRANCH  14  15
ENDBRANCH   4  14
TORSDOF 3
