REMARK  2 active torsions:
REMARK  status: ('A' for Active; 'I' for Inactive)
REMARK    1  A    between atoms: N_1  and  C_2 
REMARK    2  A    between atoms: C_3  and  C_6 
ROOT
HETATM    1  C   LIG     1       0.474  -1.046   2.048  1.00  0.00     0.056 A 
HETATM    2  C   LIG     1       0.683  -2.429   1.882  1.00  0.00     0.068 A 
HETATM    3  C   LIG     1       1.110  -3.213   2.971  1.00  0.00     0.021 A 
HETATM    4  C   LIG     1       0.729  -0.479   3.310  1.00  0.00     0.031 A 
HETATM    5  C   LIG     1       1.373  -2.629   4.208  1.00  0.00     0.001 A 
HETATM    6  C   LIG     1       1.189  -1.262   4.374  1.00  0.00     0.002 A 
ENDROOT
BRANCH   1   7
HETATM    7  N   LIG     1      -0.009  -0.202   0.995  1.00  0.00    -0.319 N 
HETATM    8  C   LIG     1       0.450   1.085   0.680  1.00  0.00     0.013 C 
HETATM    9  C   LIG     1      -0.142   1.472  -0.508  1.00  0.00     0.027 C 
HETATM   10  C   LIG     1       1.472   1.862   1.438  1.00  0.00     0.068 C 
HETATM   11  C   LIG     1      -1.071   0.487  -0.870  1.00  0.00     0.027 C 
HETATM   12  C   LIG     1      -1.060  -0.481   0.115  1.00  0.00     0.013 C 
HETATM   13  C   LIG     1      -2.042  -1.595   0.263  1.00  0.00     0.068 C 
ENDBRANCH   1   7
BRANCH   2  14
HETATM   14  C   LIG     1       0.563  -3.172   0.609  1.00  0.00     0.211 C 
HETATM   15  O   LIG     1       0.080  -4.279   0.483  1.00  0.00    -0.644 OA
HETATM   16  O   LIG     1       1.148  -2.528  -0.413  1.00  0.00    -0.644 OA
ENDBRANCH   2  14
TORSDOF 2
