REMARK  3 active torsions:
REMARK  status: ('A' for Active; 'I' for Inactive)
REMARK    1  A    between atoms: C_1  and  C_5 
REMARK    2  A    between atoms: C_6  and  C_14 
REMARK    3  A    between atoms: N_7  and  C_14 
ROOT
HETATM    1  C   LIG     1      -1.557  -0.279  -0.007  1.00  0.00    -0.024 A 
HETATM    2  C   LIG     1      -0.718   0.853   0.043  1.00  0.00     0.021 A 
HETATM    3  C   LIG     1       0.686   0.747   0.017  1.00  0.00    -0.032 A 
HETATM    4  C   LIG     1      -0.930  -1.535  -0.076  1.00  0.00     0.012 A 
HETATM    5  C   LIG     1       0.463  -1.659  -0.079  1.00  0.00     0.001 A 
HETATM    6  C   LIG     1       1.267  -0.523  -0.034  1.00  0.00     0.009 A 
ENDROOT
BRANCH   1   7
HETATM    7  C   LIG     1      -3.033  -0.151   0.007  1.00  0.00    -0.011 A 
HETATM    8  C   LIG     1      -3.860  -1.105   0.611  1.00  0.00     0.099 A 
HETATM    9  N   LIG     1      -5.217  -1.057   0.655  1.00  0.00    -0.374 N 
HETATM   10  C   LIG     1      -5.801   0.008   0.075  1.00  0.00     0.087 A 
ATOM     11  HN  LIG     1      -5.765  -1.790   1.105  1.00  0.00     0.164 HD
HETATM   12  C   LIG     1      -5.093   1.021  -0.547  1.00  0.00     0.018 A 
HETATM   13  C   LIG     1      -3.701   0.932  -0.582  1.00  0.00     0.015 A 
ENDBRANCH   1   7
BRANCH   3  14
HETATM   14  C   LIG     1       1.549   1.989   0.051  1.00  0.00     0.270 C 
BRANCH  14  15
HETATM   15  N   LIG     1       1.310   2.831  -1.123  1.00  0.00    -0.075 N 
HETATM   16  C   LIG     1       2.166   4.008  -1.107  1.00  0.00     0.267 C 
ATOM     17  HN2 LIG     1       1.412   2.304  -1.990  1.00  0.00     0.277 HD
ATOM     18  HN1 LIG     1       0.326   3.084  -1.210  1.00  0.00     0.277 HD
ENDBRANCH  14  15
ENDBRANCH   3  14
TORSDOF 3
