REMARK  3 active torsions:
REMARK  status: ('A' for Active; 'I' for Inactive)
REMARK    1  A    between atoms: C_1  and  C_5 
REMARK    2  A    between atoms: C_6  and  C_13 
REMARK    3  A    between atoms: O_8  and  C_13 
ROOT
HETATM    1  C   LIG     1      -1.400  -0.079  -0.080  1.00  0.00    -0.024 A 
HETATM    2  C   LIG     1      -0.754   1.172  -0.109  1.00  0.00     0.021 A 
HETATM    3  C   LIG     1       0.647   1.290  -0.059  1.00  0.00    -0.034 A 
HETATM    4  C   LIG     1      -0.580  -1.219   0.019  1.00  0.00     0.012 A 
HETATM    5  C   LIG     1       0.812  -1.114   0.099  1.00  0.00     0.002 A 
HETATM    6  C   LIG     1       1.423   0.135   0.063  1.00  0.00     0.009 A 
ENDROOT
BRANCH   1   7
HETATM    7  C   LIG     1      -2.875  -0.191  -0.149  1.00  0.00    -0.011 A 
HETATM    8  C   LIG     1      -3.582  -1.206   0.503  1.00  0.00     0.099 A 
HETATM    9  N   LIG     1      -4.930  -1.370   0.478  1.00  0.00    -0.374 N 
HETATM   10  C   LIG     1      -5.634  -0.466  -0.231  1.00  0.00     0.087 A 
ATOM     11  HN  LIG     1      -5.386  -2.138   0.971  1.00  0.00     0.164 HD
HETATM   12  C   LIG     1      -5.054   0.586  -0.912  1.00  0.00     0.018 A 
HETATM   13  C   LIG     1      -3.665   0.718  -0.873  1.00  0.00     0.015 A 
ENDBRANCH   1   7
BRANCH   3  14
HETATM   14  C   LIG     1       1.297   2.648  -0.080  1.00  0.00     0.202 C 
BRANCH  14  15
HETATM   15  O   LIG     1       1.401   3.175   1.235  1.00  0.00    -0.396 OA
ATOM     16  HO  LIG     1       1.811   4.032   1.222  1.00  0.00     0.209 HD
ENDBRANCH  14  15
ENDBRANCH   3  14
TORSDOF 3
