REMARK  1 active torsions:
REMARK  status: ('A' for Active; 'I' for Inactive)
REMARK    1  A    between atoms: C_1  and  C_5 
ROOT
HETATM    1  C   LIG     1      -1.363  -0.061  -0.162  1.00  0.00    -0.023 A 
HETATM    2  C   LIG     1      -0.706   1.172   0.008  1.00  0.00     0.038 A 
HETATM    3  C   LIG     1       0.691   1.266   0.034  1.00  0.00     0.047 A 
HETATM    4  N   LIG     1       1.311   2.486   0.332  1.00  0.00    -0.102 NA
HETATM    5  C   LIG     1      -0.575  -1.218  -0.263  1.00  0.00     0.012 A 
HETATM    6  C   LIG     1       0.816  -1.145  -0.175  1.00  0.00     0.003 A 
HETATM    7  C   LIG     1       1.440   0.090  -0.005  1.00  0.00     0.026 A 
ENDROOT
BRANCH   1   8
HETATM    8  C   LIG     1      -2.830  -0.135  -0.219  1.00  0.00    -0.011 A 
HETATM    9  C   LIG     1      -3.558  -1.002   0.598  1.00  0.00     0.099 A 
HETATM   10  N   LIG     1      -4.909  -1.124   0.591  1.00  0.00    -0.374 N 
HETATM   11  C   LIG     1      -5.581  -0.337  -0.273  1.00  0.00     0.087 A 
ATOM     12  HN  LIG     1      -5.392  -1.778   1.208  1.00  0.00     0.164 HD
HETATM   13  C   LIG     1      -4.967   0.563  -1.127  1.00  0.00     0.018 A 
HETATM   14  C   LIG     1      -3.577   0.661  -1.096  1.00  0.00     0.015 A 
ENDBRANCH   1   8
TORSDOF 1
