REMARK  2 active torsions:
REMARK  status: ('A' for Active; 'I' for Inactive)
REMARK    1  A    between atoms: C_4  and  C_7 
REMARK    2  A    between atoms: C_7  and  O_12 
ROOT
HETATM    1  C   LIG     1       0.245  -0.701   0.004  1.00  0.00     0.085 A 
HETATM    2  N   LIG     1      -1.071  -1.013   0.021  1.00  0.00    -0.345 N 
ATOM      3  HN  LIG     1      -1.466  -1.953  -0.003  1.00  0.00     0.167 HD
HETATM    4  C   LIG     1      -1.793   0.182   0.077  1.00  0.00     0.110 A 
HETATM    5  C   LIG     1       0.374   0.628   0.032  1.00  0.00     0.001 A 
HETATM    6  C   LIG     1      -0.868   1.236   0.073  1.00  0.00     0.050 A 
HETATM    7  S   LIG     1       1.688  -1.523  -0.036  1.00  0.00    -0.083 SA
HETATM    8  C   LIG     1       2.541   0.007  -0.014  1.00  0.00     0.053 A 
HETATM    9  C   LIG     1       1.681   1.101   0.022  1.00  0.00     0.021 A 
ENDROOT
BRANCH   4  10
HETATM   10  C   LIG     1      -3.232   0.220   0.134  1.00  0.00     0.309 C 
HETATM   11  O   LIG     1      -3.960  -0.765   0.111  1.00  0.00    -0.258 OA
BRANCH  10  12
HETATM   12  O   LIG     1      -3.651   1.511   0.225  1.00  0.00    -0.321 OA
HETATM   13  C   LIG     1      -5.064   1.679   0.310  1.00  0.00     0.213 C 
ENDBRANCH  10  12
ENDBRANCH   4  10
TORSDOF 2
