REMARK  1 active torsions:
REMARK  status: ('A' for Active; 'I' for Inactive)
REMARK    1  A    between atoms: CA_1  and  C_7 
ROOT
HETATM    1  CA  LIG     1      -2.164  -0.022  -0.038  1.00  0.00     0.111 A 
HETATM    2  N   LIG     1      -1.301   1.051  -0.087  1.00  0.00    -0.350 N 
ATOM      3  HN  LIG     1      -1.577   2.031  -0.151  1.00  0.00     0.166 HD
HETATM    4  C   LIG     1      -1.410  -1.182   0.047  1.00  0.00     0.057 A 
HETATM    5  C   LIG     1      -0.012   0.588  -0.036  1.00  0.00     0.050 A 
HETATM    6  C   LIG     1      -0.047  -0.772   0.047  1.00  0.00     0.034 A 
HETATM    7  S   LIG     1       1.538  -1.464   0.117  1.00  0.00    -0.100 SA
HETATM    8  C   LIG     1       1.300   1.131  -0.045  1.00  0.00     0.038 A 
HETATM    9  C   LIG     1       2.226   0.112   0.033  1.00  0.00     0.053 A 
ENDROOT
BRANCH   1  10
HETATM   10  C   LIG     1      -3.596   0.096  -0.072  1.00  0.00     0.226 C 
HETATM   11  O   LIG     1      -4.428  -0.795  -0.032  1.00  0.00    -0.643 OA
HETATM   12  OXT LIG     1      -3.974   1.390  -0.159  1.00  0.00    -0.643 OA
ENDBRANCH   1  10
TORSDOF 1
