REMARK  4 active torsions:
REMARK  status: ('A' for Active; 'I' for Inactive)
REMARK    1  A    between atoms: N_1  and  C_2 
REMARK    2  A    between atoms: C_2  and  C_4 
REMARK    3  A    between atoms: C_6  and  C_15 
REMARK    4  A    between atoms: O_9  and  C_15 
ROOT
HETATM    1  C   LIG     1       1.452  -0.048  -4.214  1.00  0.00    -0.030 A 
HETATM    2  C   LIG     1       0.759   0.591  -5.255  1.00  0.00     0.018 A 
HETATM    3  C   LIG     1       1.447   1.125  -6.355  1.00  0.00    -0.034 A 
HETATM    4  C   LIG     1       3.543   0.415  -5.360  1.00  0.00     0.001 A 
HETATM    5  C   LIG     1       2.850  -0.128  -4.279  1.00  0.00     0.009 A 
HETATM    6  C   LIG     1       2.845   1.043  -6.390  1.00  0.00     0.009 A 
ENDROOT
BRANCH   1   7
HETATM    7  C   LIG     1       0.706  -0.659  -3.046  1.00  0.00     0.311 C 
BRANCH   7   8
HETATM    8  N   LIG     1      -0.226  -1.734  -3.435  1.00  0.00     0.096 N 
HETATM    9  C   LIG     1      -0.969  -2.246  -2.260  1.00  0.00     0.299 C 
HETATM   10  C   LIG     1      -0.118  -3.107  -1.307  1.00  0.00     0.198 C 
HETATM   11  O   LIG     1       0.507  -4.197  -1.996  1.00  0.00    -0.388 OA
HETATM   12  C   LIG     1       1.295  -3.727  -3.097  1.00  0.00     0.198 C 
HETATM   13  C   LIG     1       0.452  -2.888  -4.070  1.00  0.00     0.299 C 
ENDBRANCH   7   8
ENDBRANCH   1   7
BRANCH   3  14
HETATM   14  C   LIG     1       0.693   1.795  -7.475  1.00  0.00     0.202 C 
BRANCH  14  15
HETATM   15  O   LIG     1       0.511   3.180  -7.211  1.00  0.00    -0.396 OA
ATOM     16  HO  LIG     1       0.036   3.602  -7.917  1.00  0.00     0.209 HD
ENDBRANCH  14  15
ENDBRANCH   3  14
TORSDOF 4
