REMARK  2 active torsions:
REMARK  status: ('A' for Active; 'I' for Inactive)
REMARK    1  A    between atoms: C_1  and  C_5 
REMARK    2  A    between atoms: C_5  and  C_6 
ROOT
HETATM    1  C   LIG     1       1.551  -1.098   0.011  1.00  0.00    -0.013 A 
HETATM    2  C   LIG     1       2.283   0.074  -0.006  1.00  0.00     0.151 A 
HETATM    3  O   LIG     1       1.470   1.159  -0.032  1.00  0.00    -0.321 OA
HETATM    4  C   LIG     1       0.179  -0.692  -0.021  1.00  0.00     0.006 A 
HETATM    5  C   LIG     1       0.191   0.698  -0.038  1.00  0.00     0.085 A 
HETATM    6  C   LIG     1      -1.068  -1.346  -0.028  1.00  0.00     0.015 A 
HETATM    7  C   LIG     1      -0.953   1.494  -0.052  1.00  0.00     0.038 A 
HETATM    8  C   LIG     1      -2.239  -0.572  -0.037  1.00  0.00     0.001 A 
HETATM    9  C   LIG     1      -2.180   0.824  -0.046  1.00  0.00     0.003 A 
ENDROOT
BRANCH   1  10
HETATM   10  C   LIG     1       2.093  -2.486   0.071  1.00  0.00     0.154 C 
BRANCH  10  11
HETATM   11  C   LIG     1       2.368  -3.068  -1.293  1.00  0.00     0.177 C 
HETATM   12  O   LIG     1       2.676  -2.473  -2.312  1.00  0.00    -0.648 OA
HETATM   13  O   LIG     1       2.315  -4.416  -1.297  1.00  0.00    -0.648 OA
ENDBRANCH  10  11
ENDBRANCH   1  10
TORSDOF 2
