REMARK  2 active torsions:
REMARK  status: ('A' for Active; 'I' for Inactive)
REMARK    1  A    between atoms: C_1  and  C_6 
REMARK    2  A    between atoms: C_4  and  C_7 
ROOT
HETATM    1  C   LIG     1       2.110  -1.391  -0.011  1.00  0.00    -0.002 A 
HETATM    2  C   LIG     1       4.317  -3.121  -0.427  1.00  0.00     0.040 A 
HETATM    3  C   LIG     1       3.389  -0.883  -0.299  1.00  0.00     0.015 A 
HETATM    4  C   LIG     1       1.965  -2.789   0.061  1.00  0.00     0.015 A 
HETATM    5  C   LIG     1       4.480  -1.736  -0.506  1.00  0.00     0.019 A 
HETATM    6  C   LIG     1       3.054  -3.647  -0.143  1.00  0.00     0.019 A 
ENDROOT
BRANCH   1   7
HETATM    7  C   LIG     1       0.928  -0.530   0.215  1.00  0.00     0.084 A 
HETATM    8  N   LIG     1      -0.283  -0.987   0.484  1.00  0.00    -0.359 N 
HETATM    9  C   LIG     1      -1.171   0.059   0.645  1.00  0.00     0.096 A 
ATOM     10  HN  LIG     1      -0.528  -1.974   0.562  1.00  0.00     0.166 HD
HETATM   11  C   LIG     1      -0.637   1.318   0.499  1.00  0.00     0.069 A 
HETATM   12  S   LIG     1       1.030   1.196   0.148  1.00  0.00    -0.082 SA
ENDBRANCH   1   7
BRANCH   2  13
HETATM   13  C   LIG     1       5.502  -3.984  -0.648  1.00  0.00     0.209 C 
HETATM   14  O   LIG     1       6.623  -3.598  -0.930  1.00  0.00    -0.644 OA
HETATM   15  O   LIG     1       5.229  -5.291  -0.497  1.00  0.00    -0.644 OA
ENDBRANCH   2  13
TORSDOF 2
