REMARK  2 active torsions:
REMARK  status: ('A' for Active; 'I' for Inactive)
REMARK    1  A    between atoms: C_3  and  C_8 
REMARK    2  A    between atoms: C_7  and  C_9 
ROOT
HETATM    1  C   LIG     1      -0.909   2.284  -0.085  1.00  0.00    -0.009 A 
HETATM    2  C   LIG     1      -1.526   5.027  -0.314  1.00  0.00     0.040 A 
HETATM    3  C   LIG     1      -2.166   2.698  -0.550  1.00  0.00     0.015 A 
HETATM    4  C   LIG     1       0.031   3.263   0.272  1.00  0.00     0.015 A 
HETATM    5  C   LIG     1      -0.270   4.625   0.155  1.00  0.00     0.019 A 
HETATM    6  C   LIG     1      -2.472   4.059  -0.665  1.00  0.00     0.019 A 
ENDROOT
BRANCH   1   7
HETATM    7  C   LIG     1      -0.570   0.871   0.053  1.00  0.00     0.049 A 
HETATM    8  N   LIG     1       0.364   0.442   0.986  1.00  0.00    -0.353 N 
HETATM    9  C   LIG     1       0.487  -0.867   0.936  1.00  0.00     0.047 A 
ATOM     10  HN  LIG     1       0.880   1.053   1.619  1.00  0.00     0.166 HD
HETATM   11  S   LIG     1      -0.481  -1.655  -0.244  1.00  0.00    -0.087 SA
HETATM   12  C   LIG     1       1.382  -1.657   1.826  1.00  0.00     0.076 C 
HETATM   13  C   LIG     1      -1.116  -0.137  -0.718  1.00  0.00     0.081 A 
ENDBRANCH   1   7
BRANCH   2  14
HETATM   14  C   LIG     1      -1.903   6.455  -0.445  1.00  0.00     0.209 C 
HETATM   15  O   LIG     1      -2.975   6.874  -0.845  1.00  0.00    -0.644 OA
HETATM   16  O   LIG     1      -0.924   7.294  -0.067  1.00  0.00    -0.644 OA
ENDBRANCH   2  14
TORSDOF 2
