REMARK  3 active torsions:
REMARK  status: ('A' for Active; 'I' for Inactive)
REMARK    1  A    between atoms: C_3  and  C_6 
REMARK    2  A    between atoms: C_6  and  C_11 
REMARK    3  A    between atoms: O_7  and  C_11 
ROOT
HETATM    1  O   LIG     1       1.420   1.194   0.050  1.00  0.00    -0.321 OA
HETATM    2  C   LIG     1       2.183   0.072   0.051  1.00  0.00     0.150 A 
HETATM    3  C   LIG     1       1.398  -1.064   0.003  1.00  0.00    -0.021 A 
HETATM    4  C   LIG     1       0.048  -0.596  -0.038  1.00  0.00     0.006 A 
HETATM    5  C   LIG     1       0.122   0.792  -0.005  1.00  0.00     0.085 A 
HETATM    6  C   LIG     1      -1.224  -1.195  -0.095  1.00  0.00     0.015 A 
HETATM    7  C   LIG     1      -0.985   1.636  -0.025  1.00  0.00     0.038 A 
HETATM    8  C   LIG     1      -2.359  -0.371  -0.115  1.00  0.00     0.001 A 
HETATM    9  C   LIG     1      -2.239   1.021  -0.081  1.00  0.00     0.003 A 
ENDROOT
BRANCH   3  10
HETATM   10  C   LIG     1       1.874  -2.482  -0.007  1.00  0.00     0.067 C 
BRANCH  10  11
HETATM   11  C   LIG     1       2.012  -3.068   1.398  1.00  0.00     0.168 C 
BRANCH  11  12
HETATM   12  O   LIG     1       0.736  -3.327   1.977  1.00  0.00    -0.401 OA
ATOM     13  HO  LIG     1       0.822  -3.691   2.850  1.00  0.00     0.209 HD
ENDBRANCH  11  12
ENDBRANCH  10  11
ENDBRANCH   3  10
TORSDOF 3
