REMARK  3 active torsions:
REMARK  status: ('A' for Active; 'I' for Inactive)
REMARK    1  A    between atoms: C_1  and  C_4 
REMARK    2  A    between atoms: C_9  and  C_14 
REMARK    3  A    between atoms: O_11  and  C_14 
ROOT
HETATM    1  C   LIG     1      -1.395  -0.073  -0.100  1.00  0.00    -0.025 A 
HETATM    2  C   LIG     1      -0.740   1.173  -0.144  1.00  0.00     0.013 A 
HETATM    3  C   LIG     1      -0.581  -1.218  -0.041  1.00  0.00     0.013 A 
HETATM    4  C   LIG     1       0.657   1.269  -0.134  1.00  0.00     0.010 A 
HETATM    5  C   LIG     1       0.817  -1.127  -0.041  1.00  0.00     0.010 A 
HETATM    6  C   LIG     1       1.448   0.119  -0.099  1.00  0.00    -0.035 A 
ENDROOT
BRANCH   1   7
HETATM    7  C   LIG     1      -2.872  -0.170  -0.116  1.00  0.00    -0.011 A 
HETATM    8  C   LIG     1      -3.544  -1.233  -0.731  1.00  0.00     0.099 A 
HETATM    9  N   LIG     1      -4.893  -1.387  -0.782  1.00  0.00    -0.374 N 
HETATM   10  C   LIG     1      -5.633  -0.426  -0.200  1.00  0.00     0.087 A 
ATOM     11  HN  LIG     1      -5.323  -2.191  -1.239  1.00  0.00     0.164 HD
HETATM   12  C   LIG     1      -5.088   0.678   0.432  1.00  0.00     0.018 A 
HETATM   13  C   LIG     1      -3.698   0.797   0.475  1.00  0.00     0.015 A 
ENDBRANCH   1   7
BRANCH   6  14
HETATM   14  C   LIG     1       2.949   0.219  -0.069  1.00  0.00     0.202 C 
BRANCH  14  15
HETATM   15  O   LIG     1       3.423   0.255   1.270  1.00  0.00    -0.396 OA
ATOM     16  HO  LIG     1       4.371   0.318   1.289  1.00  0.00     0.209 HD
ENDBRANCH  14  15
ENDBRANCH   6  14
TORSDOF 3
