REMARK  2 active torsions:
REMARK  status: ('A' for Active; 'I' for Inactive)
REMARK    1  A    between atoms: C_1  and  C_2 
REMARK    2  A    between atoms: C_3  and  C_11 
ROOT
HETATM    1  C   LIG     1       0.369  -1.138  -0.903  1.00  0.00     0.040 A 
HETATM    2  C   LIG     1      -0.463  -3.116  -2.755  1.00  0.00    -0.025 A 
HETATM    3  C   LIG     1       0.771  -2.465  -0.738  1.00  0.00     0.019 A 
HETATM    4  C   LIG     1      -0.460  -0.796  -1.973  1.00  0.00     0.019 A 
HETATM    5  C   LIG     1       0.360  -3.439  -1.658  1.00  0.00     0.013 A 
HETATM    6  C   LIG     1      -0.863  -1.774  -2.891  1.00  0.00     0.013 A 
ENDROOT
BRANCH   2   7
HETATM    7  C   LIG     1      -0.903  -4.152  -3.713  1.00  0.00    -0.011 A 
HETATM    8  C   LIG     1      -2.192  -4.168  -4.254  1.00  0.00     0.099 A 
HETATM    9  N   LIG     1      -2.661  -5.087  -5.135  1.00  0.00    -0.374 N 
HETATM   10  C   LIG     1      -1.807  -6.061  -5.503  1.00  0.00     0.087 A 
ATOM     11  HN  LIG     1      -3.612  -5.042  -5.500  1.00  0.00     0.164 HD
HETATM   12  C   LIG     1      -0.510  -6.156  -5.034  1.00  0.00     0.018 A 
HETATM   13  C   LIG     1      -0.058  -5.189  -4.135  1.00  0.00     0.015 A 
ENDBRANCH   2   7
BRANCH   1  14
HETATM   14  C   LIG     1       0.759  -0.075   0.053  1.00  0.00     0.209 C 
HETATM   15  O   LIG     1       0.031   0.865   0.334  1.00  0.00    -0.644 OA
HETATM   16  O   LIG     1       2.007  -0.218   0.548  1.00  0.00    -0.644 OA
ENDBRANCH   1  14
TORSDOF 2
