REMARK  4 active torsions:
REMARK  status: ('A' for Active; 'I' for Inactive)
REMARK    1  A    between atoms: N_1  and  C_2 
REMARK    2  A    between atoms: C_2  and  C_4 
REMARK    3  A    between atoms: N_6  and  C_15 
REMARK    4  A    between atoms: C_9  and  C_15 
ROOT
HETATM    1  C   LIG     1      -0.719  -0.052  -3.044  1.00  0.00    -0.030 A 
HETATM    2  C   LIG     1       0.020  -1.244  -3.068  1.00  0.00     0.017 A 
HETATM    3  C   LIG     1      -0.538  -2.438  -3.553  1.00  0.00    -0.032 A 
HETATM    4  C   LIG     1      -2.570  -1.223  -4.093  1.00  0.00     0.001 A 
HETATM    5  C   LIG     1      -2.019  -0.051  -3.573  1.00  0.00     0.009 A 
HETATM    6  C   LIG     1      -1.838  -2.410  -4.079  1.00  0.00     0.009 A 
ENDROOT
BRANCH   1   7
HETATM    7  C   LIG     1      -0.123   1.215  -2.463  1.00  0.00     0.311 C 
BRANCH   7   8
HETATM    8  N   LIG     1       0.282   1.099  -1.048  1.00  0.00     0.096 N 
HETATM    9  C   LIG     1      -0.838   0.793  -0.131  1.00  0.00     0.299 C 
HETATM   10  C   LIG     1      -1.809   1.965   0.081  1.00  0.00     0.198 C 
HETATM   11  O   LIG     1      -1.121   3.126   0.565  1.00  0.00    -0.388 OA
HETATM   12  C   LIG     1      -0.068   3.507  -0.329  1.00  0.00     0.198 C 
HETATM   13  C   LIG     1       0.919   2.351  -0.577  1.00  0.00     0.299 C 
ENDBRANCH   7   8
ENDBRANCH   1   7
BRANCH   3  14
HETATM   14  C   LIG     1       0.251  -3.726  -3.505  1.00  0.00     0.270 C 
BRANCH  14  15
HETATM   15  N   LIG     1       1.038  -3.916  -4.721  1.00  0.00    -0.075 N 
HETATM   16  C   LIG     1       1.782  -5.167  -4.678  1.00  0.00     0.267 C 
ATOM     17  HN2 LIG     1       0.457  -3.854  -5.557  1.00  0.00     0.277 HD
ATOM     18  HN1 LIG     1       1.652  -3.121  -4.898  1.00  0.00     0.277 HD
ENDBRANCH  14  15
ENDBRANCH   3  14
TORSDOF 4
