REMARK  1 active torsions:
REMARK  status: ('A' for Active; 'I' for Inactive)
REMARK    1  A    between atoms: C_1  and  C_4 
ROOT
HETATM    1  C   LIG     1      -1.370  -0.069  -0.123  1.00  0.00    -0.025 A 
HETATM    2  C   LIG     1      -0.719   1.157   0.083  1.00  0.00     0.014 A 
HETATM    3  C   LIG     1      -0.571  -1.216  -0.244  1.00  0.00     0.014 A 
HETATM    4  C   LIG     1       1.464   0.096  -0.033  1.00  0.00     0.046 A 
HETATM    5  N   LIG     1       2.848   0.156   0.158  1.00  0.00    -0.102 NA
HETATM    6  C   LIG     1       0.677   1.233   0.150  1.00  0.00     0.027 A 
HETATM    7  C   LIG     1       0.825  -1.135  -0.177  1.00  0.00     0.027 A 
ENDROOT
BRANCH   1   8
HETATM    8  C   LIG     1      -2.837  -0.149  -0.191  1.00  0.00    -0.011 A 
HETATM    9  C   LIG     1      -3.564  -1.066   0.571  1.00  0.00     0.099 A 
HETATM   10  N   LIG     1      -4.914  -1.195   0.552  1.00  0.00    -0.374 N 
HETATM   11  C   LIG     1      -5.588  -0.363  -0.268  1.00  0.00     0.087 A 
ATOM     12  HN  LIG     1      -5.395  -1.886   1.128  1.00  0.00     0.164 HD
HETATM   13  C   LIG     1      -4.976   0.588  -1.066  1.00  0.00     0.018 A 
HETATM   14  C   LIG     1      -3.586   0.692  -1.024  1.00  0.00     0.015 A 
ENDBRANCH   1   8
TORSDOF 1
