REMARK  3 active torsions:
REMARK  status: ('A' for Active; 'I' for Inactive)
REMARK    1  A    between atoms: C_3  and  C_7 
REMARK    2  A    between atoms: C_12  and  C_16 
REMARK    3  A    between atoms: O_13  and  C_16 
ROOT
HETATM    1  C   LIG     1      -0.848   2.225  -0.114  1.00  0.00    -0.009 A 
HETATM    2  C   LIG     1      -2.129   2.693  -0.441  1.00  0.00     0.014 A 
HETATM    3  C   LIG     1       0.160   3.174   0.120  1.00  0.00     0.014 A 
HETATM    4  C   LIG     1      -2.394   4.063  -0.530  1.00  0.00     0.010 A 
HETATM    5  C   LIG     1      -0.103   4.547   0.029  1.00  0.00     0.010 A 
HETATM    6  C   LIG     1      -1.383   5.004  -0.299  1.00  0.00    -0.035 A 
ENDROOT
BRANCH   1   7
HETATM    7  C   LIG     1      -0.539   0.797  -0.006  1.00  0.00     0.049 A 
HETATM    8  N   LIG     1       0.729   0.358   0.360  1.00  0.00    -0.353 N 
HETATM    9  C   LIG     1       0.767  -0.958   0.399  1.00  0.00     0.047 A 
ATOM     10  HN  LIG     1       1.518   0.969   0.569  1.00  0.00     0.166 HD
HETATM   11  S   LIG     1      -0.704  -1.750   0.005  1.00  0.00    -0.087 SA
HETATM   12  C   LIG     1       1.965  -1.759   0.770  1.00  0.00     0.076 C 
HETATM   13  C   LIG     1      -1.442  -0.224  -0.244  1.00  0.00     0.081 A 
ENDBRANCH   1   7
BRANCH   6  14
HETATM   14  C   LIG     1      -1.687   6.475  -0.398  1.00  0.00     0.202 C 
BRANCH  14  15
HETATM   15  O   LIG     1      -2.140   6.807  -1.705  1.00  0.00    -0.396 OA
ATOM     16  HO  LIG     1      -2.332   7.735  -1.767  1.00  0.00     0.209 HD
ENDBRANCH  14  15
ENDBRANCH   6  14
TORSDOF 3
