REMARK  1 active torsions:
REMARK  status: ('A' for Active; 'I' for Inactive)
REMARK    1  A    between atoms: C_1  and  C_6 
ROOT
HETATM    1  C   LIG     1      -2.201   0.051  -0.097  1.00  0.00     0.113 A 
HETATM    2  N   LIG     1      -1.318   1.115  -0.038  1.00  0.00    -0.345 N 
HETATM    3  C   LIG     1      -1.452  -1.120  -0.060  1.00  0.00     0.058 A 
HETATM    4  C   LIG     1      -0.029   0.624   0.029  1.00  0.00     0.052 A 
HETATM    5  C   LIG     1      -0.088  -0.736   0.018  1.00  0.00     0.034 A 
HETATM    6  S   LIG     1       1.477  -1.471   0.101  1.00  0.00    -0.100 SA
HETATM    7  C   LIG     1       1.300   1.131   0.105  1.00  0.00     0.038 A 
HETATM    8  C   LIG     1       2.201   0.088   0.149  1.00  0.00     0.053 A 
HETATM    9  C   LIG     1      -1.622   2.526  -0.042  1.00  0.00     0.157 C 
ENDROOT
BRANCH   1  10
HETATM   10  C   LIG     1      -3.644   0.091  -0.182  1.00  0.00     0.227 C 
HETATM   11  O   LIG     1      -4.409  -0.861  -0.224  1.00  0.00    -0.643 OA
HETATM   12  O   LIG     1      -4.137   1.345  -0.218  1.00  0.00    -0.643 OA
ENDBRANCH   1  10
TORSDOF 1
