REMARK  3 active torsions:
REMARK  status: ('A' for Active; 'I' for Inactive)
REMARK    1  A    between atoms: C_1  and  C_5 
REMARK    2  A    between atoms: N_12  and  C_16 
REMARK    3  A    between atoms: C_15  and  C_16 
ROOT
HETATM    1  C   LIG     1       2.137  -1.321  -0.004  1.00  0.00    -0.002 A 
HETATM    2  C   LIG     1       3.422  -0.779  -0.152  1.00  0.00     0.015 A 
HETATM    3  C   LIG     1       2.004  -2.719  -0.043  1.00  0.00     0.015 A 
HETATM    4  C   LIG     1       3.116  -3.550  -0.223  1.00  0.00     0.010 A 
HETATM    5  C   LIG     1       4.536  -1.609  -0.335  1.00  0.00     0.010 A 
HETATM    6  C   LIG     1       4.394  -3.002  -0.379  1.00  0.00    -0.033 A 
ENDROOT
BRANCH   1   7
HETATM    7  C   LIG     1       0.928  -0.491   0.150  1.00  0.00     0.084 A 
HETATM    8  N   LIG     1      -0.285  -0.881  -0.199  1.00  0.00    -0.359 N 
HETATM    9  C   LIG     1      -1.203   0.119   0.051  1.00  0.00     0.096 A 
ATOM     10  HN  LIG     1      -0.511  -1.792  -0.597  1.00  0.00     0.166 HD
HETATM   11  C   LIG     1      -0.693   1.261   0.625  1.00  0.00     0.069 A 
HETATM   12  S   LIG     1       0.994   1.086   0.851  1.00  0.00    -0.082 SA
ENDBRANCH   1   7
BRANCH   6  13
HETATM   13  C   LIG     1       5.599  -3.891  -0.587  1.00  0.00     0.270 C 
BRANCH  13  14
HETATM   14  N   LIG     1       6.244  -3.613  -1.872  1.00  0.00    -0.075 N 
HETATM   15  C   LIG     1       7.387  -4.489  -2.083  1.00  0.00     0.267 C 
ATOM     16  HN2 LIG     1       5.581  -3.667  -2.645  1.00  0.00     0.277 HD
ATOM     17  HN1 LIG     1       6.503  -2.630  -1.958  1.00  0.00     0.277 HD
ENDBRANCH  13  14
ENDBRANCH   6  13
TORSDOF 3
