REMARK  3 active torsions:
REMARK  status: ('A' for Active; 'I' for Inactive)
REMARK    1  A    between atoms: C_3  and  C_4 
REMARK    2  A    between atoms: C_9  and  C_13 
REMARK    3  A    between atoms: O_10  and  C_13 
ROOT
HETATM    1  C   LIG     1      -1.121  -2.543  -0.263  1.00  0.00    -0.009 A 
HETATM    2  C   LIG     1      -0.518  -3.749   0.137  1.00  0.00     0.014 A 
HETATM    3  C   LIG     1      -2.346  -2.638  -0.948  1.00  0.00     0.014 A 
HETATM    4  C   LIG     1      -2.953  -3.873  -1.203  1.00  0.00     0.010 A 
HETATM    5  C   LIG     1      -1.119  -4.988  -0.116  1.00  0.00     0.010 A 
HETATM    6  C   LIG     1      -2.350  -5.059  -0.776  1.00  0.00    -0.035 A 
ENDROOT
BRANCH   1   7
HETATM    7  C   LIG     1      -0.503  -1.226   0.004  1.00  0.00     0.042 A 
HETATM    8  N   LIG     1      -0.772  -0.251  -0.903  1.00  0.00    -0.365 N 
HETATM    9  C   LIG     1      -0.224   0.969  -0.707  1.00  0.00     0.088 A 
ATOM     10  HN  LIG     1      -1.370  -0.434  -1.709  1.00  0.00     0.165 HD
HETATM   11  C   LIG     1       0.590   1.285   0.365  1.00  0.00     0.017 A 
HETATM   12  C   LIG     1       0.854   0.291   1.296  1.00  0.00     0.004 A 
HETATM   13  C   LIG     1       0.302  -0.977   1.118  1.00  0.00     0.030 A 
ENDBRANCH   1   7
BRANCH   6  14
HETATM   14  C   LIG     1      -2.979  -6.392  -1.077  1.00  0.00     0.202 C 
BRANCH  14  15
HETATM   15  O   LIG     1      -2.525  -6.890  -2.328  1.00  0.00    -0.396 OA
ATOM     16  HO  LIG     1      -2.922  -7.732  -2.518  1.00  0.00     0.209 HD
ENDBRANCH  14  15
ENDBRANCH   6  14
TORSDOF 3
