REMARK  2 active torsions:
REMARK  status: ('A' for Active; 'I' for Inactive)
REMARK    1  A    between atoms: C_1  and  C_2 
REMARK    2  A    between atoms: C_4  and  C_7 
ROOT
HETATM    1  C   LIG     1       0.227  -0.437   1.435  1.00  0.00     0.041 A 
HETATM    2  C   LIG     1       0.168  -1.813   1.695  1.00  0.00     0.032 A 
HETATM    3  C   LIG     1      -0.620  -2.328   2.744  1.00  0.00    -0.009 A 
HETATM    4  C   LIG     1      -0.540   0.448   2.198  1.00  0.00     0.018 A 
HETATM    5  C   LIG     1      -1.360  -1.409   3.511  1.00  0.00     0.014 A 
HETATM    6  C   LIG     1      -1.329  -0.038   3.237  1.00  0.00     0.002 A 
ENDROOT
BRANCH   3   7
HETATM    7  C   LIG     1      -0.643  -3.782   3.010  1.00  0.00     0.042 A 
HETATM    8  N   LIG     1       0.503  -4.446   2.702  1.00  0.00    -0.365 N 
HETATM    9  C   LIG     1       0.540  -5.779   2.922  1.00  0.00     0.088 A 
ATOM     10  HN  LIG     1       1.309  -3.954   2.317  1.00  0.00     0.165 HD
HETATM   11  C   LIG     1      -0.520  -6.505   3.435  1.00  0.00     0.017 A 
HETATM   12  C   LIG     1      -1.689  -5.823   3.741  1.00  0.00     0.004 A 
HETATM   13  C   LIG     1      -1.755  -4.447   3.526  1.00  0.00     0.030 A 
ENDBRANCH   3   7
BRANCH   1  14
HETATM   14  C   LIG     1       1.057   0.120   0.339  1.00  0.00     0.209 C 
HETATM   15  O   LIG     1       0.752   1.131  -0.273  1.00  0.00    -0.644 OA
HETATM   16  O   LIG     1       2.203  -0.558   0.118  1.00  0.00    -0.644 OA
ENDBRANCH   1  14
TORSDOF 2
