REMARK  2 active torsions:
REMARK  status: ('A' for Active; 'I' for Inactive)
REMARK    1  A    between atoms: C_9  and  C_14 
REMARK    2  A    between atoms: N_10  and  C_14 
ROOT
HETATM    1  N   LIG     1      -2.028  -1.387  -0.012  1.00  0.00    -0.360 N 
HETATM    2  C   LIG     1      -0.721  -0.943  -0.029  1.00  0.00     0.044 A 
HETATM    3  C   LIG     1      -0.769   0.454  -0.027  1.00  0.00    -0.007 A 
HETATM    4  C   LIG     1      -2.892  -0.322  -0.013  1.00  0.00     0.091 A 
HETATM    5  C   LIG     1      -2.141   0.830  -0.022  1.00  0.00     0.031 A 
HETATM    6  C   LIG     1       0.497  -1.638  -0.046  1.00  0.00     0.031 A 
HETATM    7  C   LIG     1       0.440   1.182  -0.037  1.00  0.00     0.022 A 
HETATM    8  C   LIG     1       1.683  -0.894  -0.053  1.00  0.00     0.011 A 
HETATM    9  C   LIG     1       1.674   0.507  -0.047  1.00  0.00    -0.032 A 
HETATM   10  C   LIG     1      -2.454  -2.768   0.001  1.00  0.00     0.155 C 
ENDROOT
BRANCH   9  11
HETATM   11  C   LIG     1       2.971   1.283  -0.095  1.00  0.00     0.270 C 
BRANCH  11  12
HETATM   12  N   LIG     1       3.833   0.975   1.048  1.00  0.00    -0.075 N 
HETATM   13  C   LIG     1       5.065   1.749   0.996  1.00  0.00     0.267 C 
ATOM     14  HN2 LIG     1       3.344   1.105   1.934  1.00  0.00     0.277 HD
ATOM     15  HN1 LIG     1       4.020  -0.025   1.120  1.00  0.00     0.277 HD
ENDBRANCH  11  12
ENDBRANCH   9  11
TORSDOF 2
