REMARK  1 active torsions:
REMARK  status: ('A' for Active; 'I' for Inactive)
REMARK    1  A    between atoms: C_1  and  C_5 
ROOT
HETATM    1  C   LIG     1      -1.389  -0.198  -0.131  1.00  0.00    -0.000 A 
HETATM    2  C   LIG     1      -0.512  -1.288  -0.341  1.00  0.00     0.057 A 
HETATM    3  N   LIG     1      -0.990  -2.589  -0.595  1.00  0.00    -0.102 NA
HETATM    4  C   LIG     1      -0.844   1.051   0.227  1.00  0.00     0.014 A 
HETATM    5  C   LIG     1       0.857  -1.122  -0.083  1.00  0.00     0.027 A 
HETATM    6  C   LIG     1       0.528   1.212   0.420  1.00  0.00     0.001 A 
HETATM    7  C   LIG     1       1.378   0.122   0.275  1.00  0.00     0.002 A 
ENDROOT
BRANCH   1   8
HETATM    8  C   LIG     1      -2.845  -0.320  -0.285  1.00  0.00    -0.009 A 
HETATM    9  C   LIG     1      -3.527   0.312  -1.325  1.00  0.00     0.100 A 
HETATM   10  N   LIG     1      -4.866   0.240  -1.525  1.00  0.00    -0.374 N 
HETATM   11  C   LIG     1      -5.569  -0.497  -0.640  1.00  0.00     0.087 A 
ATOM     12  HN  LIG     1      -5.318   0.718  -2.304  1.00  0.00     0.164 HD
HETATM   13  C   LIG     1      -4.999  -1.166   0.429  1.00  0.00     0.018 A 
HETATM   14  C   LIG     1      -3.620  -1.074   0.605  1.00  0.00     0.015 A 
ENDBRANCH   1   8
TORSDOF 1
