REMARK  2 active torsions:
REMARK  status: ('A' for Active; 'I' for Inactive)
REMARK    1  A    between atoms: C_1  and  C_3 
REMARK    2  A    between atoms: C_2  and  C_5 
ROOT
HETATM    1  C   LIG     1      -1.575  -0.008   0.233  1.00  0.00     0.051 A 
HETATM    2  C   LIG     1      -1.006  -1.243  -0.155  1.00  0.00    -0.008 A 
HETATM    3  C   LIG     1      -0.792   1.163   0.280  1.00  0.00     0.019 A 
HETATM    4  C   LIG     1       0.374  -1.239  -0.468  1.00  0.00     0.013 A 
HETATM    5  C   LIG     1       0.566   1.125  -0.026  1.00  0.00     0.001 A 
HETATM    6  C   LIG     1       1.150  -0.078  -0.397  1.00  0.00     0.001 A 
ENDROOT
BRANCH   2   7
HETATM    7  C   LIG     1      -1.748  -2.518  -0.276  1.00  0.00    -0.009 A 
HETATM    8  C   LIG     1      -1.249  -3.705   0.271  1.00  0.00     0.099 A 
HETATM    9  N   LIG     1      -1.844  -4.921   0.183  1.00  0.00    -0.374 N 
HETATM   10  C   LIG     1      -3.019  -4.968  -0.473  1.00  0.00     0.087 A 
ATOM     11  HN  LIG     1      -1.424  -5.755   0.592  1.00  0.00     0.164 HD
HETATM   12  C   LIG     1      -3.615  -3.862  -1.053  1.00  0.00     0.018 A 
HETATM   13  C   LIG     1      -2.963  -2.631  -0.965  1.00  0.00     0.015 A 
ENDBRANCH   2   7
BRANCH   1  14
HETATM   14  C   LIG     1      -2.995   0.185   0.612  1.00  0.00     0.210 C 
HETATM   15  O   LIG     1      -3.670   1.158   0.342  1.00  0.00    -0.644 OA
HETATM   16  O   LIG     1      -3.463  -0.796   1.400  1.00  0.00    -0.644 OA
ENDBRANCH   1  14
TORSDOF 2
