REMARK  3 active torsions:
REMARK  status: ('A' for Active; 'I' for Inactive)
REMARK    1  A    between atoms: C_1  and  C_2 
REMARK    2  A    between atoms: C_9  and  C_16 
REMARK    3  A    between atoms: O_12  and  C_16 
ROOT
HETATM    1  C   LIG     1      -1.393  -0.087  -0.100  1.00  0.00    -0.023 A 
HETATM    2  C   LIG     1      -0.743   1.163  -0.119  1.00  0.00     0.021 A 
HETATM    3  C   LIG     1       0.659   1.273  -0.088  1.00  0.00    -0.034 A 
HETATM    4  C   LIG     1      -0.578  -1.231  -0.032  1.00  0.00     0.012 A 
HETATM    5  C   LIG     1       0.815  -1.134   0.027  1.00  0.00     0.002 A 
HETATM    6  C   LIG     1       1.431   0.113   0.002  1.00  0.00     0.009 A 
ENDROOT
BRANCH   1   7
HETATM    7  C   LIG     1      -2.865  -0.191  -0.151  1.00  0.00     0.005 A 
HETATM    8  C   LIG     1      -3.586  -1.197   0.476  1.00  0.00     0.102 A 
HETATM    9  N   LIG     1      -4.933  -1.325   0.446  1.00  0.00    -0.361 N 
HETATM   10  C   LIG     1      -5.587  -0.384  -0.245  1.00  0.00     0.180 A 
ATOM     11  HN  LIG     1      -5.417  -2.088   0.919  1.00  0.00     0.166 HD
HETATM   12  N   LIG     1      -5.026   0.643  -0.894  1.00  0.00    -0.361 N 
HETATM   13  C   LIG     1      -3.675   0.707  -0.831  1.00  0.00     0.102 A 
ATOM     14  HN  LIG     1      -5.580   1.332  -1.403  1.00  0.00     0.166 HD
ENDBRANCH   1   7
BRANCH   3  15
HETATM   15  C   LIG     1       1.316   2.628  -0.099  1.00  0.00     0.202 C 
BRANCH  15  16
HETATM   16  O   LIG     1       1.429   3.144   1.219  1.00  0.00    -0.396 OA
ATOM     17  HO  LIG     1       1.843   3.999   1.212  1.00  0.00     0.209 HD
ENDBRANCH  15  16
ENDBRANCH   3  15
TORSDOF 3
