REMARK  3 active torsions:
REMARK  status: ('A' for Active; 'I' for Inactive)
REMARK    1  A    between atoms: C_3  and  C_4 
REMARK    2  A    between atoms: N_9  and  C_14 
REMARK    3  A    between atoms: C_12  and  C_14 
ROOT
HETATM    1  C   LIG     1      -1.066  -2.385  -0.151  1.00  0.00    -0.009 A 
HETATM    2  C   LIG     1      -0.372  -3.593   0.038  1.00  0.00     0.014 A 
HETATM    3  C   LIG     1      -2.393  -2.479  -0.611  1.00  0.00     0.014 A 
HETATM    4  C   LIG     1      -2.994  -3.714  -0.889  1.00  0.00     0.010 A 
HETATM    5  C   LIG     1      -0.970  -4.831  -0.237  1.00  0.00     0.010 A 
HETATM    6  C   LIG     1      -2.284  -4.905  -0.713  1.00  0.00    -0.033 A 
ENDROOT
BRANCH   1   7
HETATM    7  C   LIG     1      -0.454  -1.063   0.125  1.00  0.00     0.042 A 
HETATM    8  N   LIG     1      -1.323  -0.068   0.449  1.00  0.00    -0.365 N 
HETATM    9  C   LIG     1      -0.819   1.157   0.715  1.00  0.00     0.088 A 
ATOM     10  HN  LIG     1      -2.327  -0.242   0.490  1.00  0.00     0.165 HD
HETATM   11  C   LIG     1       0.528   1.463   0.672  1.00  0.00     0.017 A 
HETATM   12  C   LIG     1       1.413   0.450   0.330  1.00  0.00     0.004 A 
HETATM   13  C   LIG     1       0.919  -0.825   0.052  1.00  0.00     0.030 A 
ENDBRANCH   1   7
BRANCH   6  14
HETATM   14  C   LIG     1      -2.927  -6.242  -1.004  1.00  0.00     0.270 C 
BRANCH  14  15
HETATM   15  N   LIG     1      -2.171  -6.989  -2.011  1.00  0.00    -0.075 N 
HETATM   16  C   LIG     1      -2.811  -8.262  -2.308  1.00  0.00     0.267 C 
ATOM     17  HN2 LIG     1      -2.023  -6.437  -2.856  1.00  0.00     0.277 HD
ATOM     18  HN1 LIG     1      -1.197  -7.114  -1.734  1.00  0.00     0.277 HD
ENDBRANCH  14  15
ENDBRANCH   6  14
TORSDOF 3
