REMARK  1 active torsions:
REMARK  status: ('A' for Active; 'I' for Inactive)
REMARK    1  A    between atoms: C_1  and  C_2 
ROOT
HETATM    1  C   LIG     1       0.377  -0.851  -1.089  1.00  0.00     0.222 C 
HETATM    2  O   LIG     1      -0.166  -1.848  -0.208  1.00  0.00    -0.375 OA
HETATM    3  C   LIG     1       0.802  -2.789   0.272  1.00  0.00     0.168 C 
HETATM    4  C   LIG     1       1.153  -1.461  -2.255  1.00  0.00     0.043 C 
HETATM    5  C   LIG     1       1.505  -3.506  -0.869  1.00  0.00     0.026 C 
HETATM    6  C   LIG     1       2.169  -2.498  -1.793  1.00  0.00     0.005 C 
ENDROOT
BRANCH   1   7
HETATM    7  C   LIG     1       1.165   0.209  -0.309  1.00  0.00     0.203 C 
HETATM    8  O   LIG     1       2.073   0.894  -0.752  1.00  0.00    -0.646 OA
HETATM    9  O   LIG     1       0.699   0.336   0.962  1.00  0.00    -0.646 OA
ENDBRANCH   1   7
TORSDOF 1
