REMARK  0 active torsions:
REMARK  status: ('A' for Active; 'I' for Inactive)
ROOT
HETATM    1  N   LIG     1      -1.592  -1.090   0.022  1.00  0.00    -0.360 N 
HETATM    2  C   LIG     1      -0.275  -0.681   0.013  1.00  0.00     0.044 A 
HETATM    3  C   LIG     1      -0.286   0.717  -0.005  1.00  0.00    -0.006 A 
HETATM    4  C   LIG     1      -2.427  -0.000   0.018  1.00  0.00     0.091 A 
HETATM    5  C   LIG     1      -1.646   1.131  -0.002  1.00  0.00     0.031 A 
HETATM    6  C   LIG     1       0.928  -1.403  -0.005  1.00  0.00     0.032 A 
HETATM    7  C   LIG     1       0.941   1.413  -0.036  1.00  0.00     0.040 A 
HETATM    8  C   LIG     1       2.153   0.711   0.000  1.00  0.00     0.047 A 
HETATM    9  C   LIG     1       2.130  -0.682  -0.034  1.00  0.00     0.029 A 
HETATM   10  N   LIG     1       3.365   1.398  -0.164  1.00  0.00    -0.102 NA
HETATM   11  C   LIG     1      -2.072  -2.453   0.016  1.00  0.00     0.155 C 
ENDROOT
TORSDOF 0
