REMARK  1 active torsions:
REMARK  status: ('A' for Active; 'I' for Inactive)
REMARK    1  A    between atoms: C_1  and  C_2 
ROOT
HETATM    1  C   LIG     1      -2.831  -0.173  -0.203  1.00  0.00     0.005 A 
HETATM    2  N   LIG     1      -4.959   0.572  -1.096  1.00  0.00    -0.361 N 
ATOM      3  HN  LIG     1      -5.495   1.180  -1.715  1.00  0.00     0.166 HD
HETATM    4  N   LIG     1      -4.915  -1.165   0.542  1.00  0.00    -0.361 N 
ATOM      5  HN  LIG     1      -5.419  -1.835   1.123  1.00  0.00     0.166 HD
HETATM    6  C   LIG     1      -5.545  -0.332  -0.298  1.00  0.00     0.180 A 
HETATM    7  C   LIG     1      -3.568  -1.059   0.568  1.00  0.00     0.102 A 
HETATM    8  C   LIG     1      -3.610   0.624  -1.025  1.00  0.00     0.102 A 
ENDROOT
BRANCH   1   9
HETATM    9  C   LIG     1      -1.367  -0.088  -0.153  1.00  0.00    -0.021 A 
HETATM   10  C   LIG     1      -0.717   1.154  -0.016  1.00  0.00     0.038 A 
HETATM   11  C   LIG     1       0.680   1.257   0.002  1.00  0.00     0.047 A 
HETATM   12  N   LIG     1       1.292   2.488   0.268  1.00  0.00    -0.102 NA
HETATM   13  C   LIG     1       1.437   0.086  -0.012  1.00  0.00     0.026 A 
HETATM   14  C   LIG     1       0.820  -1.157  -0.150  1.00  0.00     0.003 A 
HETATM   15  C   LIG     1      -0.571  -1.241  -0.229  1.00  0.00     0.012 A 
ENDBRANCH   1   9
TORSDOF 1
