REMARK  4 active torsions:
REMARK  status: ('A' for Active; 'I' for Inactive)
REMARK    1  A    between atoms: C_1  and  O_6 
REMARK    2  A    between atoms: C_4  and  C_8 
REMARK    3  A    between atoms: O_6  and  C_7 
REMARK    4  A    between atoms: C_8  and  O_9 
ROOT
HETATM    1  C   LIG     1      -1.133   0.765   0.961  1.00  0.00     0.190 A 
HETATM    2  O   LIG     1       0.087   0.188   0.756  1.00  0.00    -0.290 OA
HETATM    3  C   LIG     1      -0.979   2.123   1.160  1.00  0.00     0.067 A 
HETATM    4  C   LIG     1       1.026   1.175   0.865  1.00  0.00     0.079 A 
HETATM    5  C   LIG     1       0.413   2.383   1.116  1.00  0.00     0.040 A 
ENDROOT
BRANCH   1   6
HETATM    6  O   LIG     1      -2.149  -0.091   0.899  1.00  0.00    -0.288 OA
BRANCH   6   7
HETATM    7  C   LIG     1      -3.377   0.195   1.451  1.00  0.00     0.078 A 
HETATM    8  C   LIG     1      -4.501  -0.286   0.777  1.00  0.00     0.037 A 
HETATM    9  C   LIG     1      -5.778  -0.094   1.312  1.00  0.00     0.003 A 
HETATM   10  C   LIG     1      -5.931   0.576   2.526  1.00  0.00     0.000 A 
HETATM   11  C   LIG     1      -4.809   1.041   3.210  1.00  0.00     0.003 A 
HETATM   12  C   LIG     1      -3.532   0.838   2.682  1.00  0.00     0.037 A 
ENDBRANCH   6   7
ENDBRANCH   1   6
BRANCH   4  13
HETATM   13  C   LIG     1       2.439   0.770   0.682  1.00  0.00     0.229 C 
BRANCH  13  14
HETATM   14  O   LIG     1       2.571   0.222  -0.624  1.00  0.00    -0.394 OA
ATOM     15  HO  LIG     1       3.477  -0.038  -0.741  1.00  0.00     0.209 HD
ENDBRANCH  13  14
ENDBRANCH   4  13
TORSDOF 4
