REMARK  3 active torsions:
REMARK  status: ('A' for Active; 'I' for Inactive)
REMARK    1  A    between atoms: C_1  and  C_7 
REMARK    2  A    between atoms: C_2  and  C_8 
REMARK    3  A    between atoms: C_8  and  O_10 
ROOT
HETATM    1  C   LIG     1       1.286  -1.252  -0.347  1.00  0.00     0.058 A 
HETATM    2  C   LIG     1       1.986  -0.074  -0.120  1.00  0.00     0.035 A 
HETATM    3  N   LIG     1      -0.099  -1.116  -0.296  1.00  0.00    -0.353 N 
ATOM      4  HN  LIG     1      -0.762  -1.873  -0.465  1.00  0.00     0.166 HD
HETATM    5  S   LIG     1       0.872   1.193   0.238  1.00  0.00    -0.077 SA
HETATM    6  C   LIG     1      -0.436   0.116  -0.001  1.00  0.00     0.047 A 
HETATM    7  C   LIG     1      -1.841   0.587   0.132  1.00  0.00     0.076 C 
ENDROOT
BRANCH   1   8
HETATM    8  C   LIG     1       1.858  -2.560  -0.673  1.00  0.00    -0.008 A 
HETATM    9  C   LIG     1       3.081  -3.008  -0.157  1.00  0.00     0.014 A 
HETATM   10  C   LIG     1       3.578  -4.272  -0.492  1.00  0.00     0.001 A 
HETATM   11  C   LIG     1       2.848  -5.115  -1.328  1.00  0.00     0.000 A 
HETATM   12  C   LIG     1       1.619  -4.696  -1.827  1.00  0.00     0.001 A 
HETATM   13  C   LIG     1       1.129  -3.428  -1.502  1.00  0.00     0.014 A 
ENDBRANCH   1   8
BRANCH   2  14
HETATM   14  C   LIG     1       3.439   0.245  -0.159  1.00  0.00     0.212 C 
BRANCH  14  15
HETATM   15  O   LIG     1       3.964   0.040   1.148  1.00  0.00    -0.396 OA
ATOM     16  HO  LIG     1       4.892   0.244   1.123  1.00  0.00     0.209 HD
ENDBRANCH  14  15
ENDBRANCH   2  14
TORSDOF 3
