REMARK  4 active torsions:
REMARK  status: ('A' for Active; 'I' for Inactive)
REMARK    1  A    between atoms: C_1  and  C_7 
REMARK    2  A    between atoms: C_2  and  C_8 
REMARK    3  A    between atoms: C_7  and  O_10 
REMARK    4  A    between atoms: O_10  and  C_14 
ROOT
HETATM    1  C   LIG     1      -0.198  -1.151   0.108  1.00  0.00     0.109 A 
HETATM    2  C   LIG     1       1.148  -0.849  -0.040  1.00  0.00     0.066 A 
HETATM    3  N   LIG     1       1.437   0.516  -0.075  1.00  0.00    -0.352 N 
ATOM      4  HN  LIG     1       2.375   0.909  -0.160  1.00  0.00     0.166 HD
HETATM    5  S   LIG     1      -1.109   0.320   0.125  1.00  0.00    -0.069 SA
HETATM    6  C   LIG     1       0.336   1.225   0.016  1.00  0.00     0.048 A 
HETATM    7  C   LIG     1       0.286   2.712   0.031  1.00  0.00     0.076 C 
ENDROOT
BRANCH   2   8
HETATM    8  C   LIG     1       2.262  -1.795  -0.107  1.00  0.00    -0.008 A 
HETATM    9  C   LIG     1       3.437  -1.495   0.600  1.00  0.00     0.014 A 
HETATM   10  C   LIG     1       4.525  -2.371   0.597  1.00  0.00     0.001 A 
HETATM   11  C   LIG     1       4.450  -3.567  -0.110  1.00  0.00     0.000 A 
HETATM   12  C   LIG     1       3.307  -3.861  -0.852  1.00  0.00     0.001 A 
HETATM   13  C   LIG     1       2.228  -2.968  -0.872  1.00  0.00     0.014 A 
ENDBRANCH   2   8
BRANCH   1  14
HETATM   14  C   LIG     1      -0.938  -2.380   0.267  1.00  0.00     0.302 C 
HETATM   15  O   LIG     1      -2.102  -2.555  -0.067  1.00  0.00    -0.259 OA
BRANCH  14  16
HETATM   16  O   LIG     1      -0.169  -3.322   0.882  1.00  0.00    -0.317 OA
BRANCH  16  17
HETATM   17  C   LIG     1      -0.762  -4.617   1.051  1.00  0.00     0.174 C 
HETATM   18  C   LIG     1       0.097  -5.635   0.326  1.00  0.00     0.034 C 
ENDBRANCH  16  17
ENDBRANCH  14  16
ENDBRANCH   1  14
TORSDOF 4
