REMARK  2 active torsions:
REMARK  status: ('A' for Active; 'I' for Inactive)
REMARK    1  A    between atoms: N_3  and  C_7 
REMARK    2  A    between atoms: C_7  and  C_8 
ROOT
HETATM    1  C   LIG     1      -0.165  -3.412  -2.095  1.00  0.00    -0.040 A 
HETATM    2  C   LIG     1       0.210  -5.121  -4.314  1.00  0.00     0.046 A 
HETATM    3  N   LIG     1       0.519  -5.949  -5.399  1.00  0.00    -0.102 NA
HETATM    4  C   LIG     1       0.240  -5.626  -3.013  1.00  0.00     0.027 A 
HETATM    5  C   LIG     1       0.096  -3.741  -4.489  1.00  0.00     0.027 A 
HETATM    6  C   LIG     1       0.040  -4.787  -1.914  1.00  0.00     0.011 A 
HETATM    7  C   LIG     1      -0.112  -2.894  -3.395  1.00  0.00     0.011 A 
ENDROOT
BRANCH   1   8
HETATM    8  C   LIG     1      -0.404  -2.504  -0.914  1.00  0.00     0.167 C 
BRANCH   8   9
HETATM    9  N   LIG     1      -1.610  -2.863  -0.185  1.00  0.00    -0.347 N 
HETATM   10  C   LIG     1      -2.890  -2.783  -0.657  1.00  0.00     0.182 A 
HETATM   11  N   LIG     1      -3.762  -3.151   0.254  1.00  0.00    -0.361 N 
HETATM   12  C   LIG     1      -3.016  -3.484   1.355  1.00  0.00     0.106 A 
ATOM     13  HN  LIG     1      -4.777  -3.182   0.162  1.00  0.00     0.166 HD
HETATM   14  C   LIG     1      -1.675  -3.304   1.108  1.00  0.00     0.109 A 
ENDBRANCH   8   9
ENDBRANCH   1   8
TORSDOF 2
