REMARK  4 active torsions:
REMARK  status: ('A' for Active; 'I' for Inactive)
REMARK    1  A    between atoms: N_3  and  C_7 
REMARK    2  A    between atoms: C_7  and  C_8 
REMARK    3  A    between atoms: C_9  and  C_16 
REMARK    4  A    between atoms: O_14  and  C_16 
ROOT
HETATM    1  C   LIG     1      -0.341  -3.471  -1.885  1.00  0.00    -0.040 A 
HETATM    2  C   LIG     1       0.411  -4.595  -4.363  1.00  0.00    -0.035 A 
HETATM    3  C   LIG     1       0.202  -2.667  -2.897  1.00  0.00     0.009 A 
HETATM    4  C   LIG     1      -0.494  -4.844  -2.124  1.00  0.00     0.009 A 
HETATM    5  C   LIG     1      -0.125  -5.400  -3.352  1.00  0.00     0.010 A 
HETATM    6  C   LIG     1       0.572  -3.224  -4.124  1.00  0.00     0.010 A 
ENDROOT
BRANCH   1   7
HETATM    7  C   LIG     1      -0.729  -2.869  -0.557  1.00  0.00     0.167 C 
BRANCH   7   8
HETATM    8  N   LIG     1      -2.136  -3.060  -0.248  1.00  0.00    -0.347 N 
HETATM    9  C   LIG     1      -3.194  -2.615  -0.992  1.00  0.00     0.182 A 
HETATM   10  N   LIG     1      -4.339  -2.893  -0.413  1.00  0.00    -0.361 N 
HETATM   11  C   LIG     1      -4.009  -3.539   0.751  1.00  0.00     0.106 A 
ATOM     12  HN  LIG     1      -5.275  -2.675  -0.756  1.00  0.00     0.166 HD
HETATM   13  C   LIG     1      -2.645  -3.654   0.875  1.00  0.00     0.109 A 
ENDBRANCH   7   8
ENDBRANCH   1   7
BRANCH   2  14
HETATM   14  C   LIG     1       0.819  -5.188  -5.686  1.00  0.00     0.202 C 
BRANCH  14  15
HETATM   15  O   LIG     1       0.072  -4.610  -6.748  1.00  0.00    -0.396 OA
ATOM     16  HO  LIG     1       0.329  -4.984  -7.582  1.00  0.00     0.209 HD
ENDBRANCH  14  15
ENDBRANCH   2  14
TORSDOF 4
