REMARK  4 active torsions:
REMARK  status: ('A' for Active; 'I' for Inactive)
REMARK    1  A    between atoms: N_3  and  C_7 
REMARK    2  A    between atoms: C_7  and  C_8 
REMARK    3  A    between atoms: C_10  and  C_15 
REMARK    4  A    between atoms: O_11  and  C_15 
ROOT
HETATM    1  C   LIG     1      -0.198  -3.576  -1.693  1.00  0.00    -0.039 A 
HETATM    2  C   LIG     1       0.091  -2.745  -2.789  1.00  0.00     0.018 A 
HETATM    3  C   LIG     1       0.458  -3.285  -4.029  1.00  0.00    -0.034 A 
HETATM    4  C   LIG     1       0.213  -5.513  -3.099  1.00  0.00     0.001 A 
HETATM    5  C   LIG     1      -0.135  -4.966  -1.863  1.00  0.00     0.009 A 
HETATM    6  C   LIG     1       0.506  -4.677  -4.176  1.00  0.00     0.009 A 
ENDROOT
BRANCH   1   7
HETATM    7  C   LIG     1      -0.582  -2.983  -0.359  1.00  0.00     0.167 C 
BRANCH   7   8
HETATM    8  N   LIG     1       0.464  -2.126   0.175  1.00  0.00    -0.347 N 
HETATM    9  C   LIG     1       1.683  -2.539   0.634  1.00  0.00     0.182 A 
HETATM   10  N   LIG     1       2.403  -1.527   1.060  1.00  0.00    -0.361 N 
HETATM   11  C   LIG     1       1.615  -0.419   0.877  1.00  0.00     0.106 A 
ATOM     12  HN  LIG     1       3.347  -1.558   1.445  1.00  0.00     0.166 HD
HETATM   13  C   LIG     1       0.399  -0.769   0.338  1.00  0.00     0.109 A 
ENDBRANCH   7   8
ENDBRANCH   1   7
BRANCH   3  14
HETATM   14  C   LIG     1       0.813  -2.387  -5.184  1.00  0.00     0.202 C 
BRANCH  14  15
HETATM   15  O   LIG     1       2.151  -2.622  -5.603  1.00  0.00    -0.396 OA
ATOM     16  HO  LIG     1       2.375  -2.055  -6.332  1.00  0.00     0.209 HD
ENDBRANCH  14  15
ENDBRANCH   3  14
TORSDOF 4
