REMARK  3 active torsions:
REMARK  status: ('A' for Active; 'I' for Inactive)
REMARK    1  A    between atoms: C_1  and  C_7 
REMARK    2  A    between atoms: C_8  and  C_13 
REMARK    3  A    between atoms: C_13  and  O_14 
ROOT
HETATM    1  C   LIG     1      -0.180  -1.159   0.033  1.00  0.00     0.067 A 
HETATM    2  N   LIG     1      -0.839   0.041  -0.028  1.00  0.00    -0.299 N 
ATOM      3  HN  LIG     1      -1.856   0.114  -0.070  1.00  0.00     0.187 HD
HETATM    4  N   LIG     1      -0.027   1.114  -0.028  1.00  0.00    -0.302 N 
ATOM      5  HN  LIG     1      -0.285   2.100  -0.072  1.00  0.00     0.186 HD
HETATM    6  C   LIG     1       1.158  -0.833   0.081  1.00  0.00     0.061 A 
HETATM    7  C   LIG     1       1.203   0.579   0.043  1.00  0.00     0.051 A 
ENDROOT
BRANCH   1   8
HETATM    8  C   LIG     1      -0.838  -2.434   0.040  1.00  0.00     0.033 A 
HETATM    9  S   LIG     1      -2.549  -2.576  -0.029  1.00  0.00    -0.100 SA
HETATM   10  C   LIG     1      -2.483  -4.282   0.020  1.00  0.00     0.050 A 
HETATM   11  C   LIG     1      -1.189  -4.746   0.085  1.00  0.00     0.008 A 
HETATM   12  C   LIG     1      -0.242  -3.680   0.097  1.00  0.00     0.021 A 
ENDBRANCH   1   8
BRANCH   7  13
HETATM   13  C   LIG     1       2.408   1.466   0.069  1.00  0.00     0.222 C 
BRANCH  13  14
HETATM   14  O   LIG     1       2.060   2.851   0.017  1.00  0.00    -0.395 OA
ATOM     15  HO  LIG     1       2.825   3.414   0.034  1.00  0.00     0.209 HD
ENDBRANCH  13  14
ENDBRANCH   7  13
TORSDOF 3
