REMARK  3 active torsions:
REMARK  status: ('A' for Active; 'I' for Inactive)
REMARK    1  A    between atoms: C_1  and  N_2 
REMARK    2  A    between atoms: C_3  and  C_6 
REMARK    3  A    between atoms: C_6  and  N_7 
ROOT
HETATM    1  C   LIG     1       0.665  -1.948  -0.244  1.00  0.00     0.090 A 
HETATM    2  C   LIG     1      -0.700  -1.654  -0.087  1.00  0.00     0.006 A 
HETATM    3  N   LIG     1       1.616  -0.994  -0.105  1.00  0.00    -0.356 N 
ATOM      4  HN  LIG     1       2.603  -1.221  -0.222  1.00  0.00     0.166 HD
HETATM    5  C   LIG     1      -1.062  -0.330   0.217  1.00  0.00     0.013 A 
HETATM    6  C   LIG     1       1.228   0.265   0.192  1.00  0.00     0.089 A 
HETATM    7  C   LIG     1      -0.086   0.644   0.362  1.00  0.00     0.018 A 
ENDROOT
BRANCH   1   8
HETATM    8  N   LIG     1       1.069  -3.260  -0.530  1.00  0.00    -0.269 NA
HETATM    9  C   LIG     1       2.305  -3.381  -1.311  1.00  0.00     0.097 C 
HETATM   10  C   LIG     1       2.815  -4.766  -0.935  1.00  0.00     0.016 C 
HETATM   11  C   LIG     1       2.536  -4.801   0.557  1.00  0.00     0.016 C 
HETATM   12  C   LIG     1       1.189  -4.089   0.685  1.00  0.00     0.097 C 
ENDBRANCH   1   8
BRANCH   2  13
HETATM   13  C   LIG     1      -1.782  -2.678  -0.313  1.00  0.00     0.271 C 
BRANCH  13  14
HETATM   14  N   LIG     1      -2.625  -2.861   0.871  1.00  0.00    -0.075 N 
ATOM     15  HN3 LIG     1      -2.064  -3.091   1.691  1.00  0.00     0.274 HD
ATOM     16  HN2 LIG     1      -3.017  -1.973   1.186  1.00  0.00     0.274 HD
ATOM     17  HN1 LIG     1      -3.357  -3.554   0.718  1.00  0.00     0.274 HD
ENDBRANCH  13  14
ENDBRANCH   2  13
TORSDOF 3
