REMARK  2 active torsions:
REMARK  status: ('A' for Active; 'I' for Inactive)
REMARK    1  A    between atoms: N_3  and  C_7 
REMARK    2  A    between atoms: C_7  and  C_8 
ROOT
HETATM    1  C   LIG     1      -0.127  -3.566  -2.042  1.00  0.00    -0.038 A 
HETATM    2  C   LIG     1       0.007  -2.733  -3.167  1.00  0.00     0.035 A 
HETATM    3  C   LIG     1       0.345  -3.256  -4.419  1.00  0.00     0.046 A 
HETATM    4  N   LIG     1       0.599  -2.396  -5.495  1.00  0.00    -0.102 NA
HETATM    5  C   LIG     1       0.512  -5.458  -3.414  1.00  0.00     0.002 A 
HETATM    6  C   LIG     1       0.114  -4.938  -2.184  1.00  0.00     0.009 A 
HETATM    7  C   LIG     1       0.650  -4.614  -4.518  1.00  0.00     0.026 A 
ENDROOT
BRANCH   1   8
HETATM    8  C   LIG     1      -0.534  -2.992  -0.710  1.00  0.00     0.167 C 
BRANCH   8   9
HETATM    9  N   LIG     1      -1.975  -3.022  -0.539  1.00  0.00    -0.347 N 
HETATM   10  C   LIG     1      -2.837  -2.008  -0.848  1.00  0.00     0.182 A 
HETATM   11  N   LIG     1      -4.076  -2.323  -0.550  1.00  0.00    -0.361 N 
HETATM   12  C   LIG     1      -4.010  -3.588  -0.023  1.00  0.00     0.106 A 
ATOM     13  HN  LIG     1      -4.909  -1.750  -0.682  1.00  0.00     0.166 HD
HETATM   14  C   LIG     1      -2.711  -4.036   0.010  1.00  0.00     0.109 A 
ENDBRANCH   8   9
ENDBRANCH   1   8
TORSDOF 2
