REMARK  3 active torsions:
REMARK  status: ('A' for Active; 'I' for Inactive)
REMARK    1  A    between atoms: C_1  and  N_2 
REMARK    2  A    between atoms: C_7  and  C_15 
REMARK    3  A    between atoms: O_11  and  C_15 
ROOT
HETATM    1  C   LIG     1      -1.885  -0.413  -0.937  1.00  0.00     0.082 A 
HETATM    2  N   LIG     1      -1.840  -1.446  -1.805  1.00  0.00    -0.357 N 
ATOM      3  HN  LIG     1      -2.599  -2.126  -1.842  1.00  0.00     0.166 HD
HETATM    4  C   LIG     1      -0.826   0.497  -0.871  1.00  0.00     0.051 A 
HETATM    5  C   LIG     1       0.275   0.372  -1.728  1.00  0.00    -0.030 A 
HETATM    6  C   LIG     1      -0.773  -1.564  -2.624  1.00  0.00     0.090 A 
HETATM    7  C   LIG     1       0.294  -0.688  -2.629  1.00  0.00     0.026 A 
ENDROOT
BRANCH   1   8
HETATM    8  N   LIG     1      -2.980  -0.281  -0.070  1.00  0.00    -0.265 NA
HETATM    9  C   LIG     1      -3.951  -1.399  -0.129  1.00  0.00     0.123 C 
HETATM   10  C   LIG     1      -4.925  -1.240  -1.311  1.00  0.00     0.182 C 
HETATM   11  O   LIG     1      -5.595   0.034  -1.272  1.00  0.00    -0.389 OA
HETATM   12  C   LIG     1      -4.634   1.102  -1.308  1.00  0.00     0.182 C 
HETATM   13  C   LIG     1      -3.671   1.027  -0.111  1.00  0.00     0.123 C 
ENDBRANCH   1   8
BRANCH   5  14
HETATM   14  C   LIG     1       1.415   1.349  -1.675  1.00  0.00     0.203 C 
BRANCH  14  15
HETATM   15  O   LIG     1       2.618   0.687  -1.310  1.00  0.00    -0.396 OA
ATOM     16  HO  LIG     1       3.339   1.305  -1.276  1.00  0.00     0.209 HD
ENDBRANCH  14  15
ENDBRANCH   5  14
TORSDOF 3
