REMARK  3 active torsions:
REMARK  status: ('A' for Active; 'I' for Inactive)
REMARK    1  A    between atoms: C_1  and  C_2 
REMARK    2  A    between atoms: C_12  and  C_17 
REMARK    3  A    between atoms: O_15  and  C_17 
ROOT
HETATM    1  C   LIG     1      -1.377   2.433  -0.071  1.00  0.00    -0.023 A 
HETATM    2  C   LIG     1      -2.750   2.475  -0.374  1.00  0.00     0.013 A 
HETATM    3  C   LIG     1      -0.718   3.665   0.092  1.00  0.00     0.013 A 
HETATM    4  C   LIG     1      -1.398   4.884  -0.048  1.00  0.00     0.010 A 
HETATM    5  C   LIG     1      -3.432   3.690  -0.523  1.00  0.00     0.010 A 
HETATM    6  C   LIG     1      -2.757   4.905  -0.373  1.00  0.00    -0.035 A 
ENDROOT
BRANCH   1   7
HETATM    7  C   LIG     1      -0.660   1.155   0.067  1.00  0.00     0.005 A 
HETATM    8  C   LIG     1       0.338   0.932   1.004  1.00  0.00     0.102 A 
HETATM    9  N   LIG     1       1.020  -0.230   1.149  1.00  0.00    -0.361 N 
HETATM   10  C   LIG     1       0.670  -1.217   0.317  1.00  0.00     0.180 A 
ATOM     11  HN  LIG     1       1.754  -0.345   1.848  1.00  0.00     0.166 HD
HETATM   12  N   LIG     1      -0.276  -1.143  -0.629  1.00  0.00    -0.361 N 
HETATM   13  C   LIG     1      -0.912   0.048  -0.731  1.00  0.00     0.102 A 
ATOM     14  HN  LIG     1      -0.502  -1.933  -1.233  1.00  0.00     0.166 HD
ENDBRANCH   1   7
BRANCH   6  15
HETATM   15  C   LIG     1      -3.488   6.213  -0.516  1.00  0.00     0.202 C 
BRANCH  15  16
HETATM   16  O   LIG     1      -4.042   6.618   0.728  1.00  0.00    -0.396 OA
ATOM     17  HO  LIG     1      -4.503   7.444   0.638  1.00  0.00     0.209 HD
ENDBRANCH  15  16
ENDBRANCH   6  15
TORSDOF 3
