REMARK  3 active torsions:
REMARK  status: ('A' for Active; 'I' for Inactive)
REMARK    1  A    between atoms: C_1  and  C_3 
REMARK    2  A    between atoms: C_8  and  C_14 
REMARK    3  A    between atoms: N_9  and  C_14 
ROOT
HETATM    1  C   LIG     1      -0.758  -2.484  -0.063  1.00  0.00    -0.018 A 
HETATM    2  C   LIG     1       0.156  -3.513   0.223  1.00  0.00     0.021 A 
HETATM    3  C   LIG     1      -0.203  -4.870   0.121  1.00  0.00    -0.032 A 
HETATM    4  C   LIG     1      -2.054  -2.847  -0.460  1.00  0.00     0.013 A 
HETATM    5  C   LIG     1      -2.426  -4.190  -0.560  1.00  0.00     0.001 A 
HETATM    6  C   LIG     1      -1.506  -5.197  -0.271  1.00  0.00     0.009 A 
ENDROOT
BRANCH   1   7
HETATM    7  C   LIG     1      -0.338  -1.074   0.037  1.00  0.00     0.015 A 
HETATM    8  S   LIG     1      -1.443   0.147   0.539  1.00  0.00    -0.101 SA
HETATM    9  C   LIG     1      -0.270   1.380   0.405  1.00  0.00     0.050 A 
HETATM   10  C   LIG     1       0.951   0.886   0.007  1.00  0.00     0.008 A 
HETATM   11  C   LIG     1       0.912  -0.523  -0.201  1.00  0.00     0.020 A 
ENDBRANCH   1   7
BRANCH   3  12
HETATM   12  C   LIG     1       0.796  -5.953   0.459  1.00  0.00     0.270 C 
BRANCH  12  13
HETATM   13  N   LIG     1       1.979  -5.871  -0.399  1.00  0.00    -0.075 N 
HETATM   14  C   LIG     1       2.925  -6.933  -0.086  1.00  0.00     0.267 C 
ATOM     15  HN2 LIG     1       1.728  -5.870  -1.388  1.00  0.00     0.277 HD
ATOM     16  HN1 LIG     1       2.416  -4.951  -0.350  1.00  0.00     0.277 HD
ENDBRANCH  12  13
ENDBRANCH   3  12
TORSDOF 3
