REMARK  2 active torsions:
REMARK  status: ('A' for Active; 'I' for Inactive)
REMARK    1  A    between atoms: C_5  and  C_11 
REMARK    2  A    between atoms: C_11  and  O_13 
ROOT
HETATM    1  C   LIG     1       0.313  -0.680   0.037  1.00  0.00     0.018 A 
HETATM    2  N   LIG     1       1.582   1.197  -0.044  1.00  0.00    -0.298 N 
ATOM      3  HN  LIG     1       1.904   2.165  -0.069  1.00  0.00     0.187 HD
HETATM    4  N   LIG     1       2.339   0.080  -0.051  1.00  0.00    -0.297 N 
HETATM    5  C   LIG     1       1.624  -1.094   0.009  1.00  0.00     0.064 A 
HETATM    6  C   LIG     1       0.315   0.760   0.003  1.00  0.00     0.060 A 
HETATM    7  C   LIG     1      -0.804  -1.509   0.091  1.00  0.00     0.016 A 
HETATM    8  C   LIG     1      -0.889   1.483   0.023  1.00  0.00     0.032 A 
HETATM    9  C   LIG     1      -1.998  -0.760   0.109  1.00  0.00     0.001 A 
HETATM   10  C   LIG     1      -2.042   0.669   0.076  1.00  0.00     0.002 A 
HETATM   11  C   LIG     1       3.776   0.225  -0.112  1.00  0.00     0.177 C 
ENDROOT
BRANCH   5  12
HETATM   12  C   LIG     1       2.241  -2.439   0.009  1.00  0.00     0.223 C 
BRANCH  12  13
HETATM   13  O   LIG     1       1.869  -3.088   1.215  1.00  0.00    -0.395 OA
ATOM     14  HO  LIG     1       2.265  -3.951   1.215  1.00  0.00     0.209 HD
ENDBRANCH  12  13
ENDBRANCH   5  12
TORSDOF 2
