REMARK  2 active torsions:
REMARK  status: ('A' for Active; 'I' for Inactive)
REMARK    1  A    between atoms: C_8  and  C_13 
REMARK    2  A    between atoms: O_11  and  C_13 
ROOT
HETATM    1  N   LIG     1      -1.603  -1.094   0.007  1.00  0.00    -0.360 N 
HETATM    2  C   LIG     1      -0.285  -0.686   0.009  1.00  0.00     0.044 A 
HETATM    3  C   LIG     1      -2.437  -0.005  -0.006  1.00  0.00     0.091 A 
HETATM    4  C   LIG     1      -1.656   1.126  -0.014  1.00  0.00     0.031 A 
HETATM    5  C   LIG     1      -0.296   0.712  -0.006  1.00  0.00    -0.008 A 
HETATM    6  C   LIG     1       0.919  -1.413   0.020  1.00  0.00     0.039 A 
HETATM    7  C   LIG     1       0.928   1.407  -0.013  1.00  0.00     0.014 A 
HETATM    8  C   LIG     1       2.134  -0.706   0.025  1.00  0.00    -0.033 A 
HETATM    9  C   LIG     1       2.130   0.691  -0.003  1.00  0.00     0.010 A 
HETATM   10  C   LIG     1      -2.084  -2.458   0.018  1.00  0.00     0.155 C 
ENDROOT
BRANCH   8  11
HETATM   11  C   LIG     1       3.436  -1.463   0.001  1.00  0.00     0.203 C 
BRANCH  11  12
HETATM   12  O   LIG     1       3.761  -1.858  -1.325  1.00  0.00    -0.396 OA
ATOM     13  HO  LIG     1       4.582  -2.335  -1.340  1.00  0.00     0.209 HD
ENDBRANCH  11  12
ENDBRANCH   8  11
TORSDOF 2
