REMARK  3 active torsions:
REMARK  status: ('A' for Active; 'I' for Inactive)
REMARK    1  A    between atoms: N_1  and  C_2 
REMARK    2  A    between atoms: C_3  and  C_6 
REMARK    3  A    between atoms: C_6  and  O_7 
ROOT
HETATM    1  C   LIG     1      -1.554  -1.715  -0.773  1.00  0.00     0.038 A 
HETATM    2  C   LIG     1      -2.519  -1.612  -1.809  1.00  0.00    -0.008 A 
HETATM    3  C   LIG     1      -1.214  -3.007  -0.337  1.00  0.00     0.030 A 
HETATM    4  C   LIG     1      -3.090  -2.778  -2.359  1.00  0.00     0.011 A 
HETATM    5  C   LIG     1      -1.791  -4.155  -0.887  1.00  0.00     0.002 A 
HETATM    6  C   LIG     1      -2.734  -4.040  -1.901  1.00  0.00     0.001 A 
ENDROOT
BRANCH   1   7
HETATM    7  N   LIG     1      -1.014  -0.569  -0.188  1.00  0.00    -0.380 N 
HETATM    8  C   LIG     1      -0.559  -0.575   1.208  1.00  0.00     0.123 C 
HETATM    9  C   LIG     1       0.242   0.717   1.315  1.00  0.00     0.021 C 
HETATM   10  C   LIG     1       0.978   0.732  -0.013  1.00  0.00     0.021 C 
HETATM   11  C   LIG     1      -0.069   0.218  -1.005  1.00  0.00     0.123 C 
ENDBRANCH   1   7
BRANCH   2  12
HETATM   12  C   LIG     1      -3.021  -0.281  -2.322  1.00  0.00     0.205 C 
BRANCH  12  13
HETATM   13  O   LIG     1      -3.549   0.517  -1.269  1.00  0.00    -0.396 OA
ATOM     14  HO  LIG     1      -3.864   1.353  -1.591  1.00  0.00     0.209 HD
ENDBRANCH  12  13
ENDBRANCH   2  12
TORSDOF 3
