REMARK  2 active torsions:
REMARK  status: ('A' for Active; 'I' for Inactive)
REMARK    1  A    between atoms: C_8  and  C_15 
REMARK    2  A    between atoms: N_10  and  C_15 
ROOT
HETATM    1  N   LIG     1      -1.656  -1.072   0.007  1.00  0.00    -0.360 N 
HETATM    2  C   LIG     1      -0.332  -0.685  -0.001  1.00  0.00     0.044 A 
HETATM    3  C   LIG     1      -2.473   0.026  -0.058  1.00  0.00     0.091 A 
HETATM    4  C   LIG     1      -1.673   1.143  -0.113  1.00  0.00     0.031 A 
HETATM    5  C   LIG     1      -0.319   0.710  -0.078  1.00  0.00    -0.008 A 
HETATM    6  C   LIG     1       0.854  -1.439   0.053  1.00  0.00     0.039 A 
HETATM    7  C   LIG     1       0.918   1.380  -0.108  1.00  0.00     0.014 A 
HETATM    8  C   LIG     1       2.084  -0.759   0.026  1.00  0.00    -0.031 A 
HETATM    9  C   LIG     1       2.104   0.638  -0.058  1.00  0.00     0.010 A 
HETATM   10  C   LIG     1      -2.122  -2.439   0.075  1.00  0.00     0.155 C 
ENDROOT
BRANCH   8  11
HETATM   11  C   LIG     1       3.380  -1.530   0.078  1.00  0.00     0.268 C 
BRANCH  11  12
HETATM   12  N   LIG     1       4.098  -1.449  -1.188  1.00  0.00    -0.075 N 
ATOM     13  HN3 LIG     1       3.515  -1.751  -1.969  1.00  0.00     0.274 HD
ATOM     14  HN2 LIG     1       4.250  -0.481  -1.470  1.00  0.00     0.274 HD
ATOM     15  HN1 LIG     1       4.974  -1.970  -1.153  1.00  0.00     0.274 HD
ENDBRANCH  11  12
ENDBRANCH   8  11
TORSDOF 2
