REMARK  1 active torsions:
REMARK  status: ('A' for Active; 'I' for Inactive)
REMARK    1  A    between atoms: N_1  and  C_2 
ROOT
HETATM    1  N   LIG     1       0.629   1.439   0.178  1.00  0.00    -0.376 N 
HETATM    2  N   LIG     1      -0.535  -1.278   0.006  1.00  0.00    -0.072 N 
ATOM      3  HN1 LIG     1      -0.871  -1.478   0.948  1.00  0.00     0.277 HD
ATOM      4  HN2 LIG     1      -0.819  -2.155  -0.431  1.00  0.00     0.277 HD
HETATM    5  C   LIG     1       1.395   0.255   0.614  1.00  0.00     0.150 C 
HETATM    6  C   LIG     1      -0.837   1.225   0.111  1.00  0.00     0.150 C 
HETATM    7  C   LIG     1      -1.196  -0.101  -0.596  1.00  0.00     0.252 C 
HETATM    8  C   LIG     1       0.924  -1.064  -0.044  1.00  0.00     0.252 C 
ENDROOT
BRANCH   1   9
HETATM    9  C   LIG     1       1.125   2.236  -0.873  1.00  0.00     0.054 A 
HETATM   10  C   LIG     1       0.876   3.636  -0.854  1.00  0.00     0.072 A 
HETATM   11  N   LIG     1       0.090   4.199   0.183  1.00  0.00    -0.100 NA
HETATM   12  C   LIG     1       1.259   4.442  -1.932  1.00  0.00     0.029 A 
HETATM   13  C   LIG     1       1.989   3.902  -2.987  1.00  0.00     0.002 A 
HETATM   14  C   LIG     1       2.311   2.548  -2.982  1.00  0.00     0.002 A 
HETATM   15  C   LIG     1       1.880   1.724  -1.937  1.00  0.00     0.031 A 
ENDBRANCH   1   9
TORSDOF 1
