REMARK  4 active torsions:
REMARK  status: ('A' for Active; 'I' for Inactive)
REMARK    1  A    between atoms: N_1  and  C_2 
REMARK    2  A    between atoms: C_2  and  C_3 
REMARK    3  A    between atoms: C_4  and  C_13 
REMARK    4  A    between atoms: O_11  and  C_13 
ROOT
HETATM    1  C   LIG     1       1.034   0.000  -3.901  1.00  0.00    -0.030 A 
HETATM    2  C   LIG     1       2.543  -0.083  -6.285  1.00  0.00    -0.035 A 
HETATM    3  C   LIG     1       1.121   1.125  -4.732  1.00  0.00     0.009 A 
HETATM    4  C   LIG     1       1.714  -1.168  -4.274  1.00  0.00     0.009 A 
HETATM    5  C   LIG     1       1.860   1.083  -5.918  1.00  0.00     0.010 A 
HETATM    6  C   LIG     1       2.457  -1.208  -5.457  1.00  0.00     0.010 A 
ENDROOT
BRANCH   1   7
HETATM    7  C   LIG     1       0.233   0.056  -2.616  1.00  0.00     0.311 C 
BRANCH   7   8
HETATM    8  N   LIG     1      -0.863  -0.928  -2.532  1.00  0.00     0.092 N 
HETATM    9  C   LIG     1      -1.870  -0.792  -3.596  1.00  0.00     0.272 C 
HETATM   10  C   LIG     1      -2.701   0.488  -3.499  1.00  0.00     0.030 C 
HETATM   11  C   LIG     1      -3.364   0.616  -2.130  1.00  0.00     0.003 C 
HETATM   12  C   LIG     1      -2.371   0.385  -0.994  1.00  0.00     0.030 C 
HETATM   13  C   LIG     1      -1.525  -0.875  -1.217  1.00  0.00     0.272 C 
ENDBRANCH   7   8
ENDBRANCH   1   7
BRANCH   2  14
HETATM   14  C   LIG     1       3.309  -0.142  -7.579  1.00  0.00     0.202 C 
BRANCH  14  15
HETATM   15  O   LIG     1       2.485  -0.625  -8.631  1.00  0.00    -0.396 OA
ATOM     16  HO  LIG     1       2.969  -0.662  -9.448  1.00  0.00     0.209 HD
ENDBRANCH  14  15
ENDBRANCH   2  14
TORSDOF 4
