REMARK  4 active torsions:
REMARK  status: ('A' for Active; 'I' for Inactive)
REMARK    1  A    between atoms: N_1  and  C_3 
REMARK    2  A    between atoms: C_3  and  C_8 
REMARK    3  A    between atoms: C_9  and  C_17 
REMARK    4  A    between atoms: O_15  and  C_17 
ROOT
HETATM    1  C   LIG     1       0.501  -0.368  -3.107  1.00  0.00    -0.030 A 
HETATM    2  C   LIG     1       0.857  -1.620  -5.615  1.00  0.00    -0.035 A 
HETATM    3  C   LIG     1       1.560   0.003  -3.949  1.00  0.00     0.009 A 
HETATM    4  C   LIG     1      -0.385  -1.362  -3.541  1.00  0.00     0.009 A 
HETATM    5  C   LIG     1       1.734  -0.613  -5.192  1.00  0.00     0.010 A 
HETATM    6  C   LIG     1      -0.212  -1.977  -4.785  1.00  0.00     0.010 A 
ENDROOT
BRANCH   1   7
HETATM    7  C   LIG     1       0.303   0.311  -1.766  1.00  0.00     0.311 C 
BRANCH   7   8
HETATM    8  N   LIG     1       0.341  -0.604  -0.607  1.00  0.00     0.096 N 
HETATM    9  C   LIG     1       0.025   0.129   0.640  1.00  0.00     0.303 C 
HETATM   10  C   LIG     1       1.137   1.097   1.118  1.00  0.00     0.302 C 
HETATM   11  N   LIG     1       2.481   0.497   1.239  1.00  0.00     0.087 N 
HETATM   12  C   LIG     1       2.791  -0.311   0.042  1.00  0.00     0.302 C 
HETATM   13  C   LIG     1       2.599  -0.296   2.462  1.00  0.00     0.310 C 
HETATM   14  C   LIG     1       1.658  -1.254  -0.431  1.00  0.00     0.303 C 
ENDBRANCH   7   8
ENDBRANCH   1   7
BRANCH   2  15
HETATM   15  C   LIG     1       1.040  -2.287  -6.953  1.00  0.00     0.202 C 
BRANCH  15  16
HETATM   16  O   LIG     1       0.349  -1.589  -7.980  1.00  0.00    -0.396 OA
ATOM     17  HO  LIG     1       0.464  -2.010  -8.824  1.00  0.00     0.209 HD
ENDBRANCH  15  16
ENDBRANCH   2  15
TORSDOF 4
