REMARK  3 active torsions:
REMARK  status: ('A' for Active; 'I' for Inactive)
REMARK    1  A    between atoms: C_1  and  C_3 
REMARK    2  A    between atoms: N_2  and  C_7 
REMARK    3  A    between atoms: C_6  and  C_7 
ROOT
HETATM    1 CL   LIG     2       2.590  -2.109  -1.323  1.00  0.00     0.000 Cl
ENDROOT
TORSDOF 3
