REMARK  3 active torsions:
REMARK  status: ('A' for Active; 'I' for Inactive)
REMARK    1  A    between atoms: C_1  and  C_3 
REMARK    2  A    between atoms: N_2  and  C_5 
REMARK    3  A    between atoms: C_5  and  C_9 
ROOT
HETATM    1  C   LIG     1      -0.577  -0.740   0.051  1.00  0.00     0.040 A 
HETATM    2  C   LIG     1      -0.597  -1.037  -1.317  1.00  0.00     0.019 A 
HETATM    3  C   LIG     1      -0.723  -1.771   0.986  1.00  0.00     0.019 A 
HETATM    4  C   LIG     1      -0.879  -3.403  -0.815  1.00  0.00    -0.030 A 
HETATM    5  C   LIG     1      -0.744  -2.361  -1.744  1.00  0.00     0.010 A 
HETATM    6  C   LIG     1      -0.867  -3.094   0.555  1.00  0.00     0.010 A 
ENDROOT
BRANCH   4   7
HETATM    7  C   LIG     1      -1.068  -4.838  -1.278  1.00  0.00     0.311 C 
BRANCH   7   8
HETATM    8  N   LIG     1       0.046  -5.367  -2.090  1.00  0.00     0.092 N 
HETATM    9  C   LIG     1      -0.240  -6.726  -2.588  1.00  0.00     0.272 C 
HETATM   10  C   LIG     1      -0.307  -7.784  -1.482  1.00  0.00     0.030 C 
HETATM   11  C   LIG     1       0.966  -7.783  -0.638  1.00  0.00     0.003 C 
HETATM   12  C   LIG     1       1.372  -6.375  -0.208  1.00  0.00     0.030 C 
HETATM   13  C   LIG     1       1.330  -5.383  -1.372  1.00  0.00     0.272 C 
ENDBRANCH   7   8
ENDBRANCH   4   7
BRANCH   1  14
HETATM   14  C   LIG     1      -0.451   0.650   0.561  1.00  0.00     0.209 C 
HETATM   15  O   LIG     1      -0.973   1.030   1.591  1.00  0.00    -0.644 OA
HETATM   16  O   LIG     1       0.338   1.439  -0.203  1.00  0.00    -0.644 OA
ENDBRANCH   1  14
TORSDOF 3
