REMARK  1 active torsions:
REMARK  status: ('A' for Active; 'I' for Inactive)
REMARK    1  A    between atoms: C_5  and  C_7 
ROOT
HETATM    1  C   LIG     1      -0.355   0.737   0.059  1.00  0.00     0.009 A 
HETATM    2  C   LIG     1      -1.735   1.094   0.150  1.00  0.00     0.032 A 
HETATM    3  N   LIG     1      -1.625  -1.114   0.046  1.00  0.00    -0.360 N 
HETATM    4  C   LIG     1      -0.320  -0.666  -0.007  1.00  0.00     0.045 A 
HETATM    5  C   LIG     1       0.875   1.443   0.025  1.00  0.00     0.053 A 
HETATM    6  C   LIG     1      -2.486  -0.058   0.138  1.00  0.00     0.091 A 
HETATM    7  C   LIG     1       0.884  -1.384  -0.108  1.00  0.00     0.030 A 
HETATM    8  C   LIG     1      -2.030  -2.502   0.006  1.00  0.00     0.155 C 
HETATM    9  C   LIG     1       2.079   0.719  -0.074  1.00  0.00     0.019 A 
HETATM   10  C   LIG     1       2.081  -0.671  -0.139  1.00  0.00     0.003 A 
ENDROOT
BRANCH   5  11
HETATM   11  C   LIG     1       0.983   2.919   0.087  1.00  0.00     0.210 C 
HETATM   12  O   LIG     1       2.029   3.545   0.065  1.00  0.00    -0.644 OA
HETATM   13  O   LIG     1      -0.189   3.569   0.171  1.00  0.00    -0.644 OA
ENDBRANCH   5  11
TORSDOF 1
