REMARK  4 active torsions:
REMARK  status: ('A' for Active; 'I' for Inactive)
REMARK    1  A    between atoms: N_1  and  C_2 
REMARK    2  A    between atoms: C_2  and  C_3 
REMARK    3  A    between atoms: C_4  and  C_15 
REMARK    4  A    between atoms: N_5  and  C_15 
ROOT
HETATM    1  C   LIG     1       0.539   0.055  -3.380  1.00  0.00    -0.030 A 
HETATM    2  C   LIG     1       0.307   0.000  -6.201  1.00  0.00    -0.033 A 
HETATM    3  C   LIG     1      -0.712  -0.088  -3.994  1.00  0.00     0.009 A 
HETATM    4  C   LIG     1       1.677   0.153  -4.194  1.00  0.00     0.009 A 
HETATM    5  C   LIG     1      -0.829  -0.120  -5.388  1.00  0.00     0.009 A 
HETATM    6  C   LIG     1       1.559   0.129  -5.587  1.00  0.00     0.009 A 
ENDROOT
BRANCH   1   7
HETATM    7  C   LIG     1       0.652   0.189  -1.873  1.00  0.00     0.311 C 
BRANCH   7   8
HETATM    8  N   LIG     1       0.107  -0.952  -1.116  1.00  0.00     0.092 N 
HETATM    9  C   LIG     1      -0.063  -0.623   0.309  1.00  0.00     0.272 C 
HETATM   10  C   LIG     1       1.247  -0.540   1.097  1.00  0.00     0.030 C 
HETATM   11  C   LIG     1       2.076  -1.808   0.933  1.00  0.00     0.003 C 
HETATM   12  C   LIG     1       2.243  -2.164  -0.541  1.00  0.00     0.030 C 
HETATM   13  C   LIG     1       0.893  -2.186  -1.265  1.00  0.00     0.272 C 
ENDBRANCH   7   8
ENDBRANCH   1   7
BRANCH   2  14
HETATM   14  C   LIG     1       0.186  -0.012  -7.705  1.00  0.00     0.268 C 
BRANCH  14  15
HETATM   15  N   LIG     1       0.647   1.242  -8.293  1.00  0.00    -0.075 N 
ATOM     16  HN3 LIG     1       0.163   2.043  -7.887  1.00  0.00     0.274 HD
ATOM     17  HN2 LIG     1       1.598   1.464  -7.998  1.00  0.00     0.274 HD
ATOM     18  HN1 LIG     1       0.565   1.234  -9.310  1.00  0.00     0.274 HD
ENDBRANCH  14  15
ENDBRANCH   2  14
TORSDOF 4
