REMARK  4 active torsions:
REMARK  status: ('A' for Active; 'I' for Inactive)
REMARK    1  A    between atoms: C_1  and  C_3 
REMARK    2  A    between atoms: C_1  and  O_9 
REMARK    3  A    between atoms: N_2  and  C_5 
REMARK    4  A    between atoms: C_5  and  C_8 
ROOT
HETATM    1  C   LIG     1       0.894  -0.648   4.844  1.00  0.00     0.039 A 
HETATM    2  C   LIG     1      -0.459  -0.629   5.194  1.00  0.00     0.018 A 
HETATM    3  C   LIG     1       1.353  -1.570   3.895  1.00  0.00     0.018 A 
HETATM    4  C   LIG     1      -0.913  -2.410   3.597  1.00  0.00    -0.030 A 
HETATM    5  C   LIG     1      -1.353  -1.518   4.589  1.00  0.00     0.010 A 
HETATM    6  C   LIG     1       0.452  -2.438   3.271  1.00  0.00     0.010 A 
ENDROOT
BRANCH   4   7
HETATM    7  C   LIG     1      -1.899  -3.320   2.883  1.00  0.00     0.311 C 
BRANCH   7   8
HETATM    8  N   LIG     1      -2.002  -3.070   1.431  1.00  0.00     0.092 N 
HETATM    9  C   LIG     1      -2.500  -1.727   1.094  1.00  0.00     0.272 C 
HETATM   10  C   LIG     1      -3.955  -1.499   1.509  1.00  0.00     0.030 C 
HETATM   11  C   LIG     1      -4.874  -2.547   0.888  1.00  0.00     0.003 C 
HETATM   12  C   LIG     1      -4.338  -3.966   1.070  1.00  0.00     0.030 C 
HETATM   13  C   LIG     1      -2.841  -4.075   0.756  1.00  0.00     0.272 C 
ENDBRANCH   7   8
ENDBRANCH   4   7
BRANCH   1  14
HETATM   14  C   LIG     1       1.811   0.307   5.508  1.00  0.00     0.292 C 
HETATM   15  O   LIG     1       1.471   1.408   5.927  1.00  0.00    -0.259 OA
BRANCH  14  16
HETATM   16  O   LIG     1       3.015  -0.286   5.685  1.00  0.00    -0.323 OA
HETATM   17  C   LIG     1       3.870   0.387   6.608  1.00  0.00     0.213 C 
ENDBRANCH  14  16
ENDBRANCH   1  14
TORSDOF 4
