REMARK  2 active torsions:
REMARK  status: ('A' for Active; 'I' for Inactive)
REMARK    1  A    between atoms: C_10  and  C_14 
REMARK    2  A    between atoms: O_12  and  C_14 
ROOT
HETATM    1  N   LIG     1      -1.605  -1.136   0.101  1.00  0.00    -0.350 N 
ATOM      2  HN  LIG     1      -1.923  -2.104   0.157  1.00  0.00     0.166 HD
HETATM    3  C   LIG     1      -0.308  -0.685   0.058  1.00  0.00     0.060 A 
HETATM    4  C   LIG     1      -2.348  -0.055   0.055  1.00  0.00     0.181 A 
HETATM    5  N   LIG     1      -1.587   1.078  -0.017  1.00  0.00    -0.351 N 
ATOM      6  HN  LIG     1      -1.938   2.035  -0.061  1.00  0.00     0.166 HD
HETATM    7  C   LIG     1      -0.268   0.703  -0.019  1.00  0.00     0.060 A 
HETATM    8  C   LIG     1       0.894  -1.407   0.077  1.00  0.00     0.041 A 
HETATM    9  C   LIG     1       0.920   1.433  -0.082  1.00  0.00     0.032 A 
HETATM   10  C   LIG     1       2.113  -0.707   0.026  1.00  0.00    -0.033 A 
HETATM   11  C   LIG     1       2.110   0.695  -0.063  1.00  0.00     0.012 A 
ENDROOT
BRANCH  10  12
HETATM   12  C   LIG     1       3.417  -1.459   0.016  1.00  0.00     0.203 C 
BRANCH  12  13
HETATM   13  O   LIG     1       3.939  -1.528  -1.303  1.00  0.00    -0.396 OA
ATOM     14  HO  LIG     1       4.762  -2.003  -1.309  1.00  0.00     0.209 HD
ENDBRANCH  12  13
ENDBRANCH  10  12
TORSDOF 2
