REMARK  4 active torsions:
REMARK  status: ('A' for Active; 'I' for Inactive)
REMARK    1  A    between atoms: N_1  and  C_3 
REMARK    2  A    between atoms: C_3  and  C_4 
REMARK    3  A    between atoms: C_10  and  C_16 
REMARK    4  A    between atoms: O_12  and  C_16 
ROOT
HETATM    1  C   LIG     1       0.132  -0.058  -3.866  1.00  0.00    -0.030 A 
HETATM    2  C   LIG     1      -0.816   0.262  -4.854  1.00  0.00     0.018 A 
HETATM    3  C   LIG     1      -0.467   0.264  -6.214  1.00  0.00    -0.034 A 
HETATM    4  C   LIG     1       1.798  -0.364  -5.610  1.00  0.00     0.001 A 
HETATM    5  C   LIG     1       1.436  -0.383  -4.262  1.00  0.00     0.009 A 
HETATM    6  C   LIG     1       0.850  -0.036  -6.581  1.00  0.00     0.009 A 
ENDROOT
BRANCH   1   7
HETATM    7  C   LIG     1      -0.229  -0.004  -2.393  1.00  0.00     0.311 C 
BRANCH   7   8
HETATM    8  N   LIG     1      -1.363  -0.861  -2.003  1.00  0.00     0.096 N 
HETATM    9  C   LIG     1      -1.710  -0.645  -0.579  1.00  0.00     0.303 C 
HETATM   10  C   LIG     1      -0.754  -1.305   0.452  1.00  0.00     0.302 C 
HETATM   11  N   LIG     1      -0.451  -2.729   0.212  1.00  0.00     0.087 N 
HETATM   12  C   LIG     1      -0.099  -2.928  -1.208  1.00  0.00     0.302 C 
HETATM   13  C   LIG     1      -1.568  -3.588   0.608  1.00  0.00     0.310 C 
HETATM   14  C   LIG     1      -1.094  -2.300  -2.212  1.00  0.00     0.303 C 
ENDBRANCH   7   8
ENDBRANCH   1   7
BRANCH   3  15
HETATM   15  C   LIG     1      -1.496   0.564  -7.274  1.00  0.00     0.202 C 
BRANCH  15  16
HETATM   16  O   LIG     1      -1.130   1.710  -8.032  1.00  0.00    -0.396 OA
ATOM     17  HO  LIG     1      -1.778   1.899  -8.700  1.00  0.00     0.209 HD
ENDBRANCH  15  16
ENDBRANCH   3  15
TORSDOF 4
