REMARK  4 active torsions:
REMARK  status: ('A' for Active; 'I' for Inactive)
REMARK    1  A    between atoms: N_1  and  C_3 
REMARK    2  A    between atoms: C_3  and  C_8 
REMARK    3  A    between atoms: N_9  and  C_18 
REMARK    4  A    between atoms: C_12  and  C_18 
ROOT
HETATM    1  C   LIG     1       1.622   1.539  -2.412  1.00  0.00    -0.030 A 
HETATM    2  C   LIG     1       3.184   3.885  -2.681  1.00  0.00    -0.033 A 
HETATM    3  C   LIG     1       1.238   2.731  -1.779  1.00  0.00     0.009 A 
HETATM    4  C   LIG     1       2.777   1.540  -3.200  1.00  0.00     0.009 A 
HETATM    5  C   LIG     1       2.012   3.891  -1.915  1.00  0.00     0.009 A 
HETATM    6  C   LIG     1       3.550   2.698  -3.334  1.00  0.00     0.009 A 
ENDROOT
BRANCH   1   7
HETATM    7  C   LIG     1       0.812   0.268  -2.230  1.00  0.00     0.311 C 
BRANCH   7   8
HETATM    8  N   LIG     1       0.269  -0.289  -3.486  1.00  0.00     0.096 N 
HETATM    9  C   LIG     1      -0.672   0.637  -4.149  1.00  0.00     0.303 C 
HETATM   10  C   LIG     1      -2.004   0.846  -3.391  1.00  0.00     0.302 C 
HETATM   11  N   LIG     1      -2.725  -0.394  -3.033  1.00  0.00     0.087 N 
HETATM   12  C   LIG     1      -1.796  -1.396  -2.474  1.00  0.00     0.302 C 
HETATM   13  C   LIG     1      -3.457  -0.926  -4.180  1.00  0.00     0.310 C 
HETATM   14  C   LIG     1      -0.451  -1.557  -3.229  1.00  0.00     0.303 C 
ENDBRANCH   7   8
ENDBRANCH   1   7
BRANCH   2  15
HETATM   15  C   LIG     1       4.030   5.132  -2.828  1.00  0.00     0.270 C 
BRANCH  15  16
HETATM   16  N   LIG     1       5.397   4.922  -2.345  1.00  0.00    -0.075 N 
HETATM   17  C   LIG     1       6.196   6.133  -2.471  1.00  0.00     0.267 C 
ATOM     18  HN2 LIG     1       5.405   4.566  -1.389  1.00  0.00     0.277 HD
ATOM     19  HN1 LIG     1       5.841   4.131  -2.811  1.00  0.00     0.277 HD
ENDBRANCH  15  16
ENDBRANCH   2  15
TORSDOF 4
