REMARK  4 active torsions:
REMARK  status: ('A' for Active; 'I' for Inactive)
REMARK    1  A    between atoms: N_1  and  C_3 
REMARK    2  A    between atoms: C_3  and  C_8 
REMARK    3  A    between atoms: C_9  and  C_19 
REMARK    4  A    between atoms: N_10  and  C_19 
ROOT
HETATM    1  C   LIG     1       0.211  -0.009  -3.418  1.00  0.00    -0.030 A 
HETATM    2  C   LIG     1       0.064  -0.060  -6.247  1.00  0.00    -0.033 A 
HETATM    3  C   LIG     1       1.331   0.306  -4.198  1.00  0.00     0.009 A 
HETATM    4  C   LIG     1      -0.988  -0.334  -4.069  1.00  0.00     0.009 A 
HETATM    5  C   LIG     1       1.260   0.281  -5.596  1.00  0.00     0.009 A 
HETATM    6  C   LIG     1      -1.058  -0.357  -5.466  1.00  0.00     0.009 A 
ENDROOT
BRANCH   1   7
HETATM    7  C   LIG     1       0.290  -0.002  -1.901  1.00  0.00     0.311 C 
BRANCH   7   8
HETATM    8  N   LIG     1      -0.042  -1.300  -1.281  1.00  0.00     0.096 N 
HETATM    9  C   LIG     1      -0.061  -1.203   0.195  1.00  0.00     0.303 C 
HETATM   10  C   LIG     1       1.334  -1.086   0.860  1.00  0.00     0.302 C 
HETATM   11  N   LIG     1       2.303  -2.125   0.459  1.00  0.00     0.087 N 
HETATM   12  C   LIG     1       2.305  -2.269  -1.011  1.00  0.00     0.302 C 
HETATM   13  C   LIG     1       2.019  -3.400   1.117  1.00  0.00     0.310 C 
HETATM   14  C   LIG     1       0.906  -2.368  -1.668  1.00  0.00     0.303 C 
ENDBRANCH   7   8
ENDBRANCH   1   7
BRANCH   2  15
HETATM   15  C   LIG     1      -0.015  -0.070  -7.754  1.00  0.00     0.268 C 
BRANCH  15  16
HETATM   16  N   LIG     1      -0.417  -1.371  -8.278  1.00  0.00    -0.075 N 
ATOM     17  HN3 LIG     1       0.196  -2.111  -7.936  1.00  0.00     0.274 HD
ATOM     18  HN2 LIG     1      -1.295  -1.681  -7.861  1.00  0.00     0.274 HD
ATOM     19  HN1 LIG     1      -0.470  -1.378  -9.297  1.00  0.00     0.274 HD
ENDBRANCH  15  16
ENDBRANCH   2  15
TORSDOF 4
