REMARK  3 active torsions:
REMARK  status: ('A' for Active; 'I' for Inactive)
REMARK    1  A    between atoms: C_4  and  C_8 
REMARK    2  A    between atoms: C_6  and  C_7 
REMARK    3  A    between atoms: C_8  and  O_10 
ROOT
HETATM    1  N   LIG     1       0.903  -0.767   0.023  1.00  0.00    -0.298 N 
ATOM      2  HN  LIG     1       1.684  -1.423   0.042  1.00  0.00     0.187 HD
HETATM    3  N   LIG     1       0.964   0.577   0.006  1.00  0.00    -0.298 N 
HETATM    4  C   LIG     1      -0.266   1.177  -0.017  1.00  0.00     0.053 A 
HETATM    5  C   LIG     1      -1.172   0.139  -0.011  1.00  0.00     0.060 A 
HETATM    6  C   LIG     1      -0.408  -1.060   0.009  1.00  0.00     0.060 A 
HETATM    7  C   LIG     1       2.254   1.226   0.032  1.00  0.00     0.177 C 
ENDROOT
BRANCH   6   8
HETATM    8  C   LIG     1      -0.895  -2.446   0.013  1.00  0.00    -0.008 A 
HETATM    9  C   LIG     1      -2.269  -2.731   0.005  1.00  0.00     0.014 A 
HETATM   10  C   LIG     1      -2.729  -4.051   0.011  1.00  0.00     0.001 A 
HETATM   11  C   LIG     1      -1.821  -5.106   0.025  1.00  0.00     0.000 A 
HETATM   12  C   LIG     1      -0.454  -4.843   0.032  1.00  0.00     0.001 A 
HETATM   13  C   LIG     1       0.006  -3.523   0.026  1.00  0.00     0.014 A 
ENDBRANCH   6   8
BRANCH   4  14
HETATM   14  C   LIG     1      -0.474   2.640  -0.063  1.00  0.00     0.222 C 
BRANCH  14  15
HETATM   15  O   LIG     1       0.090   3.184   1.117  1.00  0.00    -0.395 OA
ATOM     16  HO  LIG     1      -0.044   4.124   1.087  1.00  0.00     0.209 HD
ENDBRANCH  14  15
ENDBRANCH   4  14
TORSDOF 3
