REMARK  3 active torsions:
REMARK  status: ('A' for Active; 'I' for Inactive)
REMARK    1  A    between atoms: C_1  and  C_2 
REMARK    2  A    between atoms: C_8  and  C_14 
REMARK    3  A    between atoms: N_9  and  C_14 
ROOT
HETATM    1  C   LIG     1      -0.999  -2.003  -0.056  1.00  0.00    -0.002 A 
HETATM    2  C   LIG     1      -0.274  -3.166   0.255  1.00  0.00     0.023 A 
HETATM    3  C   LIG     1      -0.842  -4.444   0.120  1.00  0.00    -0.032 A 
HETATM    4  C   LIG     1      -2.317  -2.143  -0.514  1.00  0.00     0.014 A 
HETATM    5  C   LIG     1      -2.897  -3.407  -0.646  1.00  0.00     0.002 A 
HETATM    6  C   LIG     1      -2.164  -4.550  -0.332  1.00  0.00     0.009 A 
ENDROOT
BRANCH   1   7
HETATM    7  C   LIG     1      -0.399  -0.678   0.092  1.00  0.00     0.085 A 
HETATM    8  O   LIG     1       0.888  -0.642   0.557  1.00  0.00    -0.322 OA
HETATM    9  C   LIG     1       1.261   0.660   0.627  1.00  0.00     0.142 A 
HETATM   10  C   LIG     1       0.236   1.475   0.213  1.00  0.00     0.027 A 
HETATM   11  C   LIG     1      -0.835   0.615  -0.132  1.00  0.00     0.040 A 
ENDBRANCH   1   7
BRANCH   3  12
HETATM   12  C   LIG     1      -0.032  -5.682   0.430  1.00  0.00     0.270 C 
BRANCH  12  13
HETATM   13  N   LIG     1      -0.669  -6.486   1.474  1.00  0.00    -0.075 N 
HETATM   14  C   LIG     1       0.119  -7.672   1.776  1.00  0.00     0.267 C 
ATOM     15  HN2 LIG     1      -0.854  -5.935   2.312  1.00  0.00     0.277 HD
ATOM     16  HN1 LIG     1      -1.630  -6.726   1.230  1.00  0.00     0.277 HD
ENDBRANCH  12  13
ENDBRANCH   3  12
TORSDOF 3
