REMARK  3 active torsions:
REMARK  status: ('A' for Active; 'I' for Inactive)
REMARK    1  A    between atoms: C_4  and  C_7 
REMARK    2  A    between atoms: C_6  and  C_9 
REMARK    3  A    between atoms: C_9  and  N_10 
ROOT
HETATM    1  N   LIG     1       1.580   0.088  -0.095  1.00  0.00    -0.296 N 
HETATM    2  N   LIG     1       0.765   1.150   0.085  1.00  0.00    -0.301 N 
ATOM      3  HN  LIG     1       1.028   2.130   0.193  1.00  0.00     0.187 HD
HETATM    4  C   LIG     1       0.916  -1.119  -0.170  1.00  0.00     0.062 A 
HETATM    5  C   LIG     1      -0.424  -0.778  -0.065  1.00  0.00     0.060 A 
HETATM    6  C   LIG     1      -0.465   0.624   0.090  1.00  0.00     0.053 A 
HETATM    7  C   LIG     1       2.995   0.342  -0.235  1.00  0.00     0.178 C 
ENDROOT
BRANCH   4   8
HETATM    8  C   LIG     1       1.512  -2.442  -0.381  1.00  0.00    -0.008 A 
HETATM    9  C   LIG     1       0.872  -3.363  -1.225  1.00  0.00     0.014 A 
HETATM   10  C   LIG     1       1.401  -4.640  -1.433  1.00  0.00     0.001 A 
HETATM   11  C   LIG     1       2.584  -5.014  -0.802  1.00  0.00     0.000 A 
HETATM   12  C   LIG     1       3.229  -4.116   0.045  1.00  0.00     0.001 A 
HETATM   13  C   LIG     1       2.690  -2.844   0.264  1.00  0.00     0.014 A 
ENDBRANCH   4   8
BRANCH   6  14
HETATM   14  C   LIG     1      -1.672   1.497   0.213  1.00  0.00     0.288 C 
BRANCH  14  15
HETATM   15  N   LIG     1      -2.063   1.959  -1.121  1.00  0.00    -0.074 N 
ATOM     16  HN3 LIG     1      -1.298   2.421  -1.612  1.00  0.00     0.274 HD
ATOM     17  HN2 LIG     1      -2.206   1.188  -1.773  1.00  0.00     0.274 HD
ATOM     18  HN1 LIG     1      -2.887   2.555  -1.037  1.00  0.00     0.274 HD
ENDBRANCH  14  15
ENDBRANCH   6  14
TORSDOF 3
