REMARK  1 active torsions:
REMARK  status: ('A' for Active; 'I' for Inactive)
REMARK    1  A    between atoms: C_1  and  C_3 
ROOT
HETATM    1  N   LIG     1       1.712  -6.599   0.481  1.00  0.00    -0.191 NA
HETATM    2  C   LIG     1      -0.796  -2.468   0.005  1.00  0.00    -0.001 A 
HETATM    3  C   LIG     1       0.885  -5.802   0.316  1.00  0.00     0.099 C 
HETATM    4  C   LIG     1       0.187  -3.451   0.196  1.00  0.00     0.037 A 
HETATM    5  C   LIG     1      -0.133  -4.814   0.113  1.00  0.00     0.045 A 
HETATM    6  C   LIG     1      -2.107  -2.885  -0.273  1.00  0.00     0.014 A 
HETATM    7  C   LIG     1      -2.431  -4.242  -0.359  1.00  0.00     0.002 A 
HETATM    8  C   LIG     1      -1.445  -5.207  -0.165  1.00  0.00     0.023 A 
ENDROOT
BRANCH   2   9
HETATM    9  C   LIG     1      -0.455  -1.049   0.092  1.00  0.00     0.085 A 
HETATM   10  O   LIG     1      -1.500  -0.169   0.028  1.00  0.00    -0.322 OA
HETATM   11  C   LIG     1      -0.987   1.083   0.132  1.00  0.00     0.142 A 
HETATM   12  C   LIG     1       0.379   1.032   0.261  1.00  0.00     0.027 A 
HETATM   13  C   LIG     1       0.725  -0.342   0.236  1.00  0.00     0.040 A 
ENDBRANCH   2   9
TORSDOF 1
