REMARK  2 active torsions:
REMARK  status: ('A' for Active; 'I' for Inactive)
REMARK    1  A    between atoms: C_1  and  C_3 
REMARK    2  A    between atoms: C_2  and  C_4 
ROOT
HETATM    1  C   LIG     1      -1.108  -1.297  -0.141  1.00  0.00     0.015 A 
HETATM    2  C   LIG     1      -1.671  -0.009  -0.097  1.00  0.00     0.053 A 
HETATM    3  C   LIG     1      -0.854   1.134  -0.041  1.00  0.00     0.019 A 
HETATM    4  C   LIG     1       0.295  -1.399  -0.076  1.00  0.00     0.015 A 
HETATM    5  C   LIG     1       1.106  -0.263   0.003  1.00  0.00     0.001 A 
HETATM    6  C   LIG     1       0.532   1.004   0.011  1.00  0.00     0.001 A 
ENDROOT
BRANCH   1   7
HETATM    7  C   LIG     1      -1.895  -2.516  -0.310  1.00  0.00     0.086 A 
HETATM    8  O   LIG     1      -1.409  -3.631   0.318  1.00  0.00    -0.322 OA
HETATM    9  C   LIG     1      -2.259  -4.653   0.046  1.00  0.00     0.142 A 
HETATM   10  C   LIG     1      -3.285  -4.224  -0.761  1.00  0.00     0.027 A 
HETATM   11  C   LIG     1      -3.048  -2.847  -0.997  1.00  0.00     0.040 A 
ENDBRANCH   1   7
BRANCH   2  12
HETATM   12  C   LIG     1      -3.123   0.242  -0.086  1.00  0.00     0.210 C 
HETATM   13  O   LIG     1      -3.719   1.023  -0.802  1.00  0.00    -0.644 OA
HETATM   14  O   LIG     1      -3.727  -0.413   0.919  1.00  0.00    -0.644 OA
ENDBRANCH   2  12
TORSDOF 2
