REMARK  3 active torsions:
REMARK  status: ('A' for Active; 'I' for Inactive)
REMARK    1  A    between atoms: C_4  and  C_8 
REMARK    2  A    between atoms: C_6  and  C_7 
REMARK    3  A    between atoms: C_8  and  N_10 
ROOT
HETATM    1  N   LIG     1       1.162  -1.118  -0.233  1.00  0.00    -0.298 N 
ATOM      2  HN  LIG     1       1.897  -1.815  -0.350  1.00  0.00     0.187 HD
HETATM    3  N   LIG     1       1.301   0.219  -0.209  1.00  0.00    -0.299 N 
HETATM    4  C   LIG     1       0.115   0.891  -0.053  1.00  0.00     0.056 A 
HETATM    5  C   LIG     1      -0.841  -0.098   0.039  1.00  0.00     0.060 A 
HETATM    6  C   LIG     1      -0.153  -1.338  -0.069  1.00  0.00     0.060 A 
HETATM    7  C   LIG     1       2.627   0.780  -0.321  1.00  0.00     0.177 C 
ENDROOT
BRANCH   6   8
HETATM    8  C   LIG     1      -0.707  -2.696  -0.023  1.00  0.00    -0.008 A 
HETATM    9  C   LIG     1      -2.082  -2.912   0.166  1.00  0.00     0.014 A 
HETATM   10  C   LIG     1      -2.605  -4.206   0.215  1.00  0.00     0.001 A 
HETATM   11  C   LIG     1      -1.762  -5.306   0.073  1.00  0.00     0.000 A 
HETATM   12  C   LIG     1      -0.396  -5.112  -0.115  1.00  0.00     0.001 A 
HETATM   13  C   LIG     1       0.127  -3.815  -0.163  1.00  0.00     0.014 A 
ENDBRANCH   6   8
BRANCH   4  14
HETATM   14  C   LIG     1      -0.021   2.372  -0.028  1.00  0.00     0.290 C 
BRANCH  14  15
HETATM   15  N   LIG     1       0.757   2.932   1.071  1.00  0.00    -0.074 N 
HETATM   16  C   LIG     1       0.646   4.383   1.116  1.00  0.00     0.267 C 
ATOM     17  HN2 LIG     1       0.501   2.510   1.963  1.00  0.00     0.277 HD
ATOM     18  HN1 LIG     1       1.731   2.633   1.029  1.00  0.00     0.277 HD
ENDBRANCH  14  15
ENDBRANCH   4  14
TORSDOF 3
