REMARK  3 active torsions:
REMARK  status: ('A' for Active; 'I' for Inactive)
REMARK    1  A    between atoms: C_3  and  C_7 
REMARK    2  A    between atoms: C_5  and  C_11 
REMARK    3  A    between atoms: C_11  and  O_12 
ROOT
HETATM    1  N   UNK     1       0.704  -0.573   0.088  1.00  0.00    -0.351 N 
ATOM      2  HN  UNK     1       1.535  -1.161   0.028  1.00  0.00     0.166 HD
HETATM    3  C   UNK     1       0.718   0.751   0.081  1.00  0.00     0.084 A 
HETATM    4  S   UNK     1      -0.849   1.470   0.192  1.00  0.00    -0.081 SA
HETATM    5  C   UNK     1      -0.599  -1.053   0.189  1.00  0.00     0.040 A 
HETATM    6  C   UNK     1      -1.570  -0.077   0.256  1.00  0.00     0.079 A 
ENDROOT
BRANCH   3   7
HETATM    7  C   UNK     1       1.950   1.566  -0.012  1.00  0.00    -0.001 A 
HETATM    8  C   UNK     1       1.949   2.972   0.008  1.00  0.00     0.038 A 
HETATM    9  C   UNK     1       3.146   3.688  -0.081  1.00  0.00     0.035 A 
HETATM   10 CL   UNK     1       3.111   5.409  -0.053  1.00  0.00    -0.084 Cl
HETATM   11  C   UNK     1       4.365   3.027  -0.191  1.00  0.00     0.024 A 
HETATM   12  C   UNK     1       4.389   1.635  -0.211  1.00  0.00     0.003 A 
HETATM   13  C   UNK     1       3.193   0.915  -0.122  1.00  0.00     0.014 A 
ENDBRANCH   3   7
BRANCH   5  14
HETATM   14  C   UNK     1      -0.817  -2.532   0.219  1.00  0.00     0.221 C 
BRANCH  14  15
HETATM   15  O   UNK     1       0.190  -3.227  -0.514  1.00  0.00    -0.395 OA
ATOM     16  HO  UNK     1       0.051  -4.167  -0.495  1.00  0.00     0.209 HD
ENDBRANCH  14  15
ENDBRANCH   5  14
TORSDOF 3
