REMARK  2 active torsions:
REMARK  status: ('A' for Active; 'I' for Inactive)
REMARK    1  A    between atoms: C_1  and  C_3 
REMARK    2  A    between atoms: C_2  and  C_4 
ROOT
HETATM    1  C   LIG     1      -0.808  -2.416   0.006  1.00  0.00    -0.001 A 
HETATM    2  C   LIG     1      -2.429  -4.162  -0.524  1.00  0.00     0.041 A 
HETATM    3  C   LIG     1      -2.098  -2.804  -0.388  1.00  0.00     0.032 A 
HETATM    4  C   LIG     1      -1.467  -5.144  -0.265  1.00  0.00     0.018 A 
HETATM    5  C   LIG     1       0.139  -3.420   0.263  1.00  0.00     0.014 A 
HETATM    6  C   LIG     1      -0.184  -4.772   0.129  1.00  0.00     0.002 A 
ENDROOT
BRANCH   1   7
HETATM    7  C   LIG     1      -0.458  -1.003   0.144  1.00  0.00     0.085 A 
HETATM    8  O   LIG     1       0.823  -0.736   0.545  1.00  0.00    -0.322 OA
HETATM    9  C   LIG     1       0.959   0.612   0.613  1.00  0.00     0.142 A 
HETATM   10  C   LIG     1      -0.216   1.230   0.261  1.00  0.00     0.027 A 
HETATM   11  C   LIG     1      -1.131   0.190  -0.041  1.00  0.00     0.040 A 
ENDBRANCH   1   7
BRANCH   2  12
HETATM   12  C   LIG     1      -3.807  -4.514  -0.944  1.00  0.00     0.209 C 
HETATM   13  O   LIG     1      -4.706  -3.727  -1.174  1.00  0.00    -0.644 OA
HETATM   14  O   LIG     1      -3.993  -5.841  -1.059  1.00  0.00    -0.644 OA
ENDBRANCH   2  12
TORSDOF 2
