REMARK  4 active torsions:
REMARK  status: ('A' for Active; 'I' for Inactive)
REMARK    1  A    between atoms: C_3  and  C_9 
REMARK    2  A    between atoms: C_4  and  C_8 
REMARK    3  A    between atoms: C_6  and  C_17 
REMARK    4  A    between atoms: C_17  and  O_18 
ROOT
HETATM    1  C   UNK     1       4.344   2.944  -0.308  1.00  0.00     0.048 A 
HETATM    2  C   UNK     1       1.932   1.473  -0.027  1.00  0.00    -0.002 A 
HETATM    3  C   UNK     1       3.118   3.604  -0.142  1.00  0.00     0.017 A 
HETATM    4  C   UNK     1       4.355   1.543  -0.324  1.00  0.00     0.017 A 
HETATM    5  C   UNK     1       1.930   2.876  -0.001  1.00  0.00     0.015 A 
HETATM    6  C   UNK     1       3.165   0.819  -0.180  1.00  0.00     0.015 A 
ENDROOT
BRANCH   2   7
HETATM    7  C   UNK     1       0.703   0.668   0.117  1.00  0.00     0.084 A 
HETATM    8  N   UNK     1       0.670  -0.562   0.593  1.00  0.00    -0.351 N 
HETATM    9  C   UNK     1      -0.635  -1.051   0.594  1.00  0.00     0.040 A 
ATOM     10  HN  UNK     1       1.486  -1.082   0.915  1.00  0.00     0.166 HD
HETATM   11  C   UNK     1      -1.577  -0.183   0.084  1.00  0.00     0.079 A 
HETATM   12  S   UNK     1      -0.830   1.278  -0.393  1.00  0.00    -0.081 SA
BRANCH   9  13
HETATM   13  C   UNK     1      -0.881  -2.426   1.127  1.00  0.00     0.221 C 
BRANCH  13  14
HETATM   14  O   UNK     1       0.252  -3.271   0.937  1.00  0.00    -0.395 OA
ATOM     15  HO  UNK     1       0.096  -4.145   1.276  1.00  0.00     0.209 HD
ENDBRANCH  13  14
ENDBRANCH   9  13
ENDBRANCH   2   7
BRANCH   1  16
HETATM   16  C   UNK     1       5.632   3.716  -0.462  1.00  0.00     0.417 C 
HETATM   17  F   UNK     1       5.465   5.067  -0.427  1.00  0.00    -0.166 F 
HETATM   18  F   UNK     1       6.533   3.426   0.517  1.00  0.00    -0.166 F 
HETATM   19  F   UNK     1       6.261   3.450  -1.641  1.00  0.00    -0.166 F 
ENDBRANCH   1  16
TORSDOF 4
