REMARK  3 active torsions:
REMARK  status: ('A' for Active; 'I' for Inactive)
REMARK    1  A    between atoms: C_1  and  C_2 
REMARK    2  A    between atoms: C_7  and  C_12 
REMARK    3  A    between atoms: N_8  and  C_12 
ROOT
HETATM    1  C   LIG     1      -0.797  -2.282  -0.100  1.00  0.00     0.006 A 
HETATM    2  C   LIG     1      -2.032  -2.771  -0.589  1.00  0.00    -0.020 A 
HETATM    3  C   LIG     1       0.126  -3.209   0.426  1.00  0.00     0.015 A 
HETATM    4  C   LIG     1      -2.278  -4.160  -0.570  1.00  0.00     0.010 A 
HETATM    5  C   LIG     1      -0.144  -4.579   0.452  1.00  0.00     0.001 A 
HETATM    6  C   LIG     1      -1.347  -5.056  -0.052  1.00  0.00     0.001 A 
ENDROOT
BRANCH   1   7
HETATM    7  C   LIG     1      -0.418  -0.864  -0.099  1.00  0.00     0.085 A 
HETATM    8  O   LIG     1      -0.916  -0.087  -1.108  1.00  0.00    -0.322 OA
HETATM    9  C   LIG     1      -0.454   1.174  -0.919  1.00  0.00     0.142 A 
HETATM   10  C   LIG     1       0.369   1.224   0.178  1.00  0.00     0.027 A 
HETATM   11  C   LIG     1       0.403  -0.092   0.702  1.00  0.00     0.040 A 
ENDBRANCH   1   7
BRANCH   2  12
HETATM   12  C   LIG     1      -3.118  -1.888  -1.160  1.00  0.00     0.269 C 
BRANCH  12  13
HETATM   13  N   LIG     1      -2.991  -1.767  -2.609  1.00  0.00    -0.075 N 
ATOM     14  HN3 LIG     1      -2.063  -1.442  -2.878  1.00  0.00     0.274 HD
ATOM     15  HN2 LIG     1      -2.974  -2.681  -3.062  1.00  0.00     0.274 HD
ATOM     16  HN1 LIG     1      -3.724  -1.171  -2.994  1.00  0.00     0.274 HD
ENDBRANCH  12  13
ENDBRANCH   2  12
TORSDOF 3
