REMARK  3 active torsions:
REMARK  status: ('A' for Active; 'I' for Inactive)
REMARK    1  A    between atoms: C_4  and  C_7 
REMARK    2  A    between atoms: C_6  and  C_9 
REMARK    3  A    between atoms: C_9  and  O_10 
ROOT
HETATM    1  N   LIG     1       1.124  -0.246  -0.282  1.00  0.00    -0.296 N 
HETATM    2  N   LIG     1       0.629   1.007  -0.157  1.00  0.00    -0.300 N 
ATOM      3  HN  LIG     1       1.130   1.891  -0.250  1.00  0.00     0.187 HD
HETATM    4  C   LIG     1       0.185  -1.238  -0.082  1.00  0.00     0.062 A 
HETATM    5  C   LIG     1      -0.991  -0.547   0.177  1.00  0.00     0.060 A 
HETATM    6  C   LIG     1      -0.667   0.822   0.117  1.00  0.00     0.051 A 
HETATM    7  C   LIG     1       2.517  -0.383  -0.644  1.00  0.00     0.178 C 
ENDROOT
BRANCH   4   8
HETATM    8  C   LIG     1       0.385  -2.692  -0.174  1.00  0.00    -0.008 A 
HETATM    9  C   LIG     1      -0.647  -3.498  -0.683  1.00  0.00     0.014 A 
HETATM   10  C   LIG     1      -0.512  -4.887  -0.761  1.00  0.00     0.001 A 
HETATM   11  C   LIG     1       0.666  -5.494  -0.337  1.00  0.00     0.000 A 
HETATM   12  C   LIG     1       1.698  -4.714   0.176  1.00  0.00     0.001 A 
HETATM   13  C   LIG     1       1.553  -3.325   0.270  1.00  0.00     0.014 A 
ENDBRANCH   4   8
BRANCH   6  14
HETATM   14  C   LIG     1      -1.579   1.993   0.301  1.00  0.00     0.222 C 
BRANCH  14  15
HETATM   15  O   LIG     1      -0.895   3.241   0.157  1.00  0.00    -0.395 OA
ATOM     16  HO  LIG     1      -1.474   3.985   0.274  1.00  0.00     0.209 HD
ENDBRANCH  14  15
ENDBRANCH   6  14
TORSDOF 3
