REMARK  2 active torsions:
REMARK  status: ('A' for Active; 'I' for Inactive)
REMARK    1  A    between atoms: C_6  and  C_13 
REMARK    2  A    between atoms: C_13  and  O_14 
ROOT
HETATM    1  C   LIG     1       0.411  -1.260  -0.016  1.00  0.00     0.069 A 
HETATM    2  N   LIG     1       1.250  -0.171  -0.121  1.00  0.00    -0.295 N 
HETATM    3  N   LIG     1       0.600   1.016  -0.079  1.00  0.00    -0.300 N 
ATOM      4  HN  LIG     1       1.003   1.952  -0.117  1.00  0.00     0.187 HD
HETATM    5  C   LIG     1      -0.861  -0.718   0.063  1.00  0.00     0.061 A 
HETATM    6  C   LIG     1      -0.692   0.680   0.023  1.00  0.00     0.051 A 
HETATM    7  C   LIG     1       0.766  -2.658  -0.017  1.00  0.00     0.033 A 
HETATM    8  S   LIG     1       2.241  -3.267   0.613  1.00  0.00    -0.100 SA
HETATM    9  C   LIG     1      -0.037  -3.697  -0.456  1.00  0.00     0.021 A 
HETATM   10  C   LIG     1       1.826  -4.882   0.250  1.00  0.00     0.050 A 
HETATM   11  C   LIG     1       0.573  -4.977  -0.309  1.00  0.00     0.008 A 
HETATM   12  C   LIG     1       2.679  -0.144  -0.331  1.00  0.00     0.178 C 
ENDROOT
BRANCH   6  13
HETATM   13  C   LIG     1      -1.744   1.742   0.077  1.00  0.00     0.222 C 
BRANCH  13  14
HETATM   14  O   LIG     1      -1.188   3.057   0.014  1.00  0.00    -0.395 OA
ATOM     15  HO  LIG     1      -1.856   3.731   0.048  1.00  0.00     0.209 HD
ENDBRANCH  13  14
ENDBRANCH   6  13
TORSDOF 2
