REMARK  4 active torsions:
REMARK  status: ('A' for Active; 'I' for Inactive)
REMARK    1  A    between atoms: N_1  and  C_4 
REMARK    2  A    between atoms: C_3  and  C_4 
REMARK    3  A    between atoms: C_5  and  C_13 
REMARK    4  A    between atoms: O_11  and  C_13 
ROOT
HETATM    1  C   LIG     1       0.191  -1.291  -2.923  1.00  0.00    -0.022 A 
HETATM    2  C   LIG     1       1.416  -1.748  -3.455  1.00  0.00    -0.027 A 
HETATM    3  C   LIG     1      -1.008  -1.765  -3.505  1.00  0.00     0.009 A 
HETATM    4  C   LIG     1       1.408  -2.706  -4.495  1.00  0.00     0.010 A 
HETATM    5  C   LIG     1      -0.991  -2.692  -4.554  1.00  0.00     0.001 A 
HETATM    6  C   LIG     1       0.208  -3.172  -5.037  1.00  0.00     0.001 A 
ENDROOT
BRANCH   1   7
HETATM    7  C   LIG     1       0.063  -0.332  -1.734  1.00  0.00     0.311 C 
BRANCH   7   8
HETATM    8  N   LIG     1       0.636  -0.856  -0.473  1.00  0.00     0.096 N 
HETATM    9  C   LIG     1      -0.059  -2.073  -0.001  1.00  0.00     0.303 C 
HETATM   10  C   LIG     1      -1.453  -1.865   0.643  1.00  0.00     0.302 C 
HETATM   11  N   LIG     1      -1.564  -0.801   1.656  1.00  0.00     0.087 N 
HETATM   12  C   LIG     1      -0.822   0.401   1.241  1.00  0.00     0.302 C 
HETATM   13  C   LIG     1      -1.174  -1.259   2.987  1.00  0.00     0.310 C 
HETATM   14  C   LIG     1       0.579   0.143   0.625  1.00  0.00     0.303 C 
ENDBRANCH   7   8
ENDBRANCH   1   7
BRANCH   2  15
HETATM   15  C   LIG     1       2.766  -1.309  -2.948  1.00  0.00     0.203 C 
BRANCH  15  16
HETATM   16  O   LIG     1       3.198  -2.180  -1.914  1.00  0.00    -0.396 OA
ATOM     17  HO  LIG     1       4.049  -1.903  -1.594  1.00  0.00     0.209 HD
ENDBRANCH  15  16
ENDBRANCH   2  15
TORSDOF 4
