REMARK  3 active torsions:
REMARK  status: ('A' for Active; 'I' for Inactive)
REMARK    1  A    between atoms: C_3  and  C_7 
REMARK    2  A    between atoms: C_6  and  C_12 
REMARK    3  A    between atoms: C_12  and  N_14 
ROOT
HETATM    1  N   LIG     1       0.905  -0.893  -0.098  1.00  0.00    -0.297 N 
ATOM      2  HN  LIG     1       1.587  -1.649  -0.161  1.00  0.00     0.187 HD
HETATM    3  C   LIG     1      -0.427  -0.993  -0.009  1.00  0.00     0.067 A 
HETATM    4  N   LIG     1       1.140   0.434  -0.085  1.00  0.00    -0.299 N 
HETATM    5  C   LIG     1      -1.036   0.281   0.039  1.00  0.00     0.060 A 
HETATM    6  C   LIG     1      -0.002   1.193  -0.024  1.00  0.00     0.055 A 
HETATM    7  C   LIG     1       2.505   0.909  -0.113  1.00  0.00     0.177 C 
ENDROOT
BRANCH   3   8
HETATM    8  C   LIG     1      -1.128  -2.321   0.030  1.00  0.00     0.033 A 
HETATM    9  S   LIG     1      -2.819  -2.512   0.198  1.00  0.00    -0.100 SA
HETATM   10  C   LIG     1      -2.695  -4.217   0.162  1.00  0.00     0.050 A 
HETATM   11  C   LIG     1      -1.392  -4.636   0.008  1.00  0.00     0.008 A 
HETATM   12  C   LIG     1      -0.485  -3.538  -0.065  1.00  0.00     0.021 A 
ENDBRANCH   3   8
BRANCH   6  13
HETATM   13  C   LIG     1      -0.023   2.674  -0.048  1.00  0.00     0.288 C 
BRANCH  13  14
HETATM   14  N   LIG     1       0.626   3.205   1.139  1.00  0.00    -0.074 N 
ATOM     15  HN3 LIG     1       0.217   2.832   1.996  1.00  0.00     0.274 HD
ATOM     16  HN2 LIG     1       1.571   2.839   1.252  1.00  0.00     0.274 HD
ATOM     17  HN1 LIG     1       0.612   4.225   1.122  1.00  0.00     0.274 HD
ENDBRANCH  13  14
ENDBRANCH   6  13
TORSDOF 3
