REMARK  2 active torsions:
REMARK  status: ('A' for Active; 'I' for Inactive)
REMARK    1  A    between atoms: C_2  and  C_4 
REMARK    2  A    between atoms: C_3  and  C_7 
ROOT
HETATM    1  S   LIG     1       1.296  -1.040  -0.222  1.00  0.00    -0.081 SA
HETATM    2  C   LIG     1       1.097   0.652  -0.041  1.00  0.00     0.039 A 
HETATM    3  C   LIG     1      -0.381  -1.343  -0.075  1.00  0.00     0.082 A 
HETATM    4  C   LIG     1      -1.087  -0.166   0.083  1.00  0.00     0.027 A 
HETATM    5  C   LIG     1      -0.237   0.980   0.102  1.00  0.00     0.023 A 
ENDROOT
BRANCH   2   6
HETATM    6  C   LIG     1       2.212   1.563  -0.038  1.00  0.00     0.092 A 
HETATM    7  O   LIG     1       2.053   2.918   0.132  1.00  0.00    -0.321 OA
HETATM    8  C   LIG     1       3.281   3.492   0.097  1.00  0.00     0.142 A 
HETATM    9  C   LIG     1       4.251   2.541  -0.097  1.00  0.00     0.027 A 
HETATM   10  C   LIG     1       3.568   1.305  -0.183  1.00  0.00     0.040 A 
ENDBRANCH   2   6
BRANCH   3  11
HETATM   11  C   LIG     1      -0.857  -2.705  -0.120  1.00  0.00     0.216 C 
HETATM   12  O   LIG     1      -0.222  -3.736  -0.279  1.00  0.00    -0.643 OA
HETATM   13  O   LIG     1      -2.198  -2.767   0.053  1.00  0.00    -0.643 OA
ENDBRANCH   3  11
TORSDOF 2
