REMARK  3 active torsions:
REMARK  status: ('A' for Active; 'I' for Inactive)
REMARK    1  A    between atoms: C_1  and  C_3 
REMARK    2  A    between atoms: C_5  and  C_14 
REMARK    3  A    between atoms: N_11  and  C_14 
ROOT
HETATM    1  C   LIG     1      -0.231  -1.870  -0.059  1.00  0.00     0.039 A 
HETATM    2  S   LIG     1       1.328  -1.168  -0.153  1.00  0.00    -0.090 SA
HETATM    3  C   LIG     1      -1.204  -0.899   0.079  1.00  0.00     0.023 A 
HETATM    4  C   LIG     1       0.713   0.424  -0.026  1.00  0.00     0.009 A 
HETATM    5  C   LIG     1      -0.662   0.419   0.108  1.00  0.00     0.017 A 
ENDROOT
BRANCH   1   6
HETATM    6  C   LIG     1      -0.448  -3.292  -0.126  1.00  0.00     0.092 A 
HETATM    7  O   LIG     1      -1.706  -3.843  -0.072  1.00  0.00    -0.321 OA
HETATM    8  C   LIG     1      -1.580  -5.190  -0.164  1.00  0.00     0.142 A 
HETATM    9  C   LIG     1      -0.257  -5.542  -0.275  1.00  0.00     0.027 A 
HETATM   10  C   LIG     1       0.468  -4.327  -0.251  1.00  0.00     0.040 A 
ENDBRANCH   1   6
BRANCH   4  11
HETATM   11  C   LIG     1       1.646   1.600  -0.055  1.00  0.00     0.277 C 
BRANCH  11  12
HETATM   12  N   LIG     1       1.309   2.488  -1.170  1.00  0.00    -0.075 N 
HETATM   13  C   LIG     1       2.239   3.605  -1.243  1.00  0.00     0.267 C 
ATOM     14  HN2 LIG     1       1.259   1.981  -2.054  1.00  0.00     0.277 HD
ATOM     15  HN1 LIG     1       0.341   2.806  -1.119  1.00  0.00     0.277 HD
ENDBRANCH  11  12
ENDBRANCH   4  11
TORSDOF 3
