REMARK  3 active torsions:
REMARK  status: ('A' for Active; 'I' for Inactive)
REMARK    1  A    between atoms: C_3  and  C_7 
REMARK    2  A    between atoms: C_6  and  C_12 
REMARK    3  A    between atoms: C_12  and  O_14 
ROOT
HETATM    1  N   LIG     1       0.994  -0.747   0.037  1.00  0.00    -0.297 N 
ATOM      2  HN  LIG     1       1.767  -1.412   0.072  1.00  0.00     0.187 HD
HETATM    3  C   LIG     1      -0.319  -1.014   0.017  1.00  0.00     0.067 A 
HETATM    4  N   LIG     1       1.062   0.597   0.001  1.00  0.00    -0.298 N 
HETATM    5  C   LIG     1      -1.083   0.174  -0.021  1.00  0.00     0.061 A 
HETATM    6  C   LIG     1      -0.167   1.206  -0.028  1.00  0.00     0.053 A 
HETATM    7  C   LIG     1       2.358   1.238   0.010  1.00  0.00     0.177 C 
ENDROOT
BRANCH   3   8
HETATM    8  C   LIG     1      -0.844  -2.419   0.033  1.00  0.00     0.033 A 
HETATM    9  S   LIG     1      -2.503  -2.833   0.000  1.00  0.00    -0.100 SA
HETATM   10  C   LIG     1      -2.153  -4.507   0.037  1.00  0.00     0.050 A 
HETATM   11  C   LIG     1      -0.798  -4.750   0.076  1.00  0.00     0.008 A 
HETATM   12  C   LIG     1      -0.041  -3.541   0.073  1.00  0.00     0.021 A 
ENDBRANCH   3   8
BRANCH   6  13
HETATM   13  C   LIG     1      -0.359   2.670  -0.076  1.00  0.00     0.222 C 
BRANCH  13  14
HETATM   14  O   LIG     1       0.194   3.205   1.115  1.00  0.00    -0.395 OA
ATOM     15  HO  LIG     1       0.071   4.146   1.084  1.00  0.00     0.209 HD
ENDBRANCH  13  14
ENDBRANCH   6  13
TORSDOF 3
