REMARK  2 active torsions:
REMARK  status: ('A' for Active; 'I' for Inactive)
REMARK    1  A    between atoms: C_3  and  C_8 
REMARK    2  A    between atoms: C_8  and  N_9 
ROOT
HETATM    1  C   LIG     1       0.097   0.207  -0.160  1.00  0.00     0.117 A 
HETATM    2  C   LIG     1       0.068  -1.204  -0.306  1.00  0.00     0.109 A 
HETATM    3  C   LIG     1       1.373   0.723  -0.197  1.00  0.00     0.044 A 
HETATM    4  S   LIG     1       2.526  -0.531  -0.463  1.00  0.00    -0.099 SA
HETATM    5  C   LIG     1       1.312  -1.743  -0.503  1.00  0.00     0.090 A 
HETATM    6  O   LIG     1      -1.005   0.977   0.018  1.00  0.00    -0.345 OA
HETATM    7  O   LIG     1      -1.058  -1.956  -0.277  1.00  0.00    -0.346 OA
HETATM    8  C   LIG     1      -2.192   0.231  -0.309  1.00  0.00     0.202 C 
HETATM    9  C   LIG     1      -2.152  -1.192   0.262  1.00  0.00     0.202 C 
ENDROOT
BRANCH   3  10
HETATM   10  C   LIG     1       1.818   2.146  -0.066  1.00  0.00     0.280 C 
BRANCH  10  11
HETATM   11  N   LIG     1       2.081   2.467   1.339  1.00  0.00    -0.075 N 
HETATM   12  C   LIG     1       2.503   3.852   1.486  1.00  0.00     0.267 C 
ATOM     13  HN2 LIG     1       1.278   2.253   1.931  1.00  0.00     0.277 HD
ATOM     14  HN1 LIG     1       2.754   1.822   1.753  1.00  0.00     0.277 HD
ENDBRANCH  10  11
ENDBRANCH   3  10
TORSDOF 2
