REMARK  2 active torsions:
REMARK  status: ('A' for Active; 'I' for Inactive)
REMARK    1  A    between atoms: N_1  and  C_4 
REMARK    2  A    between atoms: C_2  and  C_4 
ROOT
HETATM    1  C   LIG     1       0.612  -0.484  -0.603  1.00  0.00     0.313 C 
ENDROOT
BRANCH   1   2
HETATM    2  N   LIG     1       0.069   0.464   0.394  1.00  0.00     0.096 N 
HETATM    3  C   LIG     1       0.483   0.064   1.760  1.00  0.00     0.303 C 
HETATM    4  C   LIG     1      -0.275  -1.149   2.364  1.00  0.00     0.302 C 
HETATM    5  N   LIG     1      -1.747  -1.078   2.281  1.00  0.00     0.087 N 
HETATM    6  C   LIG     1      -2.146  -0.694   0.913  1.00  0.00     0.302 C 
HETATM    7  C   LIG     1      -2.295  -0.153   3.273  1.00  0.00     0.310 C 
HETATM    8  C   LIG     1      -1.408   0.544   0.350  1.00  0.00     0.303 C 
ENDBRANCH   1   2
BRANCH   1   9
HETATM    9  C   LIG     1       0.337  -0.117  -2.054  1.00  0.00    -0.006 A 
HETATM   10  C   LIG     1       0.799   1.082  -2.630  1.00  0.00     0.054 A 
HETATM   11  N   LIG     1       1.577   1.993  -1.890  1.00  0.00    -0.102 NA
HETATM   12  C   LIG     1       0.665   1.269  -4.013  1.00  0.00     0.027 A 
HETATM   13  C   LIG     1      -0.013   0.339  -4.802  1.00  0.00     0.002 A 
HETATM   14  C   LIG     1      -0.548  -0.804  -4.219  1.00  0.00     0.001 A 
HETATM   15  C   LIG     1      -0.367  -1.035  -2.857  1.00  0.00     0.011 A 
ENDBRANCH   1   9
TORSDOF 2
