REMARK  0 active torsions:
REMARK  status: ('A' for Active; 'I' for Inactive)
ROOT
HETATM    1  C   LIG     1       0.275   0.689   0.055  1.00  0.00     0.130 A 
HETATM    2  C   LIG     1       1.558   1.189   0.044  1.00  0.00     0.121 A 
HETATM    3  C   LIG     1       0.243  -0.717  -0.053  1.00  0.00     0.110 A 
HETATM    4  S   LIG     1       2.717  -0.078  -0.003  1.00  0.00    -0.085 SA
HETATM    5  C   LIG     1       1.496  -1.279  -0.057  1.00  0.00     0.090 A 
HETATM    6  C   LIG     1       1.925   2.572   0.053  1.00  0.00     0.110 C 
HETATM    7  N   LIG     1       2.241   3.684   0.042  1.00  0.00    -0.191 NA
HETATM    8  O   LIG     1      -0.813   1.481   0.161  1.00  0.00    -0.344 OA
HETATM    9  O   LIG     1      -0.866  -1.473  -0.158  1.00  0.00    -0.346 OA
HETATM   10  C   LIG     1      -2.036   0.789  -0.091  1.00  0.00     0.202 C 
HETATM   11  C   LIG     1      -2.064  -0.739   0.090  1.00  0.00     0.202 C 
ENDROOT
TORSDOF 0
