REMARK  2 active torsions:
REMARK  status: ('A' for Active; 'I' for Inactive)
REMARK    1  A    between atoms: C_1  and  C_3 
REMARK    2  A    between atoms: N_2  and  C_3 
ROOT
HETATM    1  C   LIG     1       0.324   0.274  -0.586  1.00  0.00    -0.006 A 
HETATM    2  C   LIG     1       1.090   1.041  -1.484  1.00  0.00     0.054 A 
HETATM    3  N   LIG     1       0.662   1.245  -2.810  1.00  0.00    -0.102 NA
HETATM    4  C   LIG     1       0.725   0.194   0.762  1.00  0.00     0.011 A 
HETATM    5  C   LIG     1       2.172   1.786  -0.996  1.00  0.00     0.027 A 
HETATM    6  C   LIG     1       1.843   0.892   1.219  1.00  0.00     0.001 A 
HETATM    7  C   LIG     1       2.561   1.695   0.341  1.00  0.00     0.002 A 
ENDROOT
BRANCH   1   8
HETATM    8  C   LIG     1      -0.936  -0.457  -1.018  1.00  0.00     0.313 C 
BRANCH   8   9
HETATM    9  N   LIG     1      -0.726  -1.450  -2.094  1.00  0.00     0.096 N 
HETATM   10  C   LIG     1      -2.015  -2.047  -2.519  1.00  0.00     0.299 C 
HETATM   11  C   LIG     1      -2.615  -3.047  -1.512  1.00  0.00     0.198 C 
HETATM   12  O   LIG     1      -1.683  -4.080  -1.171  1.00  0.00    -0.388 OA
HETATM   13  C   LIG     1      -0.462  -3.524  -0.667  1.00  0.00     0.198 C 
HETATM   14  C   LIG     1       0.168  -2.558  -1.683  1.00  0.00     0.299 C 
ENDBRANCH   8   9
ENDBRANCH   1   8
TORSDOF 2
