REMARK  3 active torsions:
REMARK  status: ('A' for Active; 'I' for Inactive)
REMARK    1  A    between atoms: C_1  and  C_2 
REMARK    2  A    between atoms: C_8  and  C_14 
REMARK    3  A    between atoms: N_9  and  C_14 
ROOT
HETATM    1  C   LIG     1      -0.402   2.235   0.038  1.00  0.00    -0.025 A 
HETATM    2  C   LIG     1      -1.612   2.745  -0.460  1.00  0.00     0.021 A 
HETATM    3  C   LIG     1      -1.870   4.128  -0.482  1.00  0.00    -0.032 A 
HETATM    4  C   LIG     1       0.558   3.137   0.517  1.00  0.00     0.012 A 
HETATM    5  C   LIG     1       0.309   4.511   0.512  1.00  0.00     0.001 A 
HETATM    6  C   LIG     1      -0.898   5.004   0.016  1.00  0.00     0.009 A 
ENDROOT
BRANCH   1   7
HETATM    7  C   LIG     1      -0.156   0.790   0.041  1.00  0.00    -0.019 A 
HETATM    8  C   LIG     1       0.590   0.168   1.026  1.00  0.00     0.061 A 
HETATM    9  S   LIG     1       0.719  -1.524   0.798  1.00  0.00    -0.113 SA
HETATM   10  C   LIG     1      -0.235  -1.460  -0.616  1.00  0.00     0.050 A 
HETATM   11  C   LIG     1      -0.636  -0.174  -0.908  1.00  0.00     0.020 A 
ENDBRANCH   1   7
BRANCH   3  12
HETATM   12  C   LIG     1      -3.181   4.656  -1.019  1.00  0.00     0.270 C 
BRANCH  12  13
HETATM   13  N   LIG     1      -3.350   4.319  -2.433  1.00  0.00    -0.075 N 
HETATM   14  C   LIG     1      -4.598   4.859  -2.953  1.00  0.00     0.267 C 
ATOM     15  HN2 LIG     1      -2.550   4.619  -2.989  1.00  0.00     0.277 HD
ATOM     16  HN1 LIG     1      -3.280   3.314  -2.591  1.00  0.00     0.277 HD
ENDBRANCH  12  13
ENDBRANCH   3  12
TORSDOF 3
