REMARK  3 active torsions:
REMARK  status: ('A' for Active; 'I' for Inactive)
REMARK    1  A    between atoms: C_1  and  C_3 
REMARK    2  A    between atoms: C_11  and  C_16 
REMARK    3  A    between atoms: N_12  and  C_16 
ROOT
HETATM    1  C   LIG     1      -0.775   2.361  -0.030  1.00  0.00    -0.025 A 
HETATM    2  C   LIG     1      -2.080   2.663  -0.447  1.00  0.00     0.013 A 
HETATM    3  C   LIG     1       0.110   3.419   0.209  1.00  0.00     0.013 A 
HETATM    4  C   LIG     1      -0.297   4.746   0.033  1.00  0.00     0.010 A 
HETATM    5  C   LIG     1      -2.489   3.991  -0.617  1.00  0.00     0.010 A 
HETATM    6  C   LIG     1      -1.601   5.047  -0.381  1.00  0.00    -0.033 A 
ENDROOT
BRANCH   1   7
HETATM    7  C   LIG     1      -0.330   0.975   0.139  1.00  0.00    -0.019 A 
HETATM    8  C   LIG     1      -1.178  -0.033   0.558  1.00  0.00     0.061 A 
HETATM    9  S   LIG     1      -0.403  -1.555   0.676  1.00  0.00    -0.113 SA
HETATM   10  C   LIG     1       1.090  -0.892   0.181  1.00  0.00     0.050 A 
HETATM   11  C   LIG     1       0.995   0.460  -0.071  1.00  0.00     0.020 A 
ENDBRANCH   1   7
BRANCH   6  12
HETATM   12  C   LIG     1      -2.027   6.478  -0.591  1.00  0.00     0.268 C 
BRANCH  12  13
HETATM   13  N   LIG     1      -1.928   7.255   0.639  1.00  0.00    -0.075 N 
ATOM     14  HN3 LIG     1      -2.451   6.819   1.398  1.00  0.00     0.274 HD
ATOM     15  HN2 LIG     1      -0.991   7.200   1.039  1.00  0.00     0.274 HD
ATOM     16  HN1 LIG     1      -2.216   8.223   0.497  1.00  0.00     0.274 HD
ENDBRANCH  12  13
ENDBRANCH   6  12
TORSDOF 3
