REMARK  3 active torsions:
REMARK  status: ('A' for Active; 'I' for Inactive)
REMARK    1  A    between atoms: N_1  and  C_7 
REMARK    2  A    between atoms: C_4  and  C_8 
REMARK    3  A    between atoms: C_8  and  O_11 
ROOT
HETATM    1  N   LIG     1      -0.534  -1.111   0.139  1.00  0.00    -0.260 N 
HETATM    2  N   LIG     1       0.795  -0.823   0.245  1.00  0.00    -0.298 N 
ATOM      3  HN  LIG     1       1.558  -1.488   0.372  1.00  0.00     0.187 HD
HETATM    4  C   LIG     1      -0.366   1.116   0.036  1.00  0.00     0.013 C 
HETATM    5  C   LIG     1      -1.278   0.069   0.112  1.00  0.00     0.041 C 
HETATM    6  C   LIG     1       0.897   0.498   0.149  1.00  0.00     0.033 C 
HETATM    7  C   LIG     1      -2.759   0.179   0.157  1.00  0.00     0.071 C 
HETATM    8  C   LIG     1       2.236   1.143   0.183  1.00  0.00     0.070 C 
ENDROOT
BRANCH   1   9
HETATM    9  C   LIG     1      -0.932  -2.488   0.064  1.00  0.00     0.056 A 
HETATM   10  C   LIG     1      -2.252  -2.894  -0.166  1.00  0.00     0.031 A 
HETATM   11  C   LIG     1      -2.583  -4.253  -0.230  1.00  0.00     0.002 A 
HETATM   12  C   LIG     1      -1.598  -5.226  -0.089  1.00  0.00     0.000 A 
HETATM   13  C   LIG     1      -0.278  -4.842   0.116  1.00  0.00     0.002 A 
HETATM   14  C   LIG     1       0.054  -3.486   0.195  1.00  0.00     0.031 A 
ENDBRANCH   1   9
BRANCH   4  15
HETATM   15  C   LIG     1      -0.656   2.569  -0.106  1.00  0.00     0.207 C 
BRANCH  15  16
HETATM   16  O   LIG     1      -1.343   2.843  -1.324  1.00  0.00    -0.396 OA
ATOM     17  HO  LIG     1      -1.528   3.770  -1.415  1.00  0.00     0.209 HD
ENDBRANCH  15  16
ENDBRANCH   4  15
TORSDOF 3
