REMARK  4 active torsions:
REMARK  status: ('A' for Active; 'I' for Inactive)
REMARK    1  A    between atoms: N_1  and  C_3 
REMARK    2  A    between atoms: C_2  and  C_3 
REMARK    3  A    between atoms: C_4  and  C_10 
REMARK    4  A    between atoms: O_8  and  C_10 
ROOT
HETATM    1  C   LIG     1      -0.903  -1.300  -2.373  1.00  0.00    -0.022 A 
HETATM    2  C   LIG     1      -1.406  -2.500  -1.824  1.00  0.00    -0.027 A 
HETATM    3  C   LIG     1      -0.893  -1.143  -3.775  1.00  0.00     0.009 A 
HETATM    4  C   LIG     1      -1.923  -3.486  -2.690  1.00  0.00     0.010 A 
HETATM    5  C   LIG     1      -1.389  -2.139  -4.616  1.00  0.00     0.001 A 
HETATM    6  C   LIG     1      -1.903  -3.305  -4.075  1.00  0.00     0.001 A 
ENDROOT
BRANCH   1   7
HETATM    7  C   LIG     1      -0.313  -0.176  -1.529  1.00  0.00     0.311 C 
BRANCH   7   8
HETATM    8  N   LIG     1      -1.221   0.334  -0.491  1.00  0.00     0.096 N 
HETATM    9  C   LIG     1      -2.430   0.994  -1.032  1.00  0.00     0.299 C 
HETATM   10  C   LIG     1      -2.246   2.447  -1.495  1.00  0.00     0.198 C 
HETATM   11  O   LIG     1      -1.657   3.250  -0.468  1.00  0.00    -0.388 OA
HETATM   12  C   LIG     1      -0.387   2.714  -0.088  1.00  0.00     0.198 C 
HETATM   13  C   LIG     1      -0.520   1.268   0.423  1.00  0.00     0.299 C 
ENDBRANCH   7   8
ENDBRANCH   1   7
BRANCH   2  14
HETATM   14  C   LIG     1      -1.456  -2.765  -0.341  1.00  0.00     0.203 C 
BRANCH  14  15
HETATM   15  O   LIG     1      -2.673  -2.283   0.207  1.00  0.00    -0.396 OA
ATOM     16  HO  LIG     1      -2.705  -2.450   1.142  1.00  0.00     0.209 HD
ENDBRANCH  14  15
ENDBRANCH   2  14
TORSDOF 4
