REMARK  1 active torsions:
REMARK  status: ('A' for Active; 'I' for Inactive)
REMARK    1  A    between atoms: C_1  and  C_2 
ROOT
HETATM    1  C   LIG     1      -0.780   2.483  -0.074  1.00  0.00    -0.024 A 
HETATM    2  C   LIG     1      -2.081   2.811  -0.484  1.00  0.00     0.038 A 
HETATM    3  C   LIG     1      -2.481   4.144  -0.627  1.00  0.00     0.047 A 
HETATM    4  N   LIG     1      -3.817   4.454  -0.913  1.00  0.00    -0.102 NA
HETATM    5  C   LIG     1       0.116   3.515   0.232  1.00  0.00     0.012 A 
HETATM    6  C   LIG     1      -0.293   4.846   0.154  1.00  0.00     0.003 A 
HETATM    7  C   LIG     1      -1.592   5.154  -0.252  1.00  0.00     0.026 A 
ENDROOT
BRANCH   1   8
HETATM    8  C   LIG     1      -0.378   1.083   0.028  1.00  0.00    -0.019 A 
HETATM    9  C   LIG     1       0.344   0.603   1.105  1.00  0.00     0.061 A 
HETATM   10  S   LIG     1       0.677  -1.072   0.984  1.00  0.00    -0.113 SA
HETATM   11  C   LIG     1      -0.150  -1.183  -0.507  1.00  0.00     0.050 A 
HETATM   12  C   LIG     1      -0.668   0.032  -0.902  1.00  0.00     0.020 A 
ENDBRANCH   1   8
TORSDOF 1
