REMARK  2 active torsions:
REMARK  status: ('A' for Active; 'I' for Inactive)
REMARK    1  A    between atoms: C_1  and  C_4 
REMARK    2  A    between atoms: C_2  and  C_3 
ROOT
HETATM    1  C   LIG     1      -0.183   4.833   0.183  1.00  0.00     0.041 A 
HETATM    2  C   LIG     1      -0.744   2.469  -0.015  1.00  0.00    -0.024 A 
HETATM    3  C   LIG     1       0.181   3.482   0.277  1.00  0.00     0.030 A 
HETATM    4  C   LIG     1      -1.480   5.179  -0.213  1.00  0.00     0.018 A 
HETATM    5  C   LIG     1      -2.043   2.836  -0.401  1.00  0.00     0.012 A 
HETATM    6  C   LIG     1      -2.408   4.181  -0.504  1.00  0.00     0.002 A 
ENDROOT
BRANCH   2   7
HETATM    7  C   LIG     1      -0.352   1.061   0.100  1.00  0.00    -0.019 A 
HETATM    8  C   LIG     1      -0.890   0.072  -0.704  1.00  0.00     0.061 A 
HETATM    9  S   LIG     1      -0.256  -1.483  -0.369  1.00  0.00    -0.113 SA
HETATM   10  C   LIG     1       0.767  -0.860   0.848  1.00  0.00     0.050 A 
HETATM   11  C   LIG     1       0.620   0.501   0.997  1.00  0.00     0.020 A 
ENDBRANCH   2   7
BRANCH   1  12
HETATM   12  C   LIG     1       0.768   5.927   0.494  1.00  0.00     0.209 C 
HETATM   13  O   LIG     1       0.528   7.120   0.434  1.00  0.00    -0.644 OA
HETATM   14  O   LIG     1       1.977   5.479   0.874  1.00  0.00    -0.644 OA
ENDBRANCH   1  12
TORSDOF 2
