REMARK  4 active torsions:
REMARK  status: ('A' for Active; 'I' for Inactive)
REMARK    1  A    between atoms: C_1  and  O_4 
REMARK    2  A    between atoms: O_4  and  C_5 
REMARK    3  A    between atoms: C_6  and  C_15 
REMARK    4  A    between atoms: O_11  and  C_15 
ROOT
HETATM    1  C   LIG     1      -3.079  -2.233  -0.447  1.00  0.00     0.077 A 
HETATM    2  C   LIG     1      -5.714  -2.925  -1.130  1.00  0.00    -0.035 A 
HETATM    3  C   LIG     1      -3.553  -3.516  -0.176  1.00  0.00     0.038 A 
HETATM    4  C   LIG     1      -3.940  -1.276  -0.989  1.00  0.00     0.038 A 
HETATM    5  C   LIG     1      -5.241  -1.626  -1.350  1.00  0.00     0.012 A 
HETATM    6  C   LIG     1      -4.865  -3.860  -0.515  1.00  0.00     0.012 A 
ENDROOT
BRANCH   1   7
HETATM    7  O   LIG     1      -1.778  -1.942  -0.107  1.00  0.00    -0.294 OA
BRANCH   7   8
HETATM    8  C   LIG     1      -1.009  -1.259  -1.049  1.00  0.00     0.147 A 
HETATM    9  N   LIG     1      -1.350  -1.302  -2.359  1.00  0.00    -0.347 N 
HETATM   10  C   LIG     1      -0.571  -0.615  -3.218  1.00  0.00     0.090 A 
ATOM     11  HN  LIG     1      -2.160  -1.831  -2.681  1.00  0.00     0.167 HD
HETATM   12  C   LIG     1       0.553   0.095  -2.836  1.00  0.00     0.017 A 
HETATM   13  C   LIG     1       0.898   0.105  -1.487  1.00  0.00     0.006 A 
HETATM   14  C   LIG     1       0.104  -0.583  -0.574  1.00  0.00     0.056 A 
ENDBRANCH   7   8
ENDBRANCH   1   7
BRANCH   2  15
HETATM   15  C   LIG     1      -7.107  -3.309  -1.554  1.00  0.00     0.202 C 
BRANCH  15  16
HETATM   16  O   LIG     1      -7.081  -4.370  -2.502  1.00  0.00    -0.396 OA
ATOM     17  HO  LIG     1      -7.960  -4.612  -2.769  1.00  0.00     0.209 HD
ENDBRANCH  15  16
ENDBRANCH   2  15
TORSDOF 4
