REMARK  3 active torsions:
REMARK  status: ('A' for Active; 'I' for Inactive)
REMARK    1  A    between atoms: C_1  and  C_2 
REMARK    2  A    between atoms: C_5  and  C_10 
REMARK    3  A    between atoms: C_10  and  O_11 
ROOT
HETATM    1  C   LIG     1      -0.417  -1.022   0.014  1.00  0.00     0.159 A 
HETATM    2  O   LIG     1       0.866  -0.542   0.006  1.00  0.00    -0.308 OA
HETATM    3  C   LIG     1      -1.305   0.037   0.029  1.00  0.00     0.045 A 
HETATM    4  C   LIG     1       0.790   0.821   0.016  1.00  0.00     0.077 A 
HETATM    5  C   LIG     1      -0.528   1.220   0.032  1.00  0.00     0.038 A 
ENDROOT
BRANCH   1   6
HETATM    6  C   LIG     1      -0.609  -2.495   0.007  1.00  0.00     0.439 C 
HETATM    7  F   LIG     1       0.560  -3.186   0.007  1.00  0.00    -0.164 F 
HETATM    8  F   LIG     1      -1.313  -2.914   1.091  1.00  0.00    -0.164 F 
HETATM    9  F   LIG     1      -1.305  -2.902  -1.088  1.00  0.00    -0.164 F 
ENDBRANCH   1   6
BRANCH   4  10
HETATM   10  C   LIG     1       2.078   1.553   0.012  1.00  0.00     0.229 C 
BRANCH  10  11
HETATM   11  O   LIG     1       2.785   1.190   1.191  1.00  0.00    -0.394 OA
ATOM     12  HO  LIG     1       3.611   1.659   1.188  1.00  0.00     0.209 HD
ENDBRANCH  10  11
ENDBRANCH   4  10
TORSDOF 3
