REMARK  2 active torsions:
REMARK  status: ('A' for Active; 'I' for Inactive)
REMARK    1  A    between atoms: C_1  and  C_5 
REMARK    2  A    between atoms: C_2  and  C_7 
ROOT
HETATM    1  C   LIG     1      -0.697  -1.437   0.043  1.00  0.00     0.077 A 
HETATM    2  C   LIG     1       0.681  -1.256   0.097  1.00  0.00     0.103 A 
HETATM    3  O   LIG     1       0.962   0.088   0.067  1.00  0.00    -0.314 OA
HETATM    4  C   LIG     1      -1.257  -0.120  -0.046  1.00  0.00     0.053 A 
HETATM    5  C   LIG     1      -0.210   0.766  -0.015  1.00  0.00     0.051 A 
HETATM    6  C   LIG     1      -0.114   2.237  -0.045  1.00  0.00     0.077 C 
ENDROOT
BRANCH   2   7
HETATM    7  C   LIG     1       1.876  -2.100   0.173  1.00  0.00    -0.001 A 
HETATM    8  C   LIG     1       3.027  -1.631   0.831  1.00  0.00     0.014 A 
HETATM    9  C   LIG     1       4.189  -2.405   0.903  1.00  0.00     0.001 A 
HETATM   10  C   LIG     1       4.220  -3.667   0.317  1.00  0.00     0.000 A 
HETATM   11  C   LIG     1       3.093  -4.147  -0.346  1.00  0.00     0.001 A 
HETATM   12  C   LIG     1       1.935  -3.365  -0.425  1.00  0.00     0.014 A 
ENDBRANCH   2   7
BRANCH   1  13
HETATM   13  C   LIG     1      -1.438  -2.677   0.096  1.00  0.00     0.212 C 
HETATM   14  O   LIG     1      -0.992  -3.801   0.257  1.00  0.00    -0.644 OA
HETATM   15  O   LIG     1      -2.776  -2.517  -0.049  1.00  0.00    -0.644 OA
ENDBRANCH   1  13
TORSDOF 2
