REMARK  4 active torsions:
REMARK  status: ('A' for Active; 'I' for Inactive)
REMARK    1  A    between atoms: C_1  and  O_2 
REMARK    2  A    between atoms: O_2  and  C_4 
REMARK    3  A    between atoms: C_3  and  C_8 
REMARK    4  A    between atoms: N_5  and  C_8 
ROOT
HETATM    1  C   LIG     1       1.624  -1.299   0.285  1.00  0.00     0.084 C 
HETATM    2  C   LIG     1       2.399  -2.313  -0.290  1.00  0.00     0.001 C 
HETATM    3  C   LIG     1       2.248  -0.387   1.158  1.00  0.00     0.038 C 
HETATM    4  C   LIG     1       3.806  -2.214  -0.183  1.00  0.00     0.012 C 
HETATM    5  C   LIG     1       4.416  -1.157   0.489  1.00  0.00     0.001 C 
HETATM    6  C   LIG     1       3.633  -0.258   1.198  1.00  0.00     0.003 C 
ENDROOT
BRANCH   1   7
HETATM    7  O   LIG     1       0.274  -1.162  -0.054  1.00  0.00    -0.310 OA
BRANCH   7   8
HETATM    8  C   LIG     1      -0.354   0.082   0.033  1.00  0.00     0.076 C 
HETATM    9  C   LIG     1       0.294   1.321  -0.018  1.00  0.00     0.037 C 
HETATM   10  C   LIG     1      -0.346   2.498   0.370  1.00  0.00     0.003 C 
HETATM   11  C   LIG     1      -1.712   2.474   0.638  1.00  0.00     0.000 C 
HETATM   12  C   LIG     1      -2.414   1.284   0.491  1.00  0.00     0.003 C 
HETATM   13  C   LIG     1      -1.745   0.083   0.208  1.00  0.00     0.037 C 
ENDBRANCH   7   8
ENDBRANCH   1   7
BRANCH   2  14
HETATM   14  C   LIG     1       1.806  -3.555  -0.932  1.00  0.00     0.273 C 
BRANCH  14  15
HETATM   15  N   LIG     1       1.748  -4.671   0.026  1.00  0.00    -0.075 N 
HETATM   16  C   LIG     1       1.055  -5.840  -0.504  1.00  0.00     0.267 C 
ATOM     17  HN2 LIG     1       2.682  -4.918   0.354  1.00  0.00     0.277 HD
ATOM     18  HN1 LIG     1       1.335  -4.372   0.909  1.00  0.00     0.277 HD
ENDBRANCH  14  15
ENDBRANCH   2  14
TORSDOF 4
