REMARK  4 active torsions:
REMARK  status: ('A' for Active; 'I' for Inactive)
REMARK    1  A    between atoms: C_1  and  O_2 
REMARK    2  A    between atoms: O_2  and  C_4 
REMARK    3  A    between atoms: C_3  and  C_5 
REMARK    4  A    between atoms: C_5  and  O_6 
ROOT
HETATM    1  C   LIG     1      -0.990   0.014   0.392  1.00  0.00     0.084 A 
HETATM    2  C   LIG     1      -0.399  -1.184  -0.037  1.00  0.00    -0.001 A 
HETATM    3  C   LIG     1      -0.191   1.088   0.807  1.00  0.00     0.038 A 
HETATM    4  C   LIG     1       0.999  -1.241  -0.153  1.00  0.00     0.012 A 
HETATM    5  C   LIG     1       1.790  -0.147   0.203  1.00  0.00     0.001 A 
HETATM    6  C   LIG     1       1.196   1.013   0.697  1.00  0.00     0.003 A 
ENDROOT
BRANCH   1   7
HETATM    7  O   LIG     1      -2.366   0.069   0.444  1.00  0.00    -0.310 OA
BRANCH   7   8
HETATM    8  C   LIG     1      -3.011   1.196  -0.019  1.00  0.00     0.076 A 
HETATM    9  C   LIG     1      -4.246   1.471   0.567  1.00  0.00     0.037 A 
HETATM   10  C   LIG     1      -4.978   2.592   0.173  1.00  0.00     0.003 A 
HETATM   11  C   LIG     1      -4.475   3.438  -0.817  1.00  0.00     0.000 A 
HETATM   12  C   LIG     1      -3.256   3.149  -1.428  1.00  0.00     0.003 A 
HETATM   13  C   LIG     1      -2.532   2.018  -1.047  1.00  0.00     0.037 A 
ENDBRANCH   7   8
ENDBRANCH   1   7
BRANCH   2  14
HETATM   14  C   LIG     1      -1.225  -2.390  -0.394  1.00  0.00     0.205 C 
BRANCH  14  15
HETATM   15  O   LIG     1      -1.561  -2.382  -1.773  1.00  0.00    -0.396 OA
ATOM     16  HO  LIG     1      -2.082  -3.143  -1.998  1.00  0.00     0.209 HD
ENDBRANCH  14  15
ENDBRANCH   2  14
TORSDOF 4
