REMARK  3 active torsions:
REMARK  status: ('A' for Active; 'I' for Inactive)
REMARK    1  A    between atoms: C_1  and  C_6 
REMARK    2  A    between atoms: C_2  and  C_7 
REMARK    3  A    between atoms: C_7  and  O_8 
ROOT
HETATM    1  C   LIG     1       0.789  -0.940  -0.020  1.00  0.00     0.094 A 
HETATM    2  C   LIG     1      -0.565  -1.246   0.003  1.00  0.00     0.002 A 
HETATM    3  O   LIG     1       0.951   0.418  -0.040  1.00  0.00    -0.314 OA
HETATM    4  C   LIG     1      -1.249   0.008  -0.024  1.00  0.00     0.044 A 
HETATM    5  C   LIG     1      -0.283   0.986  -0.045  1.00  0.00     0.050 A 
HETATM    6  C   LIG     1      -0.320   2.460  -0.062  1.00  0.00     0.076 C 
ENDROOT
BRANCH   1   7
HETATM    7  C   LIG     1       2.033  -1.707  -0.024  1.00  0.00    -0.002 A 
HETATM    8  C   LIG     1       3.193  -1.183   0.568  1.00  0.00     0.014 A 
HETATM    9  C   LIG     1       4.389  -1.906   0.575  1.00  0.00     0.001 A 
HETATM   10  C   LIG     1       4.442  -3.167  -0.013  1.00  0.00     0.000 A 
HETATM   11  C   LIG     1       3.302  -3.701  -0.611  1.00  0.00     0.001 A 
HETATM   12  C   LIG     1       2.107  -2.975  -0.618  1.00  0.00     0.014 A 
ENDBRANCH   1   7
BRANCH   2  13
HETATM   13  C   LIG     1      -1.209  -2.584   0.070  1.00  0.00     0.205 C 
BRANCH  13  14
HETATM   14  O   LIG     1      -1.430  -3.125  -1.227  1.00  0.00    -0.396 OA
ATOM     15  HO  LIG     1      -1.842  -3.980  -1.184  1.00  0.00     0.209 HD
ENDBRANCH  13  14
ENDBRANCH   2  13
TORSDOF 3
