REMARK  3 active torsions:
REMARK  status: ('A' for Active; 'I' for Inactive)
REMARK    1  A    between atoms: C_1  and  N_2 
REMARK    2  A    between atoms: C_7  and  C_17 
REMARK    3  A    between atoms: N_9  and  C_17 
ROOT
HETATM    1  C   LIG     1      -1.539   0.269  -0.022  1.00  0.00     0.103 A 
HETATM    2  N   LIG     1      -1.046  -0.972   0.176  1.00  0.00    -0.352 N 
ATOM      3  HN  LIG     1      -1.675  -1.766   0.300  1.00  0.00     0.166 HD
HETATM    4  C   LIG     1      -0.665   1.350  -0.156  1.00  0.00     0.057 A 
HETATM    5  C   LIG     1       0.727   1.165  -0.125  1.00  0.00    -0.028 A 
HETATM    6  C   LIG     1       0.297  -1.146   0.208  1.00  0.00     0.090 A 
HETATM    7  C   LIG     1       1.213  -0.122   0.059  1.00  0.00     0.026 A 
ENDROOT
BRANCH   1   8
HETATM    8  N   LIG     1      -2.926   0.460  -0.038  1.00  0.00    -0.366 N 
HETATM    9  C   LIG     1      -3.741  -0.747   0.200  1.00  0.00     0.134 C 
HETATM   10  C   LIG     1      -3.873  -1.639  -1.042  1.00  0.00     0.093 C 
HETATM   11  S   LIG     1      -4.614  -0.760  -2.469  1.00  0.00    -0.166 SA
HETATM   12  C   LIG     1      -3.536   0.715  -2.445  1.00  0.00     0.093 C 
HETATM   13  C   LIG     1      -3.485   1.366  -1.058  1.00  0.00     0.134 C 
ENDBRANCH   1   8
BRANCH   5  14
HETATM   14  C   LIG     1       1.648   2.347  -0.249  1.00  0.00     0.268 C 
BRANCH  14  15
HETATM   15  N   LIG     1       1.463   3.037  -1.520  1.00  0.00    -0.075 N 
ATOM     16  HN3 LIG     1       1.566   2.399  -2.309  1.00  0.00     0.274 HD
ATOM     17  HN2 LIG     1       0.489   3.306  -1.660  1.00  0.00     0.274 HD
ATOM     18  HN1 LIG     1       2.088   3.839  -1.604  1.00  0.00     0.274 HD
ENDBRANCH  14  15
ENDBRANCH   5  14
TORSDOF 3
