REMARK  3 active torsions:
REMARK  status: ('A' for Active; 'I' for Inactive)
REMARK    1  A    between atoms: C_1  and  N_2 
REMARK    2  A    between atoms: C_6  and  C_12 
REMARK    3  A    between atoms: O_10  and  C_12 
ROOT
HETATM    1  C   LIG     1      -1.620  -0.141  -0.373  1.00  0.00     0.103 A 
HETATM    2  N   LIG     1      -1.122  -1.268  -0.931  1.00  0.00    -0.352 N 
ATOM      3  HN  LIG     1      -1.703  -2.102  -1.013  1.00  0.00     0.166 HD
HETATM    4  C   LIG     1      -0.798   0.982  -0.238  1.00  0.00     0.057 A 
HETATM    5  C   LIG     1       0.521   0.971  -0.710  1.00  0.00    -0.030 A 
HETATM    6  C   LIG     1       0.152  -1.277  -1.378  1.00  0.00     0.090 A 
HETATM    7  C   LIG     1       1.003  -0.194  -1.299  1.00  0.00     0.026 A 
ENDROOT
BRANCH   1   8
HETATM    8  N   LIG     1      -2.933  -0.139   0.110  1.00  0.00    -0.367 N 
HETATM    9  C   LIG     1      -3.670  -1.406  -0.038  1.00  0.00     0.124 C 
HETATM   10  C   LIG     1      -4.305  -1.515  -1.427  1.00  0.00     0.020 C 
HETATM   11  C   LIG     1      -5.156  -0.286  -1.749  1.00  0.00     0.003 C 
HETATM   12  C   LIG     1      -4.369   1.006  -1.531  1.00  0.00     0.020 C 
HETATM   13  C   LIG     1      -3.765   1.047  -0.127  1.00  0.00     0.124 C 
ENDBRANCH   1   8
BRANCH   5  14
HETATM   14  C   LIG     1       1.395   2.188  -0.589  1.00  0.00     0.203 C 
BRANCH  14  15
HETATM   15  O   LIG     1       2.555   1.901   0.180  1.00  0.00    -0.396 OA
ATOM     16  HO  LIG     1       3.107   2.670   0.256  1.00  0.00     0.209 HD
ENDBRANCH  14  15
ENDBRANCH   5  14
TORSDOF 3
