REMARK  3 active torsions:
REMARK  status: ('A' for Active; 'I' for Inactive)
REMARK    1  A    between atoms: C_1  and  N_2 
REMARK    2  A    between atoms: C_6  and  C_14 
REMARK    3  A    between atoms: N_8  and  C_14 
ROOT
HETATM    1  C   LIG     1      -1.813  -0.440  -0.769  1.00  0.00     0.103 A 
HETATM    2  N   LIG     1      -1.580  -1.520  -1.545  1.00  0.00    -0.352 N 
ATOM      3  HN  LIG     1      -2.275  -2.263  -1.622  1.00  0.00     0.166 HD
HETATM    4  C   LIG     1      -0.830   0.544  -0.638  1.00  0.00     0.057 A 
HETATM    5  C   LIG     1       0.380   0.459  -1.344  1.00  0.00    -0.028 A 
HETATM    6  C   LIG     1      -0.409  -1.601  -2.220  1.00  0.00     0.090 A 
HETATM    7  C   LIG     1       0.587  -0.645  -2.158  1.00  0.00     0.026 A 
ENDROOT
BRANCH   1   8
HETATM    8  N   LIG     1      -3.022  -0.338  -0.065  1.00  0.00    -0.367 N 
HETATM    9  C   LIG     1      -3.951  -1.467  -0.225  1.00  0.00     0.124 C 
HETATM   10  C   LIG     1      -4.770  -1.334  -1.512  1.00  0.00     0.020 C 
HETATM   11  C   LIG     1      -5.449   0.033  -1.611  1.00  0.00     0.003 C 
HETATM   12  C   LIG     1      -4.456   1.172  -1.377  1.00  0.00     0.020 C 
HETATM   13  C   LIG     1      -3.693   0.969  -0.068  1.00  0.00     0.124 C 
ENDBRANCH   1   8
BRANCH   5  14
HETATM   14  C   LIG     1       1.422   1.532  -1.181  1.00  0.00     0.268 C 
BRANCH  14  15
HETATM   15  N   LIG     1       0.917   2.834  -1.600  1.00  0.00    -0.075 N 
ATOM     16  HN3 LIG     1       0.556   2.805  -2.554  1.00  0.00     0.274 HD
ATOM     17  HN2 LIG     1       0.054   3.074  -1.112  1.00  0.00     0.274 HD
ATOM     18  HN1 LIG     1       1.623   3.561  -1.489  1.00  0.00     0.274 HD
ENDBRANCH  14  15
ENDBRANCH   5  14
TORSDOF 3
