REMARK  3 active torsions:
REMARK  status: ('A' for Active; 'I' for Inactive)
REMARK    1  A    between atoms: C_8  and  C_12 
REMARK    2  A    between atoms: O_10  and  C_13 
REMARK    3  A    between atoms: C_12  and  C_13 
ROOT
HETATM    1  C   LIG     1      -0.423  -0.751  -0.066  1.00  0.00     0.105 A 
HETATM    2  C   LIG     1      -0.690   0.597  -0.029  1.00  0.00     0.105 A 
HETATM    3  O   LIG     1      -1.555  -1.503  -0.107  1.00  0.00    -0.323 OA
HETATM    4  O   LIG     1      -2.024   0.862  -0.041  1.00  0.00    -0.323 OA
HETATM    5  C   LIG     1      -2.566  -0.474  -0.083  1.00  0.00     0.352 A 
HETATM    6  C   LIG     1       0.868  -1.237  -0.054  1.00  0.00     0.047 A 
HETATM    7  C   LIG     1       0.318   1.533   0.020  1.00  0.00     0.040 A 
HETATM    8  C   LIG     1       1.924  -0.314   0.010  1.00  0.00    -0.053 A 
HETATM    9  C   LIG     1       1.638   1.071   0.041  1.00  0.00     0.010 A 
ENDROOT
BRANCH   8  10
HETATM   10  C   LIG     1       3.356  -0.801   0.049  1.00  0.00     0.064 C 
BRANCH  10  11
HETATM   11  C   LIG     1       3.967  -0.967  -1.341  1.00  0.00     0.168 C 
BRANCH  11  12
HETATM   12  O   LIG     1       4.312   0.296  -1.903  1.00  0.00    -0.401 OA
ATOM     13  HO  LIG     1       4.692   0.193  -2.768  1.00  0.00     0.209 HD
ENDBRANCH  11  12
ENDBRANCH  10  11
ENDBRANCH   8  10
TORSDOF 3
