REMARK  3 active torsions:
REMARK  status: ('A' for Active; 'I' for Inactive)
REMARK    1  A    between atoms: C_1  and  N_2 
REMARK    2  A    between atoms: C_6  and  C_12 
REMARK    3  A    between atoms: O_10  and  C_12 
ROOT
HETATM    1  C   LIG     1      -1.331   1.114  -0.446  1.00  0.00     0.103 A 
HETATM    2  N   LIG     1      -1.302  -0.197  -0.772  1.00  0.00    -0.352 N 
ATOM      3  HN  LIG     1      -2.154  -0.679  -1.059  1.00  0.00     0.166 HD
HETATM    4  C   LIG     1      -0.154   1.772  -0.085  1.00  0.00     0.057 A 
HETATM    5  C   LIG     1       1.066   1.081  -0.032  1.00  0.00    -0.030 A 
HETATM    6  C   LIG     1      -0.126  -0.858  -0.711  1.00  0.00     0.090 A 
HETATM    7  C   LIG     1       1.072  -0.273  -0.349  1.00  0.00     0.026 A 
ENDROOT
BRANCH   1   8
HETATM    8  N   LIG     1      -2.531   1.789  -0.523  1.00  0.00    -0.367 N 
HETATM    9  C   LIG     1      -3.725   1.045  -0.913  1.00  0.00     0.124 C 
HETATM   10  C   LIG     1      -4.845   2.052  -0.671  1.00  0.00     0.021 C 
HETATM   11  C   LIG     1      -4.378   2.759   0.591  1.00  0.00     0.021 C 
HETATM   12  C   LIG     1      -2.862   2.866   0.407  1.00  0.00     0.124 C 
ENDBRANCH   1   8
BRANCH   5  13
HETATM   13  C   LIG     1       2.329   1.799   0.349  1.00  0.00     0.203 C 
BRANCH  13  14
HETATM   14  O   LIG     1       2.642   2.806  -0.604  1.00  0.00    -0.396 OA
ATOM     15  HO  LIG     1       3.441   3.260  -0.363  1.00  0.00     0.209 HD
ENDBRANCH  13  14
ENDBRANCH   5  13
TORSDOF 3
