REMARK  2 active torsions:
REMARK  status: ('A' for Active; 'I' for Inactive)
REMARK    1  A    between atoms: C_1  and  O_4 
REMARK    2  A    between atoms: O_4  and  C_6 
ROOT
HETATM    1  O   LIG     1      -1.898  -2.335   0.146  1.00  0.00    -0.294 OA
ENDROOT
BRANCH   1   2
HETATM    2  C   LIG     1      -0.901  -3.296   0.030  1.00  0.00     0.147 A 
HETATM    3  N   LIG     1      -0.924  -4.184  -0.990  1.00  0.00    -0.347 N 
HETATM    4  C   LIG     1       0.104  -5.058  -1.054  1.00  0.00     0.090 A 
ATOM      5  HN  LIG     1      -1.679  -4.193  -1.676  1.00  0.00     0.167 HD
HETATM    6  C   LIG     1       1.158  -5.079  -0.154  1.00  0.00     0.017 A 
HETATM    7  C   LIG     1       1.165  -4.142   0.874  1.00  0.00     0.006 A 
HETATM    8  C   LIG     1       0.121  -3.228   0.967  1.00  0.00     0.056 A 
ENDBRANCH   1   2
BRANCH   1   9
HETATM    9  C   LIG     1      -3.149  -2.621  -0.350  1.00  0.00     0.079 A 
HETATM   10  C   LIG     1      -3.792  -3.850  -0.166  1.00  0.00     0.063 A 
HETATM   11  C   LIG     1      -5.083  -4.057  -0.660  1.00  0.00     0.049 A 
HETATM   12  N   LIG     1      -5.759  -5.256  -0.385  1.00  0.00    -0.102 NA
HETATM   13  C   LIG     1      -5.771  -2.977  -1.220  1.00  0.00     0.027 A 
HETATM   14  C   LIG     1      -5.145  -1.739  -1.383  1.00  0.00     0.005 A 
HETATM   15  C   LIG     1      -3.831  -1.563  -0.951  1.00  0.00     0.037 A 
ENDBRANCH   1   9
TORSDOF 2
