REMARK  4 active torsions:
REMARK  status: ('A' for Active; 'I' for Inactive)
REMARK    1  A    between atoms: C_1  and  O_4 
REMARK    2  A    between atoms: O_4  and  C_5 
REMARK    3  A    between atoms: C_7  and  C_14 
REMARK    4  A    between atoms: O_8  and  C_14 
ROOT
HETATM    1  C   LIG     1      -3.244  -2.487  -0.457  1.00  0.00     0.078 A 
HETATM    2  C   LIG     1      -3.808  -3.767  -0.433  1.00  0.00     0.046 A 
HETATM    3  C   LIG     1      -5.094  -3.995  -0.946  1.00  0.00    -0.032 A 
HETATM    4  C   LIG     1      -5.277  -1.629  -1.454  1.00  0.00     0.003 A 
HETATM    5  C   LIG     1      -3.991  -1.416  -0.950  1.00  0.00     0.037 A 
HETATM    6  C   LIG     1      -5.824  -2.913  -1.457  1.00  0.00     0.009 A 
ENDROOT
BRANCH   1   7
HETATM    7  O   LIG     1      -2.002  -2.188   0.066  1.00  0.00    -0.294 OA
BRANCH   7   8
HETATM    8  C   LIG     1      -0.975  -3.106  -0.116  1.00  0.00     0.147 A 
HETATM    9  N   LIG     1      -0.955  -3.876  -1.225  1.00  0.00    -0.347 N 
HETATM   10  C   LIG     1       0.049  -4.771  -1.332  1.00  0.00     0.090 A 
ATOM     11  HN  LIG     1      -1.667  -3.785  -1.950  1.00  0.00     0.167 HD
HETATM   12  C   LIG     1       1.037  -4.936  -0.373  1.00  0.00     0.017 A 
HETATM   13  C   LIG     1       1.017  -4.105   0.739  1.00  0.00     0.006 A 
HETATM   14  C   LIG     1       0.008  -3.153   0.867  1.00  0.00     0.056 A 
ENDBRANCH   7   8
ENDBRANCH   1   7
BRANCH   3  15
HETATM   15  C   LIG     1      -5.675  -5.384  -0.954  1.00  0.00     0.203 C 
BRANCH  15  16
HETATM   16  O   LIG     1      -6.831  -5.460  -0.129  1.00  0.00    -0.396 OA
ATOM     17  HO  LIG     1      -7.198  -6.336  -0.134  1.00  0.00     0.209 HD
ENDBRANCH  15  16
ENDBRANCH   3  15
TORSDOF 4
