REMARK  3 active torsions:
REMARK  status: ('A' for Active; 'I' for Inactive)
REMARK    1  A    between atoms: C_1  and  N_2 
REMARK    2  A    between atoms: C_6  and  C_13 
REMARK    3  A    between atoms: N_8  and  C_13 
ROOT
HETATM    1  C   LIG     1      -1.681   0.249  -0.218  1.00  0.00     0.103 A 
HETATM    2  N   LIG     1      -1.292  -1.027  -0.002  1.00  0.00    -0.352 N 
ATOM      3  HN  LIG     1      -1.983  -1.774   0.067  1.00  0.00     0.166 HD
HETATM    4  C   LIG     1      -0.723   1.265  -0.281  1.00  0.00     0.057 A 
HETATM    5  C   LIG     1       0.644   0.977  -0.157  1.00  0.00    -0.028 A 
HETATM    6  C   LIG     1       0.026  -1.300   0.121  1.00  0.00     0.090 A 
HETATM    7  C   LIG     1       1.021  -0.348   0.042  1.00  0.00     0.026 A 
ENDROOT
BRANCH   1   8
HETATM    8  N   LIG     1      -3.048   0.539  -0.315  1.00  0.00    -0.367 N 
HETATM    9  C   LIG     1      -3.955  -0.607  -0.138  1.00  0.00     0.124 C 
HETATM   10  C   LIG     1      -4.138  -1.374  -1.452  1.00  0.00     0.020 C 
HETATM   11  C   LIG     1      -4.562  -0.443  -2.587  1.00  0.00     0.003 C 
HETATM   12  C   LIG     1      -3.624   0.759  -2.700  1.00  0.00     0.020 C 
HETATM   13  C   LIG     1      -3.488   1.476  -1.356  1.00  0.00     0.124 C 
ENDBRANCH   1   8
BRANCH   5  14
HETATM   14  C   LIG     1       1.678   2.072  -0.232  1.00  0.00     0.270 C 
BRANCH  14  15
HETATM   15  N   LIG     1       2.457   2.141   1.004  1.00  0.00    -0.075 N 
HETATM   16  C   LIG     1       3.432   3.220   0.950  1.00  0.00     0.267 C 
ATOM     17  HN2 LIG     1       1.855   2.220   1.823  1.00  0.00     0.277 HD
ATOM     18  HN1 LIG     1       2.898   1.247   1.220  1.00  0.00     0.277 HD
ENDBRANCH  14  15
ENDBRANCH   5  14
TORSDOF 3
