REMARK  4 active torsions:
REMARK  status: ('A' for Active; 'I' for Inactive)
REMARK    1  A    between atoms: N_4  and  C_12 
REMARK    2  A    between atoms: C_5  and  O_10 
REMARK    3  A    between atoms: O_10  and  C_11 
REMARK    4  A    between atoms: C_11  and  C_12 
ROOT
HETATM    1  N   LIG     1       7.659   2.632  -6.628  1.00  0.00    -0.191 NA
HETATM    2  C   LIG     1       7.637   2.241  -5.543  1.00  0.00     0.099 C 
HETATM    3  C   LIG     1       7.621   1.723  -4.195  1.00  0.00     0.044 A 
HETATM    4  C   LIG     1       7.592   0.683  -1.574  1.00  0.00     0.068 A 
HETATM    5  C   LIG     1       7.902   0.372  -3.963  1.00  0.00     0.025 A 
HETATM    6  C   LIG     1       7.324   2.554  -3.109  1.00  0.00     0.025 A 
HETATM    7  C   LIG     1       7.879  -0.145  -2.663  1.00  0.00     0.038 A 
HETATM    8  C   LIG     1       7.315   2.034  -1.808  1.00  0.00     0.038 A 
ENDROOT
BRANCH   4   9
HETATM    9  O   LIG     1       7.556   0.293  -0.258  1.00  0.00    -0.349 OA
BRANCH   9  10
HETATM   10  C   LIG     1       7.802  -1.098  -0.008  1.00  0.00     0.206 C 
BRANCH  10  11
HETATM   11  C   LIG     1       7.806  -1.381   1.509  1.00  0.00     0.297 C 
BRANCH  11  12
HETATM   12  N   LIG     1       8.090  -2.795   1.852  1.00  0.00     0.082 N 
HETATM   13  C   LIG     1       9.434  -3.191   1.421  1.00  0.00     0.309 C 
HETATM   14  C   LIG     1       7.969  -3.012   3.298  1.00  0.00     0.309 C 
ENDBRANCH  11  12
ENDBRANCH  10  11
ENDBRANCH   9  10
ENDBRANCH   4   9
TORSDOF 4
