REMARK  6 active torsions:
REMARK  status: ('A' for Active; 'I' for Inactive)
REMARK    1  A    between atoms: C_1  and  C_6 
REMARK    2  A    between atoms: C_2  and  O_4 
REMARK    3  A    between atoms: N_3  and  C_10 
REMARK    4  A    between atoms: O_4  and  C_5 
REMARK    5  A    between atoms: C_5  and  C_10 
REMARK    6  A    between atoms: C_6  and  O_7 
ROOT
HETATM    1  C   LIG     1       0.332  -0.252  -1.396  1.00  0.00    -0.002 A 
HETATM    2  C   LIG     1      -0.830  -0.451  -0.642  1.00  0.00     0.077 A 
HETATM    3  C   LIG     1       0.533   0.987  -2.028  1.00  0.00     0.012 A 
HETATM    4  C   LIG     1      -1.756   0.592  -0.489  1.00  0.00     0.037 A 
HETATM    5  C   LIG     1      -0.412   2.006  -1.911  1.00  0.00     0.001 A 
HETATM    6  C   LIG     1      -1.549   1.811  -1.137  1.00  0.00     0.003 A 
ENDROOT
BRANCH   2   7
HETATM    7  O   LIG     1      -0.974  -1.684  -0.060  1.00  0.00    -0.349 OA
BRANCH   7   8
HETATM    8  C   LIG     1      -2.323  -2.099   0.178  1.00  0.00     0.206 C 
BRANCH   8   9
HETATM    9  C   LIG     1      -2.369  -3.635   0.211  1.00  0.00     0.297 C 
BRANCH   9  10
HETATM   10  N   LIG     1      -3.719  -4.198   0.413  1.00  0.00     0.082 N 
HETATM   11  C   LIG     1      -3.657  -5.662   0.397  1.00  0.00     0.309 C 
HETATM   12  C   LIG     1      -4.329  -3.743   1.663  1.00  0.00     0.309 C 
ENDBRANCH   9  10
ENDBRANCH   8   9
ENDBRANCH   7   8
ENDBRANCH   2   7
BRANCH   1  13
HETATM   13  C   LIG     1       1.385  -1.326  -1.536  1.00  0.00     0.205 C 
BRANCH  13  14
HETATM   14  O   LIG     1       2.363  -1.214  -0.507  1.00  0.00    -0.396 OA
ATOM     15  HO  LIG     1       3.025  -1.889  -0.595  1.00  0.00     0.209 HD
ENDBRANCH  13  14
ENDBRANCH   1  13
TORSDOF 6
