REMARK  6 active torsions:
REMARK  status: ('A' for Active; 'I' for Inactive)
REMARK    1  A    between atoms: N_1  and  C_13 
REMARK    2  A    between atoms: C_2  and  O_11 
REMARK    3  A    between atoms: N_3  and  C_14 
REMARK    4  A    between atoms: C_6  and  C_14 
REMARK    5  A    between atoms: O_11  and  C_12 
REMARK    6  A    between atoms: C_12  and  C_13 
ROOT
HETATM    1  C   LIG     1       0.324  -1.881   2.327  1.00  0.00     0.068 A 
HETATM    2  C   LIG     1       1.090   0.119   4.177  1.00  0.00    -0.033 A 
HETATM    3  C   LIG     1      -0.510  -0.787   2.571  1.00  0.00     0.037 A 
HETATM    4  C   LIG     1       1.510  -1.995   3.053  1.00  0.00     0.037 A 
HETATM    5  C   LIG     1      -0.134   0.193   3.498  1.00  0.00     0.011 A 
HETATM    6  C   LIG     1       1.901  -1.002   3.956  1.00  0.00     0.011 A 
ENDROOT
BRANCH   1   7
HETATM    7  O   LIG     1      -0.106  -2.771   1.372  1.00  0.00    -0.349 OA
BRANCH   7   8
HETATM    8  C   LIG     1       0.827  -3.812   1.042  1.00  0.00     0.206 C 
BRANCH   8   9
HETATM    9  C   LIG     1       0.282  -4.687  -0.105  1.00  0.00     0.297 C 
BRANCH   9  10
HETATM   10  N   LIG     1       1.185  -5.795  -0.500  1.00  0.00     0.082 N 
HETATM   11  C   LIG     1       1.388  -6.738   0.602  1.00  0.00     0.309 C 
HETATM   12  C   LIG     1       0.632  -6.517  -1.653  1.00  0.00     0.309 C 
ENDBRANCH   9  10
ENDBRANCH   8   9
ENDBRANCH   7   8
ENDBRANCH   1   7
BRANCH   2  13
HETATM   13  C   LIG     1       1.529   1.160   5.185  1.00  0.00     0.270 C 
BRANCH  13  14
HETATM   14  N   LIG     1       1.060   2.502   4.830  1.00  0.00    -0.075 N 
HETATM   15  C   LIG     1       1.469   3.490   5.814  1.00  0.00     0.267 C 
ATOM     16  HN2 LIG     1       1.360   2.765   3.891  1.00  0.00     0.277 HD
ATOM     17  HN1 LIG     1       0.051   2.517   4.684  1.00  0.00     0.277 HD
ENDBRANCH  13  14
ENDBRANCH   2  13
TORSDOF 6
