REMARK  6 active torsions:
REMARK  status: ('A' for Active; 'I' for Inactive)
REMARK    1  A    between atoms: N_1  and  C_12 
REMARK    2  A    between atoms: C_2  and  O_8 
REMARK    3  A    between atoms: C_3  and  C_13 
REMARK    4  A    between atoms: O_8  and  C_9 
REMARK    5  A    between atoms: C_9  and  C_12 
REMARK    6  A    between atoms: O_10  and  C_13 
ROOT
HETATM    1  C   LIG     1       1.499  -2.896  -1.542  1.00  0.00     0.068 A 
HETATM    2  C   LIG     1       2.887  -4.904  -0.138  1.00  0.00    -0.035 A 
HETATM    3  C   LIG     1       0.820  -3.998  -1.032  1.00  0.00     0.037 A 
HETATM    4  C   LIG     1       2.884  -2.802  -1.367  1.00  0.00     0.037 A 
HETATM    5  C   LIG     1       1.500  -4.993  -0.325  1.00  0.00     0.012 A 
HETATM    6  C   LIG     1       3.567  -3.800  -0.662  1.00  0.00     0.012 A 
ENDROOT
BRANCH   1   7
HETATM    7  O   LIG     1       0.721  -1.981  -2.200  1.00  0.00    -0.349 OA
BRANCH   7   8
HETATM    8  C   LIG     1       1.246  -0.648  -2.253  1.00  0.00     0.206 C 
BRANCH   8   9
HETATM    9  C   LIG     1       0.082   0.340  -2.446  1.00  0.00     0.297 C 
BRANCH   9  10
HETATM   10  N   LIG     1       0.499   1.755  -2.527  1.00  0.00     0.082 N 
HETATM   11  C   LIG     1       1.305   2.024  -3.719  1.00  0.00     0.309 C 
HETATM   12  C   LIG     1      -0.678   2.629  -2.529  1.00  0.00     0.309 C 
ENDBRANCH   9  10
ENDBRANCH   8   9
ENDBRANCH   7   8
ENDBRANCH   1   7
BRANCH   2  13
HETATM   13  C   LIG     1       3.634  -5.979   0.605  1.00  0.00     0.202 C 
BRANCH  13  14
HETATM   14  O   LIG     1       4.615  -6.577  -0.235  1.00  0.00    -0.396 OA
ATOM     15  HO  LIG     1       5.086  -7.255   0.234  1.00  0.00     0.209 HD
ENDBRANCH  13  14
ENDBRANCH   2  13
TORSDOF 6
