REMARK  2 active torsions:
REMARK  status: ('A' for Active; 'I' for Inactive)
REMARK    1  A    between atoms: O_4  and  C_6 
REMARK    2  A    between atoms: O_4  and  C_7 
ROOT
HETATM    1  N   LIG     1       9.264   5.730  -4.415  1.00  0.00    -0.191 NA
HETATM    2  C   LIG     1       9.123   4.833  -3.696  1.00  0.00     0.099 C 
HETATM    3  C   LIG     1       8.948   3.723  -2.810  1.00  0.00     0.044 A 
HETATM    4  C   LIG     1       8.641   1.552  -1.038  1.00  0.00     0.069 A 
HETATM    5  C   LIG     1      10.045   2.909  -2.479  1.00  0.00     0.025 A 
HETATM    6  C   LIG     1       7.704   3.440  -2.250  1.00  0.00     0.025 A 
HETATM    7  C   LIG     1       9.887   1.826  -1.606  1.00  0.00     0.038 A 
HETATM    8  C   LIG     1       7.553   2.367  -1.363  1.00  0.00     0.038 A 
ENDROOT
BRANCH   4   9
HETATM    9  O   LIG     1       8.381   0.563  -0.128  1.00  0.00    -0.346 OA
BRANCH   9  10
HETATM   10  C   LIG     1       9.243  -0.586  -0.123  1.00  0.00     0.133 C 
HETATM   11  C   LIG     1      10.411  -0.396   0.851  1.00  0.00     0.058 C 
HETATM   12  C   LIG     1       9.941  -0.439   2.296  1.00  0.00     0.170 C 
HETATM   13  O   LIG     1       9.279  -1.674   2.555  1.00  0.00    -0.391 OA
HETATM   14  C   LIG     1       8.085  -1.797   1.784  1.00  0.00     0.170 C 
HETATM   15  C   LIG     1       8.400  -1.800   0.293  1.00  0.00     0.058 C 
ENDBRANCH   9  10
ENDBRANCH   4   9
TORSDOF 2
