REMARK  1 active torsions:
REMARK  status: ('A' for Active; 'I' for Inactive)
REMARK    1  A    between atoms: N_1  and  C_6 
ROOT
HETATM    1  N   LIG     1       2.678   5.711  -4.679  1.00  0.00    -0.190 NA
HETATM    2  N   LIG     1       1.160   4.402  -1.890  1.00  0.00    -0.355 N 
ATOM      3  HN  LIG     1       0.793   5.353  -1.871  1.00  0.00     0.166 HD
HETATM    4  C   LIG     1       2.364   4.958  -3.850  1.00  0.00     0.117 C 
HETATM    5  C   LIG     1       1.248   2.150  -0.895  1.00  0.00     0.045 A 
HETATM    6  C   LIG     1       0.822   3.486  -0.945  1.00  0.00     0.118 A 
HETATM    7  C   LIG     1       2.007   3.986  -2.854  1.00  0.00     0.113 A 
HETATM    8  C   LIG     1       2.140   1.788  -1.911  1.00  0.00     0.034 A 
HETATM    9  C   LIG     1       2.521   2.701  -2.902  1.00  0.00     0.043 A 
ENDROOT
BRANCH   5  10
HETATM   10  N   LIG     1       0.846   1.290   0.124  1.00  0.00    -0.376 N 
HETATM   11  C   LIG     1       1.466  -0.042   0.298  1.00  0.00     0.149 C 
HETATM   12  C   LIG     1       0.705  -1.108  -0.509  1.00  0.00     0.187 C 
HETATM   13  O   LIG     1      -0.688  -1.138  -0.155  1.00  0.00    -0.388 OA
HETATM   14  C   LIG     1      -1.296   0.147  -0.377  1.00  0.00     0.187 C 
HETATM   15  C   LIG     1      -0.603   1.247   0.448  1.00  0.00     0.149 C 
ENDBRANCH   5  10
TORSDOF 1
