REMARK  4 active torsions:
REMARK  status: ('A' for Active; 'I' for Inactive)
REMARK    1  A    between atoms: C_1  and  O_2 
REMARK    2  A    between atoms: O_2  and  C_5 
REMARK    3  A    between atoms: C_3  and  C_12 
REMARK    4  A    between atoms: N_6  and  C_12 
ROOT
HETATM    1  C   LIG     1      -0.807   0.146  -0.149  1.00  0.00     0.077 A 
HETATM    2  C   LIG     1      -0.133  -1.093  -0.182  1.00  0.00     0.000 A 
HETATM    3  C   LIG     1      -0.091   1.306   0.170  1.00  0.00     0.037 A 
HETATM    4  C   LIG     1       1.247  -1.117   0.106  1.00  0.00     0.011 A 
HETATM    5  C   LIG     1       1.949   0.046   0.402  1.00  0.00     0.001 A 
HETATM    6  C   LIG     1       1.276   1.261   0.444  1.00  0.00     0.003 A 
ENDROOT
BRANCH   1   7
HETATM    7  O   LIG     1      -2.161   0.128  -0.396  1.00  0.00    -0.345 OA
BRANCH   7   8
HETATM    8  C   LIG     1      -2.755   1.335  -0.910  1.00  0.00     0.133 C 
HETATM    9  C   LIG     1      -3.899   0.945  -1.856  1.00  0.00     0.058 C 
HETATM   10  C   LIG     1      -5.109   0.418  -1.095  1.00  0.00     0.170 C 
HETATM   11  O   LIG     1      -5.533   1.360  -0.111  1.00  0.00    -0.391 OA
HETATM   12  C   LIG     1      -4.524   1.579   0.870  1.00  0.00     0.170 C 
HETATM   13  C   LIG     1      -3.296   2.204   0.231  1.00  0.00     0.058 C 
ENDBRANCH   7   8
ENDBRANCH   1   7
BRANCH   2  14
HETATM   14  C   LIG     1      -0.869  -2.385  -0.457  1.00  0.00     0.271 C 
BRANCH  14  15
HETATM   15  N   LIG     1      -0.030  -3.385  -1.127  1.00  0.00    -0.075 N 
ATOM     16  HN3 LIG     1       0.377  -3.007  -1.983  1.00  0.00     0.274 HD
ATOM     17  HN2 LIG     1       0.826  -3.557  -0.599  1.00  0.00     0.274 HD
ATOM     18  HN1 LIG     1      -0.526  -4.257  -1.312  1.00  0.00     0.274 HD
ENDBRANCH  14  15
ENDBRANCH   2  14
TORSDOF 4
