REMARK  4 active torsions:
REMARK  status: ('A' for Active; 'I' for Inactive)
REMARK    1  A    between atoms: O_1  and  C_2 
REMARK    2  A    between atoms: O_1  and  C_3 
REMARK    3  A    between atoms: C_4  and  C_11 
REMARK    4  A    between atoms: O_9  and  C_11 
ROOT
HETATM    1  C   LIG     1      -1.528   3.280   0.124  1.00  0.00     0.076 A 
HETATM    2  C   LIG     1      -3.326   5.459  -0.114  1.00  0.00    -0.035 A 
HETATM    3  C   LIG     1      -2.480   3.548   1.106  1.00  0.00     0.038 A 
HETATM    4  C   LIG     1      -1.504   4.110  -1.006  1.00  0.00     0.038 A 
HETATM    5  C   LIG     1      -2.392   5.193  -1.134  1.00  0.00     0.012 A 
HETATM    6  C   LIG     1      -3.321   4.648   1.010  1.00  0.00     0.012 A 
ENDROOT
BRANCH   1   7
HETATM    7  O   LIG     1      -0.633   2.226   0.154  1.00  0.00    -0.311 OA
BRANCH   7   8
HETATM    8  C   LIG     1      -0.477   1.394   1.249  1.00  0.00     0.076 A 
HETATM    9  C   LIG     1      -0.121   0.070   0.981  1.00  0.00     0.037 A 
HETATM   10  C   LIG     1       0.104  -0.836   2.027  1.00  0.00     0.003 A 
HETATM   11  C   LIG     1      -0.032  -0.433   3.353  1.00  0.00     0.000 A 
HETATM   12  C   LIG     1      -0.380   0.883   3.633  1.00  0.00     0.003 A 
HETATM   13  C   LIG     1      -0.561   1.797   2.592  1.00  0.00     0.037 A 
ENDBRANCH   7   8
ENDBRANCH   1   7
BRANCH   2  14
HETATM   14  C   LIG     1      -4.298   6.612  -0.180  1.00  0.00     0.202 C 
BRANCH  14  15
HETATM   15  O   LIG     1      -5.552   6.264   0.412  1.00  0.00    -0.396 OA
ATOM     16  HO  LIG     1      -6.164   6.990   0.370  1.00  0.00     0.209 HD
ENDBRANCH  14  15
ENDBRANCH   2  14
TORSDOF 4
