REMARK  4 active torsions:
REMARK  status: ('A' for Active; 'I' for Inactive)
REMARK    1  A    between atoms: O_1  and  C_2 
REMARK    2  A    between atoms: O_1  and  C_6 
REMARK    3  A    between atoms: N_3  and  C_12 
REMARK    4  A    between atoms: C_7  and  C_12 
ROOT
HETATM    1  C   LIG     1      -0.778   2.637  -0.167  1.00  0.00     0.076 A 
HETATM    2  C   LIG     1      -3.208   4.090  -0.079  1.00  0.00    -0.033 A 
HETATM    3  C   LIG     1      -1.233   3.182   1.036  1.00  0.00     0.038 A 
HETATM    4  C   LIG     1      -1.528   2.844  -1.328  1.00  0.00     0.038 A 
HETATM    5  C   LIG     1      -2.744   3.546  -1.285  1.00  0.00     0.011 A 
HETATM    6  C   LIG     1      -2.439   3.899   1.076  1.00  0.00     0.011 A 
ENDROOT
BRANCH   1   7
HETATM    7  O   LIG     1       0.423   1.973  -0.323  1.00  0.00    -0.311 OA
BRANCH   7   8
HETATM    8  C   LIG     1       0.934   1.177   0.682  1.00  0.00     0.076 A 
HETATM    9  C   LIG     1       2.324   1.079   0.771  1.00  0.00     0.037 A 
HETATM   10  C   LIG     1       2.923   0.288   1.759  1.00  0.00     0.003 A 
HETATM   11  C   LIG     1       2.123  -0.438   2.646  1.00  0.00     0.000 A 
HETATM   12  C   LIG     1       0.740  -0.389   2.522  1.00  0.00     0.003 A 
HETATM   13  C   LIG     1       0.141   0.404   1.539  1.00  0.00     0.037 A 
ENDBRANCH   7   8
ENDBRANCH   1   7
BRANCH   2  14
HETATM   14  C   LIG     1      -4.523   4.841   0.000  1.00  0.00     0.270 C 
BRANCH  14  15
HETATM   15  N   LIG     1      -5.610   3.942   0.388  1.00  0.00    -0.075 N 
HETATM   16  C   LIG     1      -6.881   4.643   0.492  1.00  0.00     0.267 C 
ATOM     17  HN2 LIG     1      -5.676   3.145  -0.245  1.00  0.00     0.277 HD
ATOM     18  HN1 LIG     1      -5.389   3.443   1.250  1.00  0.00     0.277 HD
ENDBRANCH  14  15
ENDBRANCH   2  14
TORSDOF 4
