REMARK  3 active torsions:
REMARK  status: ('A' for Active; 'I' for Inactive)
REMARK    1  A    between atoms: C_1  and  N_3 
REMARK    2  A    between atoms: C_5  and  C_10 
REMARK    3  A    between atoms: C_10  and  O_11 
ROOT
HETATM    1  C   LIG     1      -1.162  -1.214   0.293  1.00  0.00     0.072 A 
HETATM    2  S   LIG     1      -0.654  -0.588   1.825  1.00  0.00    -0.075 SA
HETATM    3  C   LIG     1      -1.601  -0.161  -0.497  1.00  0.00     0.038 A 
HETATM    4  C   LIG     1      -1.051   1.021   1.426  1.00  0.00     0.008 A 
HETATM    5  C   LIG     1      -1.546   1.110   0.146  1.00  0.00     0.019 A 
ENDROOT
BRANCH   1   6
HETATM    6  N   LIG     1      -1.075  -2.550  -0.048  1.00  0.00    -0.371 N 
HETATM    7  C   LIG     1      -1.129  -3.572   1.027  1.00  0.00     0.149 C 
HETATM    8  C   LIG     1      -0.665  -4.942   0.510  1.00  0.00     0.187 C 
HETATM    9  O   LIG     1      -1.416  -5.357  -0.639  1.00  0.00    -0.388 OA
HETATM   10  C   LIG     1      -1.236  -4.407  -1.696  1.00  0.00     0.187 C 
HETATM   11  C   LIG     1      -1.731  -3.010  -1.293  1.00  0.00     0.149 C 
ENDBRANCH   1   6
BRANCH   4  12
HETATM   12  C   LIG     1      -0.828   2.119   2.409  1.00  0.00     0.210 C 
BRANCH  12  13
HETATM   13  O   LIG     1       0.390   2.763   2.058  1.00  0.00    -0.396 OA
ATOM     14  HO  LIG     1       0.532   3.463   2.685  1.00  0.00     0.209 HD
ENDBRANCH  12  13
ENDBRANCH   4  12
TORSDOF 3
