REMARK  3 active torsions:
REMARK  status: ('A' for Active; 'I' for Inactive)
REMARK    1  A    between atoms: C_5  and  C_7 
REMARK    2  A    between atoms: C_7  and  C_11 
REMARK    3  A    between atoms: O_8  and  C_11 
ROOT
HETATM    1  N   LIG     1       0.891  -0.568  -0.068  1.00  0.00    -0.357 N 
ATOM      2  HN  LIG     1       1.696  -1.194  -0.100  1.00  0.00     0.166 HD
HETATM    3  C   LIG     1       0.958   0.746  -0.042  1.00  0.00     0.046 A 
HETATM    4  S   LIG     1      -0.553   1.563  -0.031  1.00  0.00    -0.087 SA
HETATM    5  C   LIG     1      -0.436  -0.978  -0.046  1.00  0.00     0.018 A 
HETATM    6  C   LIG     1      -1.357   0.050  -0.035  1.00  0.00     0.076 A 
HETATM    7  C   LIG     1       2.227   1.525  -0.018  1.00  0.00     0.076 C 
ENDROOT
BRANCH   5   8
HETATM    8  C   LIG     1      -0.722  -2.448  -0.038  1.00  0.00     0.083 C 
BRANCH   8   9
HETATM    9  C   LIG     1      -0.153  -3.152  -1.269  1.00  0.00     0.170 C 
BRANCH   9  10
HETATM   10  O   LIG     1       1.273  -3.163  -1.250  1.00  0.00    -0.400 OA
ATOM     11  HO  LIG     1       1.627  -3.601  -2.015  1.00  0.00     0.209 HD
ENDBRANCH   9  10
ENDBRANCH   8   9
ENDBRANCH   5   8
TORSDOF 3
