REMARK  3 active torsions:
REMARK  status: ('A' for Active; 'I' for Inactive)
REMARK    1  A    between atoms: C_1  and  C_5 
REMARK    2  A    between atoms: C_9  and  C_15 
REMARK    3  A    between atoms: O_13  and  C_15 
ROOT
HETATM    1  N   LIG     1      -1.660  -2.674  -0.452  1.00  0.00    -0.364 N 
ATOM      2  HN  LIG     1      -2.215  -1.847  -0.672  1.00  0.00     0.165 HD
HETATM    3  C   LIG     1      -0.391  -2.561   0.017  1.00  0.00     0.049 A 
HETATM    4  C   LIG     1      -1.468  -5.086  -0.347  1.00  0.00    -0.019 A 
HETATM    5  C   LIG     1      -2.166  -3.917  -0.619  1.00  0.00     0.097 A 
HETATM    6  C   LIG     1       0.381  -3.681   0.317  1.00  0.00     0.031 A 
HETATM    7  C   LIG     1      -0.166  -4.951   0.133  1.00  0.00     0.013 A 
ENDROOT
BRANCH   3   8
HETATM    8  C   LIG     1       0.067  -1.168   0.176  1.00  0.00     0.031 A 
HETATM    9  S   LIG     1       1.641  -0.782   0.756  1.00  0.00    -0.100 SA
HETATM   10  C   LIG     1       1.363   0.899   0.648  1.00  0.00     0.050 A 
HETATM   11  C   LIG     1       0.102   1.182   0.179  1.00  0.00     0.008 A 
HETATM   12  C   LIG     1      -0.639  -0.004  -0.092  1.00  0.00     0.021 A 
ENDBRANCH   3   8
BRANCH   4  13
HETATM   13  C   LIG     1      -2.091  -6.434  -0.544  1.00  0.00     0.204 C 
BRANCH  13  14
HETATM   14  O   LIG     1      -1.343  -7.207  -1.474  1.00  0.00    -0.396 OA
ATOM     15  HO  LIG     1      -1.738  -8.062  -1.599  1.00  0.00     0.209 HD
ENDBRANCH  13  14
ENDBRANCH   4  13
TORSDOF 3
