REMARK  3 active torsions:
REMARK  status: ('A' for Active; 'I' for Inactive)
REMARK    1  A    between atoms: C_5  and  C_7 
REMARK    2  A    between atoms: C_7  and  C_13 
REMARK    3  A    between atoms: N_8  and  C_13 
ROOT
HETATM    1  N   LIG     1       0.901  -0.579  -0.017  1.00  0.00    -0.357 N 
ATOM      2  HN  LIG     1       1.705  -1.206  -0.022  1.00  0.00     0.166 HD
HETATM    3  C   LIG     1       0.970   0.736  -0.011  1.00  0.00     0.046 A 
HETATM    4  S   LIG     1      -0.540   1.555  -0.018  1.00  0.00    -0.087 SA
HETATM    5  C   LIG     1      -0.424  -0.986  -0.016  1.00  0.00     0.018 A 
HETATM    6  C   LIG     1      -1.345   0.044  -0.020  1.00  0.00     0.076 A 
HETATM    7  C   LIG     1       2.239   1.512   0.001  1.00  0.00     0.076 C 
ENDROOT
BRANCH   5   8
HETATM    8  C   LIG     1      -0.725  -2.450  -0.016  1.00  0.00     0.084 C 
BRANCH   8   9
HETATM    9  C   LIG     1      -0.807  -3.015  -1.437  1.00  0.00     0.235 C 
BRANCH   9  10
HETATM   10  N   LIG     1      -1.110  -4.448  -1.431  1.00  0.00    -0.079 N 
ATOM     11  HN3 LIG     1      -0.442  -4.968  -0.861  1.00  0.00     0.274 HD
ATOM     12  HN2 LIG     1      -1.959  -4.647  -0.901  1.00  0.00     0.274 HD
ATOM     13  HN1 LIG     1      -1.165  -4.824  -2.377  1.00  0.00     0.274 HD
ENDBRANCH   9  10
ENDBRANCH   8   9
ENDBRANCH   5   8
TORSDOF 3
