REMARK  4 active torsions:
REMARK  status: ('A' for Active; 'I' for Inactive)
REMARK    1  A    between atoms: N_1  and  C_2 
REMARK    2  A    between atoms: C_2  and  C_3 
REMARK    3  A    between atoms: C_4  and  C_13 
REMARK    4  A    between atoms: O_11  and  C_13 
ROOT
HETATM    1  C   LIG     1      -0.329  -0.873   2.936  1.00  0.00    -0.030 A 
HETATM    2  C   LIG     1       0.238  -0.925   5.704  1.00  0.00    -0.035 A 
HETATM    3  C   LIG     1       0.653  -1.733   3.450  1.00  0.00     0.009 A 
HETATM    4  C   LIG     1      -1.034  -0.052   3.824  1.00  0.00     0.009 A 
HETATM    5  C   LIG     1      -0.756  -0.077   5.193  1.00  0.00     0.010 A 
HETATM    6  C   LIG     1       0.926  -1.764   4.821  1.00  0.00     0.010 A 
ENDROOT
BRANCH   1   7
HETATM    7  C   LIG     1      -0.624  -0.839   1.451  1.00  0.00     0.311 C 
BRANCH   7   8
HETATM    8  N   LIG     1       0.524  -0.432   0.632  1.00  0.00     0.092 N 
HETATM    9  C   LIG     1       1.009   0.920   0.939  1.00  0.00     0.273 C 
HETATM   10  C   LIG     1       1.485   1.505  -0.387  1.00  0.00     0.032 C 
HETATM   11  C   LIG     1       1.324   0.379  -1.392  1.00  0.00     0.032 C 
HETATM   12  C   LIG     1       0.206  -0.453  -0.797  1.00  0.00     0.273 C 
ENDBRANCH   7   8
ENDBRANCH   1   7
BRANCH   2  13
HETATM   13  C   LIG     1       0.541  -0.930   7.179  1.00  0.00     0.202 C 
BRANCH  13  14
HETATM   14  O   LIG     1      -0.245  -1.886   7.877  1.00  0.00    -0.396 OA
ATOM     15  HO  LIG     1      -0.054  -1.889   8.808  1.00  0.00     0.209 HD
ENDBRANCH  13  14
ENDBRANCH   2  13
TORSDOF 4
