REMARK  2 active torsions:
REMARK  status: ('A' for Active; 'I' for Inactive)
REMARK    1  A    between atoms: N_1  and  C_2 
REMARK    2  A    between atoms: C_2  and  C_3 
ROOT
HETATM    1  C   LIG     1      -0.585  -1.077   2.658  1.00  0.00    -0.028 A 
HETATM    2  C   LIG     1      -1.019   0.069   3.347  1.00  0.00     0.035 A 
HETATM    3  C   LIG     1      -0.645   0.299   4.675  1.00  0.00     0.046 A 
HETATM    4  N   LIG     1      -1.190   1.379   5.384  1.00  0.00    -0.102 NA
HETATM    5  C   LIG     1       0.521  -1.829   4.679  1.00  0.00     0.002 A 
HETATM    6  C   LIG     1       0.189  -2.023   3.340  1.00  0.00     0.009 A 
HETATM    7  C   LIG     1       0.088  -0.680   5.346  1.00  0.00     0.026 A 
ENDROOT
BRANCH   1   8
HETATM    8  C   LIG     1      -0.964  -1.295   1.208  1.00  0.00     0.311 C 
BRANCH   8   9
HETATM    9  N   LIG     1      -0.462  -0.255   0.301  1.00  0.00     0.092 N 
HETATM   10  C   LIG     1      -0.855  -0.516  -1.089  1.00  0.00     0.273 C 
HETATM   11  C   LIG     1       0.213   0.154  -1.948  1.00  0.00     0.032 C 
HETATM   12  C   LIG     1       1.247   0.674  -0.963  1.00  0.00     0.032 C 
HETATM   13  C   LIG     1       0.999  -0.144   0.290  1.00  0.00     0.273 C 
ENDBRANCH   8   9
ENDBRANCH   1   8
TORSDOF 2
