REMARK  2 active torsions:
REMARK  status: ('A' for Active; 'I' for Inactive)
REMARK    1  A    between atoms: C_1  and  C_6 
REMARK    2  A    between atoms: C_6  and  N_7 
ROOT
HETATM    1  C   LIG     1       1.030   0.686  -0.024  1.00  0.00    -0.002 A 
HETATM    2  C   LIG     1       0.972  -0.696   0.039  1.00  0.00     0.056 A 
HETATM    3  O   LIG     1      -0.322  -1.122   0.020  1.00  0.00    -0.327 OA
HETATM    4  C   LIG     1      -1.104  -0.017  -0.059  1.00  0.00     0.142 A 
HETATM    5  C   LIG     1      -0.329   1.117  -0.087  1.00  0.00     0.036 A 
HETATM    6  C   LIG     1       2.003  -1.753   0.121  1.00  0.00     0.077 C 
ENDROOT
BRANCH   1   7
HETATM    7  C   LIG     1       2.242   1.547  -0.016  1.00  0.00     0.270 C 
BRANCH   7   8
HETATM    8  N   LIG     1       2.385   2.151  -1.333  1.00  0.00    -0.075 N 
ATOM      9  HN3 LIG     1       2.400   1.459  -2.082  1.00  0.00     0.274 HD
ATOM     10  HN2 LIG     1       1.548   2.655  -1.626  1.00  0.00     0.274 HD
ATOM     11  HN1 LIG     1       3.217   2.742  -1.328  1.00  0.00     0.274 HD
ENDBRANCH   7   8
ENDBRANCH   1   7
TORSDOF 2
