REMARK  4 active torsions:
REMARK  status: ('A' for Active; 'I' for Inactive)
REMARK    1  A    between atoms: N_1  and  C_2 
REMARK    2  A    between atoms: C_2  and  C_3 
REMARK    3  A    between atoms: C_5  and  C_14 
REMARK    4  A    between atoms: N_6  and  C_14 
ROOT
HETATM    1  C   LIG     1      -1.069  -1.731   2.365  1.00  0.00    -0.030 A 
HETATM    2  C   LIG     1      -1.003  -0.495   3.032  1.00  0.00     0.017 A 
HETATM    3  C   LIG     1      -0.591  -0.411   4.370  1.00  0.00    -0.033 A 
HETATM    4  C   LIG     1      -0.295  -2.824   4.384  1.00  0.00     0.001 A 
HETATM    5  C   LIG     1      -0.703  -2.894   3.054  1.00  0.00     0.009 A 
HETATM    6  C   LIG     1      -0.239  -1.592   5.039  1.00  0.00     0.009 A 
ENDROOT
BRANCH   1   7
HETATM    7  C   LIG     1      -1.534  -1.801   0.922  1.00  0.00     0.311 C 
BRANCH   7   8
HETATM    8  N   LIG     1      -2.728  -2.636   0.726  1.00  0.00     0.092 N 
HETATM    9  C   LIG     1      -3.134  -2.699  -0.686  1.00  0.00     0.273 C 
HETATM   10  C   LIG     1      -4.626  -2.396  -0.721  1.00  0.00     0.032 C 
HETATM   11  C   LIG     1      -5.078  -2.639   0.703  1.00  0.00     0.032 C 
HETATM   12  C   LIG     1      -3.881  -2.165   1.503  1.00  0.00     0.273 C 
ENDBRANCH   7   8
ENDBRANCH   1   7
BRANCH   3  13
HETATM   13  C   LIG     1      -0.547   0.914   5.085  1.00  0.00     0.268 C 
BRANCH  13  14
HETATM   14  N   LIG     1       0.407   1.832   4.471  1.00  0.00    -0.075 N 
ATOM     15  HN3 LIG     1       1.335   1.414   4.407  1.00  0.00     0.274 HD
ATOM     16  HN2 LIG     1       0.217   1.954   3.476  1.00  0.00     0.274 HD
ATOM     17  HN1 LIG     1       0.437   2.729   4.955  1.00  0.00     0.274 HD
ENDBRANCH  13  14
ENDBRANCH   3  13
TORSDOF 4
