REMARK  3 active torsions:
REMARK  status: ('A' for Active; 'I' for Inactive)
REMARK    1  A    between atoms: C_1  and  C_3 
REMARK    2  A    between atoms: N_2  and  C_5 
REMARK    3  A    between atoms: C_5  and  C_9 
ROOT
HETATM    1  C   LIG     1       0.688   0.774   0.677  1.00  0.00     0.040 A 
HETATM    2  C   LIG     1       0.613   0.561   2.057  1.00  0.00     0.019 A 
HETATM    3  C   LIG     1      -0.188   1.680   0.068  1.00  0.00     0.019 A 
HETATM    4  C   LIG     1      -1.232   2.143   2.218  1.00  0.00    -0.030 A 
HETATM    5  C   LIG     1      -0.340   1.243   2.822  1.00  0.00     0.010 A 
HETATM    6  C   LIG     1      -1.151   2.346   0.833  1.00  0.00     0.010 A 
ENDROOT
BRANCH   4   7
HETATM    7  C   LIG     1      -2.233   2.921   3.050  1.00  0.00     0.311 C 
BRANCH   7   8
HETATM    8  N   LIG     1      -3.632   2.660   2.693  1.00  0.00     0.092 N 
HETATM    9  C   LIG     1      -4.559   3.513   3.454  1.00  0.00     0.273 C 
HETATM   10  C   LIG     1      -5.787   2.654   3.743  1.00  0.00     0.032 C 
HETATM   11  C   LIG     1      -5.551   1.374   2.965  1.00  0.00     0.032 C 
HETATM   12  C   LIG     1      -4.039   1.273   2.934  1.00  0.00     0.273 C 
ENDBRANCH   7   8
ENDBRANCH   4   7
BRANCH   1  13
HETATM   13  C   LIG     1       1.735   0.054  -0.095  1.00  0.00     0.209 C 
HETATM   14  O   LIG     1       2.805  -0.284   0.387  1.00  0.00    -0.644 OA
HETATM   15  O   LIG     1       1.376  -0.227  -1.364  1.00  0.00    -0.644 OA
ENDBRANCH   1  13
TORSDOF 3
