REMARK  4 active torsions:
REMARK  status: ('A' for Active; 'I' for Inactive)
REMARK    1  A    between atoms: N_1  and  C_3 
REMARK    2  A    between atoms: C_3  and  C_7 
REMARK    3  A    between atoms: C_8  and  C_20 
REMARK    4  A    between atoms: N_11  and  C_20 
ROOT
HETATM    1  C   LIG     1      -2.541   2.311  -0.847  1.00  0.00    -0.030 A 
HETATM    2  C   LIG     1      -3.173   5.069  -0.931  1.00  0.00    -0.033 A 
HETATM    3  C   LIG     1      -2.447   3.032  -2.045  1.00  0.00     0.009 A 
HETATM    4  C   LIG     1      -2.967   2.982   0.308  1.00  0.00     0.009 A 
HETATM    5  C   LIG     1      -3.279   4.347   0.264  1.00  0.00     0.009 A 
HETATM    6  C   LIG     1      -2.760   4.395  -2.088  1.00  0.00     0.009 A 
ENDROOT
BRANCH   1   7
HETATM    7  C   LIG     1      -2.212   0.831  -0.810  1.00  0.00     0.311 C 
BRANCH   7   8
HETATM    8  N   LIG     1      -1.086   0.462   0.081  1.00  0.00     0.094 N 
HETATM    9  C   LIG     1       0.181   1.049  -0.403  1.00  0.00     0.303 C 
HETATM   10  C   LIG     1       1.320   0.958   0.637  1.00  0.00     0.302 C 
HETATM   11  N   LIG     1       2.201  -0.212   0.497  1.00  0.00     0.086 N 
HETATM   12  C   LIG     1       1.491  -1.475   0.276  1.00  0.00     0.273 C 
HETATM   13  C   LIG     1       3.108  -0.299   1.642  1.00  0.00     0.309 C 
HETATM   14  C   LIG     1       0.136  -1.626   0.971  1.00  0.00     0.060 C 
HETATM   15  C   LIG     1      -1.027  -1.009   0.181  1.00  0.00     0.274 C 
ENDBRANCH   7   8
ENDBRANCH   1   7
BRANCH   2  16
HETATM   16  C   LIG     1      -3.516   6.538  -0.978  1.00  0.00     0.268 C 
BRANCH  16  17
HETATM   17  N   LIG     1      -2.371   7.349  -1.379  1.00  0.00    -0.075 N 
ATOM     18  HN3 LIG     1      -1.564   7.175  -0.779  1.00  0.00     0.274 HD
ATOM     19  HN2 LIG     1      -1.982   7.030  -2.266  1.00  0.00     0.274 HD
ATOM     20  HN1 LIG     1      -2.603   8.342  -1.411  1.00  0.00     0.274 HD
ENDBRANCH  16  17
ENDBRANCH   2  16
TORSDOF 4
