REMARK  4 active torsions:
REMARK  status: ('A' for Active; 'I' for Inactive)
REMARK    1  A    between atoms: N_1  and  C_7 
REMARK    2  A    between atoms: C_7  and  C_8 
REMARK    3  A    between atoms: C_10  and  C_17 
REMARK    4  A    between atoms: N_11  and  C_17 
ROOT
HETATM    1  C   LIG     1       3.111  -1.259  -1.985  1.00  0.00    -0.038 A 
HETATM    2  C   LIG     1       3.176   0.096  -2.347  1.00  0.00     0.017 A 
HETATM    3  C   LIG     1       3.812   0.503  -3.533  1.00  0.00    -0.033 A 
HETATM    4  C   LIG     1       4.356  -1.818  -3.992  1.00  0.00     0.001 A 
HETATM    5  C   LIG     1       3.724  -2.210  -2.813  1.00  0.00     0.009 A 
HETATM    6  C   LIG     1       4.397  -0.471  -4.353  1.00  0.00     0.009 A 
ENDROOT
BRANCH   1   7
HETATM    7  C   LIG     1       2.407  -1.679  -0.717  1.00  0.00     0.186 C 
BRANCH   7   8
HETATM    8  N   LIG     1       1.312  -2.608  -0.971  1.00  0.00    -0.299 N 
HETATM    9  N   LIG     1       1.357  -3.862  -0.466  1.00  0.00    -0.310 N 
HETATM   10  C   LIG     1       0.199  -4.402  -0.855  1.00  0.00     0.108 A 
ATOM     11  HN  LIG     1       2.100  -4.294   0.083  1.00  0.00     0.186 HD
HETATM   12  C   LIG     1      -0.594  -3.505  -1.592  1.00  0.00     0.037 A 
HETATM   13  C   LIG     1       0.148  -2.348  -1.644  1.00  0.00     0.112 A 
ENDBRANCH   7   8
ENDBRANCH   1   7
BRANCH   3  14
HETATM   14  C   LIG     1       3.868   1.962  -3.909  1.00  0.00     0.268 C 
BRANCH  14  15
HETATM   15  N   LIG     1       2.533   2.522  -4.092  1.00  0.00    -0.075 N 
ATOM     16  HN3 LIG     1       1.993   1.983  -4.769  1.00  0.00     0.274 HD
ATOM     17  HN2 LIG     1       1.950   2.372  -3.269  1.00  0.00     0.274 HD
ATOM     18  HN1 LIG     1       2.571   3.509  -4.346  1.00  0.00     0.274 HD
ENDBRANCH  14  15
ENDBRANCH   3  14
TORSDOF 4
