REMARK  4 active torsions:
REMARK  status: ('A' for Active; 'I' for Inactive)
REMARK    1  A    between atoms: N_1  and  C_7 
REMARK    2  A    between atoms: C_7  and  C_8 
REMARK    3  A    between atoms: C_9  and  C_16 
REMARK    4  A    between atoms: O_14  and  C_16 
ROOT
HETATM    1  C   LIG     1       3.257  -1.081  -1.855  1.00  0.00    -0.038 A 
HETATM    2  C   LIG     1       4.527  -0.588  -4.328  1.00  0.00    -0.035 A 
HETATM    3  C   LIG     1       3.506   0.231  -2.283  1.00  0.00     0.009 A 
HETATM    4  C   LIG     1       3.626  -2.144  -2.691  1.00  0.00     0.009 A 
HETATM    5  C   LIG     1       4.255  -1.899  -3.915  1.00  0.00     0.010 A 
HETATM    6  C   LIG     1       4.139   0.475  -3.504  1.00  0.00     0.010 A 
ENDROOT
BRANCH   1   7
HETATM    7  C   LIG     1       2.583  -1.338  -0.528  1.00  0.00     0.186 C 
BRANCH   7   8
HETATM    8  N   LIG     1       3.371  -0.852   0.600  1.00  0.00    -0.299 N 
HETATM    9  N   LIG     1       2.907   0.161   1.364  1.00  0.00    -0.310 N 
HETATM   10  C   LIG     1       3.832   0.289   2.318  1.00  0.00     0.108 A 
ATOM     11  HN  LIG     1       2.051   0.701   1.241  1.00  0.00     0.186 HD
HETATM   12  C   LIG     1       4.883  -0.635   2.176  1.00  0.00     0.037 A 
HETATM   13  C   LIG     1       4.554  -1.365   1.057  1.00  0.00     0.112 A 
ENDBRANCH   7   8
ENDBRANCH   1   7
BRANCH   2  14
HETATM   14  C   LIG     1       5.229  -0.331  -5.636  1.00  0.00     0.202 C 
BRANCH  14  15
HETATM   15  O   LIG     1       6.513  -0.943  -5.644  1.00  0.00    -0.396 OA
ATOM     16  HO  LIG     1       6.956  -0.781  -6.469  1.00  0.00     0.209 HD
ENDBRANCH  14  15
ENDBRANCH   2  14
TORSDOF 4
