REMARK  4 active torsions:
REMARK  status: ('A' for Active; 'I' for Inactive)
REMARK    1  A    between atoms: N_1  and  C_7 
REMARK    2  A    between atoms: C_7  and  C_8 
REMARK    3  A    between atoms: N_9  and  C_17 
REMARK    4  A    between atoms: C_12  and  C_17 
ROOT
HETATM    1  C   LIG     1       2.892  -1.005  -1.213  1.00  0.00    -0.038 A 
HETATM    2  C   LIG     1       4.266  -0.607  -3.659  1.00  0.00    -0.033 A 
HETATM    3  C   LIG     1       3.214   0.287  -1.651  1.00  0.00     0.009 A 
HETATM    4  C   LIG     1       3.275  -2.096  -2.005  1.00  0.00     0.009 A 
HETATM    5  C   LIG     1       3.950  -1.898  -3.214  1.00  0.00     0.009 A 
HETATM    6  C   LIG     1       3.890   0.483  -2.861  1.00  0.00     0.009 A 
ENDROOT
BRANCH   1   7
HETATM    7  C   LIG     1       2.175  -1.216   0.101  1.00  0.00     0.186 C 
BRANCH   7   8
HETATM    8  N   LIG     1       0.892  -1.891  -0.063  1.00  0.00    -0.299 N 
HETATM    9  N   LIG     1       0.682  -3.093   0.519  1.00  0.00    -0.310 N 
HETATM   10  C   LIG     1      -0.583  -3.383   0.201  1.00  0.00     0.108 A 
ATOM     11  HN  LIG     1       1.336  -3.648   1.071  1.00  0.00     0.186 HD
HETATM   12  C   LIG     1      -1.189  -2.370  -0.563  1.00  0.00     0.037 A 
HETATM   13  C   LIG     1      -0.218  -1.410  -0.703  1.00  0.00     0.112 A 
ENDBRANCH   7   8
ENDBRANCH   1   7
BRANCH   2  14
HETATM   14  C   LIG     1       4.946  -0.392  -4.995  1.00  0.00     0.270 C 
BRANCH  14  15
HETATM   15  N   LIG     1       6.246  -1.061  -5.071  1.00  0.00    -0.075 N 
HETATM   16  C   LIG     1       6.886  -0.820  -6.358  1.00  0.00     0.267 C 
ATOM     17  HN2 LIG     1       6.852  -0.794  -4.295  1.00  0.00     0.277 HD
ATOM     18  HN1 LIG     1       6.167  -2.058  -4.872  1.00  0.00     0.277 HD
ENDBRANCH  14  15
ENDBRANCH   2  14
TORSDOF 4
