REMARK  2 active torsions:
REMARK  status: ('A' for Active; 'I' for Inactive)
REMARK    1  A    between atoms: N_1  and  C_7 
REMARK    2  A    between atoms: C_7  and  C_8 
ROOT
HETATM    1  C   LIG     1       3.210  -1.017  -1.840  1.00  0.00    -0.038 A 
HETATM    2  C   LIG     1       4.413  -0.320  -4.300  1.00  0.00     0.046 A 
HETATM    3  N   LIG     1       5.144   0.006  -5.449  1.00  0.00    -0.102 NA
HETATM    4  C   LIG     1       4.143  -1.655  -3.993  1.00  0.00     0.027 A 
HETATM    5  C   LIG     1       4.150   0.653  -3.334  1.00  0.00     0.027 A 
HETATM    6  C   LIG     1       3.524  -2.001  -2.788  1.00  0.00     0.011 A 
HETATM    7  C   LIG     1       3.532   0.316  -2.125  1.00  0.00     0.011 A 
ENDROOT
BRANCH   1   8
HETATM    8  C   LIG     1       2.540  -1.384  -0.538  1.00  0.00     0.186 C 
BRANCH   8   9
HETATM    9  N   LIG     1       3.341  -2.310   0.254  1.00  0.00    -0.299 N 
HETATM   10  N   LIG     1       2.862  -3.539   0.544  1.00  0.00    -0.310 N 
HETATM   11  C   LIG     1       3.829  -4.089   1.283  1.00  0.00     0.108 A 
ATOM     12  HN  LIG     1       1.971  -3.950   0.264  1.00  0.00     0.186 HD
HETATM   13  C   LIG     1       4.915  -3.217   1.482  1.00  0.00     0.037 A 
HETATM   14  C   LIG     1       4.565  -2.067   0.815  1.00  0.00     0.112 A 
ENDBRANCH   8   9
ENDBRANCH   1   8
TORSDOF 2
