REMARK  2 active torsions:
REMARK  status: ('A' for Active; 'I' for Inactive)
REMARK    1  A    between atoms: N_1  and  C_7 
REMARK    2  A    between atoms: C_7  and  C_8 
ROOT
HETATM    1  C   LIG     1       2.958  -0.959  -1.657  1.00  0.00    -0.037 A 
HETATM    2  C   LIG     1       3.183   0.335  -2.160  1.00  0.00     0.035 A 
HETATM    3  C   LIG     1       3.792   0.534  -3.403  1.00  0.00     0.046 A 
HETATM    4  N   LIG     1       4.098   1.830  -3.837  1.00  0.00    -0.102 NA
HETATM    5  C   LIG     1       4.092  -1.866  -3.596  1.00  0.00     0.002 A 
HETATM    6  C   LIG     1       3.420  -2.059  -2.390  1.00  0.00     0.009 A 
HETATM    7  C   LIG     1       4.292  -0.574  -4.088  1.00  0.00     0.026 A 
ENDROOT
BRANCH   1   8
HETATM    8  C   LIG     1       2.266  -1.157  -0.330  1.00  0.00     0.186 C 
BRANCH   8   9
HETATM    9  N   LIG     1       0.922  -0.590  -0.316  1.00  0.00    -0.299 N 
HETATM   10  N   LIG     1       0.607   0.376   0.574  1.00  0.00    -0.310 N 
HETATM   11  C   LIG     1      -0.678   0.634   0.321  1.00  0.00     0.108 A 
ATOM     12  HN  LIG     1       1.210   0.807   1.275  1.00  0.00     0.186 HD
HETATM   13  C   LIG     1      -1.194  -0.166  -0.713  1.00  0.00     0.037 A 
HETATM   14  C   LIG     1      -0.139  -0.961  -1.097  1.00  0.00     0.112 A 
ENDBRANCH   8   9
ENDBRANCH   1   8
TORSDOF 2
