REMARK  4 active torsions:
REMARK  status: ('A' for Active; 'I' for Inactive)
REMARK    1  A    between atoms: C_1  and  C_5 
REMARK    2  A    between atoms: C_2  and  C_13 
REMARK    3  A    between atoms: C_3  and  N_4 
REMARK    4  A    between atoms: C_13  and  N_14 
ROOT
HETATM    1  C   LIG     1       0.981   3.802  -0.015  1.00  0.00    -0.011 A 
HETATM    2  C   LIG     1      -0.113   4.144  -0.854  1.00  0.00     0.018 A 
HETATM    3  C   LIG     1       0.517   1.399  -0.355  1.00  0.00     0.048 A 
HETATM    4  C   LIG     1       1.284   2.431   0.189  1.00  0.00     0.027 A 
HETATM    5  C   LIG     1      -0.881   3.086  -1.383  1.00  0.00     0.025 A 
HETATM    6  C   LIG     1      -0.582   1.743  -1.145  1.00  0.00     0.018 A 
ENDROOT
BRANCH   2   7
HETATM    7  N   LIG     1      -0.420   5.497  -1.155  1.00  0.00    -0.279 NA
HETATM    8  C   LIG     1      -1.015   5.720  -2.504  1.00  0.00     0.122 C 
HETATM    9  C   LIG     1      -1.262   7.214  -2.746  1.00  0.00     0.182 C 
HETATM   10  O   LIG     1      -2.137   7.753  -1.742  1.00  0.00    -0.389 OA
HETATM   11  C   LIG     1      -1.544   7.595  -0.442  1.00  0.00     0.182 C 
HETATM   12  C   LIG     1      -1.273   6.115  -0.104  1.00  0.00     0.122 C 
ENDBRANCH   2   7
BRANCH   1  13
HETATM   13  C   LIG     1       1.916   4.843   0.587  1.00  0.00     0.272 C 
BRANCH  13  14
HETATM   14  N   LIG     1       2.513   4.382   1.854  1.00  0.00    -0.075 N 
HETATM   15  C   LIG     1       3.413   5.365   2.432  1.00  0.00     0.267 C 
ATOM     16  HN2 LIG     1       1.792   4.106   2.521  1.00  0.00     0.277 HD
ATOM     17  HN1 LIG     1       2.979   3.482   1.735  1.00  0.00     0.277 HD
ENDBRANCH  13  14
ENDBRANCH   1  13
BRANCH   3  18
HETATM   18  C   LIG     1       0.844  -0.051  -0.112  1.00  0.00     0.417 C 
HETATM   19  F   LIG     1       1.933  -0.245   0.684  1.00  0.00    -0.166 F 
HETATM   20  F   LIG     1       1.100  -0.729  -1.265  1.00  0.00    -0.166 F 
HETATM   21  F   LIG     1      -0.179  -0.720   0.491  1.00  0.00    -0.166 F 
ENDBRANCH   3  18
TORSDOF 4
