REMARK  1 active torsions:
REMARK  status: ('A' for Active; 'I' for Inactive)
REMARK    1  A    between atoms: C_1  and  C_5 
ROOT
HETATM    1  C   UNK     1      -0.304  -1.157   0.047  1.00  0.00     0.134 A 
HETATM    2  N   UNK     1       1.022  -0.760   0.119  1.00  0.00    -0.333 N 
ATOM      3  HN  UNK     1       1.848  -1.348   0.227  1.00  0.00     0.168 HD
HETATM    4  C   UNK     1      -1.097  -0.040  -0.098  1.00  0.00     0.180 A 
HETATM    5  C   UNK     1       0.969   0.552   0.016  1.00  0.00     0.119 A 
HETATM    6  O   UNK     1      -0.294   1.060  -0.118  1.00  0.00    -0.308 OA
HETATM    7  C   UNK     1       2.073   1.530   0.029  1.00  0.00     0.098 C 
ENDROOT
BRANCH   1   8
HETATM    8  C   UNK     1      -0.780  -2.524   0.113  1.00  0.00     0.228 C 
HETATM    9  O   UNK     1      -1.954  -2.867   0.048  1.00  0.00    -0.643 OA
HETATM   10  O   UNK     1       0.189  -3.456   0.260  1.00  0.00    -0.643 OA
ENDBRANCH   1   8
TORSDOF 1
