REMARK  5 active torsions:
REMARK  status: ('A' for Active; 'I' for Inactive)
REMARK    1  A    between atoms: C_1  and  C_2 
REMARK    2  A    between atoms: C_2  and  O_4 
REMARK    3  A    between atoms: C_3  and  C_8 
REMARK    4  A    between atoms: O_4  and  C_5 
REMARK    5  A    between atoms: O_6  and  C_8 
ROOT
HETATM    1  C   LIG     1      -0.742  -1.047  -0.983  1.00  0.00    -0.026 A 
HETATM    2  C   LIG     1       0.381  -1.747  -0.475  1.00  0.00    -0.026 A 
HETATM    3  C   LIG     1      -0.649  -0.470  -2.262  1.00  0.00     0.010 A 
HETATM    4  C   LIG     1       1.533  -1.883  -1.272  1.00  0.00     0.010 A 
HETATM    5  C   LIG     1       0.502  -0.618  -3.040  1.00  0.00     0.001 A 
HETATM    6  C   LIG     1       1.588  -1.331  -2.549  1.00  0.00     0.001 A 
ENDROOT
BRANCH   1   7
HETATM    7  C   LIG     1      -2.009  -0.885  -0.149  1.00  0.00     0.215 C 
BRANCH   7   8
HETATM    8  O   LIG     1      -3.134  -0.473  -0.938  1.00  0.00    -0.347 OA
BRANCH   8   9
HETATM    9  C   LIG     1      -4.348  -0.487  -0.298  1.00  0.00     0.069 A 
HETATM   10  C   LIG     1      -5.467  -0.608  -1.124  1.00  0.00     0.037 A 
HETATM   11  C   LIG     1      -6.753  -0.672  -0.579  1.00  0.00     0.003 A 
HETATM   12  C   LIG     1      -6.927  -0.583   0.802  1.00  0.00     0.000 A 
HETATM   13  C   LIG     1      -5.820  -0.422   1.628  1.00  0.00     0.003 A 
HETATM   14  C   LIG     1      -4.531  -0.375   1.083  1.00  0.00     0.037 A 
ENDBRANCH   8   9
ENDBRANCH   7   8
ENDBRANCH   1   7
BRANCH   2  15
HETATM   15  C   LIG     1       0.391  -2.358   0.907  1.00  0.00     0.203 C 
BRANCH  15  16
HETATM   16  O   LIG     1       0.293  -1.349   1.904  1.00  0.00    -0.396 OA
ATOM     17  HO  LIG     1       0.299  -1.733   2.773  1.00  0.00     0.209 HD
ENDBRANCH  15  16
ENDBRANCH   2  15
TORSDOF 5
