REMARK  4 active torsions:
REMARK  status: ('A' for Active; 'I' for Inactive)
REMARK    1  A    between atoms: N_1  and  C_2 
REMARK    2  A    between atoms: C_5  and  C_8 
REMARK    3  A    between atoms: C_5  and  O_16 
REMARK    4  A    between atoms: O_16  and  C_19 
ROOT
HETATM    1  N   LIG     1       1.175   1.843  -0.098  1.00  0.00    -0.268 NA
HETATM    2  C   LIG     1      -0.412  -0.541   0.195  1.00  0.00     0.088 C 
HETATM    3  C   LIG     1       1.824   0.603   0.348  1.00  0.00     0.098 C 
HETATM    4  C   LIG     1      -0.223   1.971   0.343  1.00  0.00     0.098 C 
HETATM    5  C   LIG     1       1.061  -0.584  -0.228  1.00  0.00     0.029 C 
HETATM    6  C   LIG     1      -1.039   0.800  -0.200  1.00  0.00     0.029 C 
ENDROOT
BRANCH   1   7
HETATM    7  C   LIG     1       1.913   2.984   0.300  1.00  0.00     0.098 A 
HETATM    8  N   LIG     1       2.718   2.937   1.386  1.00  0.00    -0.348 N 
HETATM    9  C   LIG     1       3.372   4.078   1.721  1.00  0.00     0.022 A 
ATOM     10  HN  LIG     1       2.829   2.081   1.930  1.00  0.00     0.167 HD
HETATM   11  C   LIG     1       3.230   5.244   0.978  1.00  0.00     0.112 A 
HETATM   12  C   LIG     1       4.250   4.051   2.931  1.00  0.00     0.069 C 
HETATM   13  N   LIG     1       2.443   5.323  -0.115  1.00  0.00    -0.370 N 
HETATM   14  C   LIG     1       1.799   4.172  -0.431  1.00  0.00     0.130 A 
ATOM     15  HN  LIG     1       2.341   6.179  -0.660  1.00  0.00     0.164 HD
ENDBRANCH   1   7
BRANCH   2  16
HETATM   16  C   LIG     1      -1.173  -1.693  -0.428  1.00  0.00     0.263 C 
HETATM   17  O   LIG     1      -0.695  -2.533  -1.174  1.00  0.00    -0.265 OA
BRANCH  16  18
HETATM   18  O   LIG     1      -2.459  -1.692   0.032  1.00  0.00    -0.322 OA
BRANCH  18  19
HETATM   19  C   LIG     1      -3.263  -2.807  -0.380  1.00  0.00     0.174 C 
HETATM   20  C   LIG     1      -3.019  -3.977   0.554  1.00  0.00     0.034 C 
ENDBRANCH  18  19
ENDBRANCH  16  18
ENDBRANCH   2  16
TORSDOF 4
