REMARK  3 active torsions:
REMARK  status: ('A' for Active; 'I' for Inactive)
REMARK    1  A    between atoms: N_1  and  C_3 
REMARK    2  A    between atoms: C_12  and  C_19 
REMARK    3  A    between atoms: N_14  and  C_19 
ROOT
HETATM    1  C   LIG     1      -1.824   1.012   1.532  1.00  0.00     0.030 A 
HETATM    2  C   LIG     1      -1.716   2.278   2.133  1.00  0.00     0.030 A 
HETATM    3  C   LIG     1      -2.546   0.055   2.267  1.00  0.00     0.030 A 
HETATM    4  C   LIG     1      -2.269   2.568   3.391  1.00  0.00     0.011 A 
HETATM    5  C   LIG     1      -3.105   0.334   3.524  1.00  0.00     0.011 A 
HETATM    6  C   LIG     1      -2.972   1.596   4.103  1.00  0.00    -0.033 A 
ENDROOT
BRANCH   1   7
HETATM    7  N   LIG     1      -1.282   0.748   0.269  1.00  0.00    -0.379 N 
HETATM    8  C   LIG     1      -0.054   1.449  -0.160  1.00  0.00     0.153 C 
HETATM    9  C   LIG     1       1.196   0.876   0.544  1.00  0.00     0.291 C 
HETATM   10  N   LIG     1       1.833  -0.300  -0.080  1.00  0.00     0.085 N 
HETATM   11  C   LIG     1       0.933  -1.297  -0.673  1.00  0.00     0.273 C 
HETATM   12  C   LIG     1       2.773  -0.914   0.858  1.00  0.00     0.309 C 
HETATM   13  C   LIG     1      -0.411  -1.569   0.011  1.00  0.00     0.050 C 
HETATM   14  C   LIG     1      -1.483  -0.549  -0.381  1.00  0.00     0.125 C 
ENDBRANCH   1   7
BRANCH   6  15
HETATM   15  C   LIG     1      -3.570   1.897   5.451  1.00  0.00     0.268 C 
BRANCH  15  16
HETATM   16  N   LIG     1      -5.021   1.752   5.439  1.00  0.00    -0.075 N 
ATOM     17  HN3 LIG     1      -5.446   2.321   4.707  1.00  0.00     0.274 HD
ATOM     18  HN2 LIG     1      -5.301   0.830   5.105  1.00  0.00     0.274 HD
ATOM     19  HN1 LIG     1      -5.426   1.956   6.353  1.00  0.00     0.274 HD
ENDBRANCH  15  16
ENDBRANCH   6  15
TORSDOF 3
