REMARK  3 active torsions:
REMARK  status: ('A' for Active; 'I' for Inactive)
REMARK    1  A    between atoms: N_1  and  C_3 
REMARK    2  A    between atoms: C_12  and  C_17 
REMARK    3  A    between atoms: O_15  and  C_17 
ROOT
HETATM    1  C   LIG     1      -1.672   0.986   1.725  1.00  0.00     0.030 A 
HETATM    2  C   LIG     1      -1.460   2.191   2.420  1.00  0.00     0.030 A 
HETATM    3  C   LIG     1      -2.439   0.026   2.408  1.00  0.00     0.030 A 
HETATM    4  C   LIG     1      -1.957   2.415   3.714  1.00  0.00     0.011 A 
HETATM    5  C   LIG     1      -2.945   0.238   3.700  1.00  0.00     0.011 A 
HETATM    6  C   LIG     1      -2.696   1.434   4.371  1.00  0.00    -0.035 A 
ENDROOT
BRANCH   1   7
HETATM    7  N   LIG     1      -1.192   0.787   0.428  1.00  0.00    -0.379 N 
HETATM    8  C   LIG     1       0.041   1.468  -0.022  1.00  0.00     0.153 C 
HETATM    9  C   LIG     1       1.303   0.795   0.562  1.00  0.00     0.291 C 
HETATM   10  N   LIG     1       1.849  -0.361  -0.178  1.00  0.00     0.085 N 
HETATM   11  C   LIG     1       0.879  -1.303  -0.746  1.00  0.00     0.273 C 
HETATM   12  C   LIG     1       2.851  -1.047   0.639  1.00  0.00     0.309 C 
HETATM   13  C   LIG     1      -0.440  -1.540  -0.001  1.00  0.00     0.050 C 
HETATM   14  C   LIG     1      -1.475  -0.454  -0.298  1.00  0.00     0.125 C 
ENDBRANCH   1   7
BRANCH   6  15
HETATM   15  C   LIG     1      -3.271   1.682   5.738  1.00  0.00     0.202 C 
BRANCH  15  16
HETATM   16  O   LIG     1      -4.561   2.272   5.641  1.00  0.00    -0.396 OA
ATOM     17  HO  LIG     1      -4.924   2.429   6.505  1.00  0.00     0.209 HD
ENDBRANCH  15  16
ENDBRANCH   6  15
TORSDOF 3
