REMARK  3 active torsions:
REMARK  status: ('A' for Active; 'I' for Inactive)
REMARK    1  A    between atoms: C_3  and  C_7 
REMARK    2  A    between atoms: C_9  and  C_17 
REMARK    3  A    between atoms: N_10  and  C_17 
ROOT
HETATM    1  C   LIG     1      -0.775  -2.434  -0.052  1.00  0.00    -0.007 A 
HETATM    2  C   LIG     1       0.135  -3.459   0.252  1.00  0.00     0.022 A 
HETATM    3  C   LIG     1      -0.223  -4.816   0.142  1.00  0.00    -0.032 A 
HETATM    4  C   LIG     1      -2.065  -2.795  -0.469  1.00  0.00     0.014 A 
HETATM    5  C   LIG     1      -2.434  -4.137  -0.583  1.00  0.00     0.002 A 
HETATM    6  C   LIG     1      -1.518  -5.142  -0.280  1.00  0.00     0.009 A 
ENDROOT
BRANCH   1   7
HETATM    7  C   LIG     1      -0.398  -1.018   0.062  1.00  0.00     0.059 A 
HETATM    8  N   LIG     1      -1.275  -0.030  -0.198  1.00  0.00    -0.299 N 
HETATM    9  N   LIG     1      -0.588   1.104   0.008  1.00  0.00    -0.307 N 
ATOM     10  HN  LIG     1      -2.248  -0.123  -0.488  1.00  0.00     0.187 HD
HETATM   11  C   LIG     1       0.701   0.899   0.393  1.00  0.00     0.112 A 
HETATM   12  C   LIG     1      -1.230   2.382  -0.178  1.00  0.00     0.177 C 
HETATM   13  C   LIG     1       0.860  -0.465   0.438  1.00  0.00     0.050 A 
ENDBRANCH   1   7
BRANCH   3  14
HETATM   14  C   LIG     1       0.762  -5.899   0.504  1.00  0.00     0.268 C 
BRANCH  14  15
HETATM   15  N   LIG     1       1.981  -5.811  -0.292  1.00  0.00    -0.075 N 
ATOM     16  HN3 LIG     1       1.774  -5.817  -1.291  1.00  0.00     0.274 HD
ATOM     17  HN2 LIG     1       2.404  -4.886  -0.222  1.00  0.00     0.274 HD
ATOM     18  HN1 LIG     1       2.647  -6.544  -0.047  1.00  0.00     0.274 HD
ENDBRANCH  14  15
ENDBRANCH   3  14
TORSDOF 3
