REMARK  2 active torsions:
REMARK  status: ('A' for Active; 'I' for Inactive)
REMARK    1  A    between atoms: C_6  and  C_14 
REMARK    2  A    between atoms: N_10  and  C_14 
ROOT
HETATM    1  C   LIG     1      -0.352   0.650  -0.046  1.00  0.00    -0.014 A 
HETATM    2  C   LIG     1      -0.260  -0.724   0.056  1.00  0.00    -0.007 A 
HETATM    3  S   LIG     1      -1.767  -1.501   0.076  1.00  0.00    -0.106 SA
HETATM    4  C   LIG     1      -1.718   1.061  -0.150  1.00  0.00     0.018 A 
HETATM    5  C   LIG     1      -2.588  -0.008  -0.087  1.00  0.00     0.051 A 
HETATM    6  C   LIG     1       0.891   1.510  -0.094  1.00  0.00     0.180 C 
HETATM    7  O   LIG     1       2.084   0.758   0.284  1.00  0.00    -0.379 OA
HETATM    8  C   LIG     1       1.041  -1.450   0.152  1.00  0.00     0.073 C 
HETATM    9  C   LIG     1       2.150  -0.522  -0.364  1.00  0.00     0.173 C 
ENDROOT
BRANCH   6  10
HETATM   10  C   LIG     1       0.812   2.729   0.857  1.00  0.00     0.266 C 
BRANCH  10  11
HETATM   11  N   LIG     1       1.999   3.596   0.757  1.00  0.00    -0.077 N 
ATOM     12  HN3 LIG     1       2.856   3.065   0.910  1.00  0.00     0.274 HD
ATOM     13  HN2 LIG     1       2.159   3.891  -0.206  1.00  0.00     0.274 HD
ATOM     14  HN1 LIG     1       1.947   4.399   1.384  1.00  0.00     0.274 HD
ENDBRANCH  10  11
ENDBRANCH   6  10
TORSDOF 2
