REMARK  0 active torsions:
REMARK  status: ('A' for Active; 'I' for Inactive)
ROOT
HETATM    1  N   LIG     1       0.961   0.083  -0.040  1.00  0.00    -0.197 NA
HETATM    2  C   LIG     1       2.112   0.083  -0.040  1.00  0.00     0.064 C 
HETATM    3  S   LIG     1       4.433  -0.312   3.048  1.00  0.00    -0.169 SA
HETATM    4  C   LIG     1       3.556   0.083  -0.040  1.00  0.00     0.094 C 
HETATM    5  C   LIG     1       3.742  -1.562   1.929  1.00  0.00     0.075 C 
HETATM    6  C   LIG     1       3.742   1.180   2.279  1.00  0.00     0.075 C 
HETATM    7  C   LIG     1       4.090  -1.265   0.471  1.00  0.00     0.029 C 
HETATM    8  C   LIG     1       4.091   1.259   0.794  1.00  0.00     0.029 C 
ENDROOT
TORSDOF 0
