REMARK  1 active torsions:
REMARK  status: ('A' for Active; 'I' for Inactive)
REMARK    1  A    between atoms: C_2  and  N_3 
ROOT
HETATM    1  S   LIG     1       0.879   1.499  -0.335  1.00  0.00    -0.169 SA
HETATM    2  C   LIG     1      -0.732  -1.224   0.229  1.00  0.00     0.185 C 
HETATM    3  C   LIG     1      -1.467   0.033  -0.250  1.00  0.00     0.043 C 
HETATM    4  C   LIG     1       0.724  -1.268  -0.247  1.00  0.00     0.043 C 
HETATM    5  C   LIG     1       1.545  -0.085   0.250  1.00  0.00     0.076 C 
HETATM    6  C   LIG     1      -0.825   1.316   0.262  1.00  0.00     0.076 C 
ENDROOT
BRANCH   2   7
HETATM    7  N   LIG     1      -1.426  -2.424  -0.246  1.00  0.00    -0.075 N 
ATOM      8  HN3 LIG     1      -1.351  -2.542  -1.256  1.00  0.00     0.274 HD
ATOM      9  HN2 LIG     1      -0.952  -3.283   0.033  1.00  0.00     0.274 HD
ATOM     10  HN1 LIG     1      -2.395  -2.395   0.071  1.00  0.00     0.274 HD
ENDBRANCH   2   7
TORSDOF 1
