REMARK  4 active torsions:
REMARK  status: ('A' for Active; 'I' for Inactive)
REMARK    1  A    between atoms: C_1  and  C_2 
REMARK    2  A    between atoms: O_5  and  C_8 
REMARK    3  A    between atoms: O_5  and  C_9 
REMARK    4  A    between atoms: C_7  and  C_8 
ROOT
HETATM    1  C   LIG     1      -0.738  -2.811  -3.088  1.00  0.00     0.041 A 
HETATM    2  C   LIG     1      -0.820  -3.302  -1.778  1.00  0.00     0.027 A 
HETATM    3  C   LIG     1       0.138  -2.942  -0.818  1.00  0.00    -0.033 A 
HETATM    4  C   LIG     1       0.320  -1.967  -3.443  1.00  0.00     0.018 A 
HETATM    5  C   LIG     1       1.267  -1.590  -2.489  1.00  0.00     0.002 A 
HETATM    6  C   LIG     1       1.172  -2.069  -1.180  1.00  0.00     0.009 A 
ENDROOT
BRANCH   3   7
HETATM    7  C   LIG     1       0.018  -3.476   0.589  1.00  0.00     0.214 C 
BRANCH   7   8
HETATM    8  O   LIG     1      -0.792  -2.564   1.327  1.00  0.00    -0.347 OA
BRANCH   8   9
HETATM    9  C   LIG     1      -1.003  -2.879   2.641  1.00  0.00     0.069 A 
HETATM   10  C   LIG     1      -1.074  -4.173   3.157  1.00  0.00     0.037 A 
HETATM   11  C   LIG     1      -1.312  -4.372   4.521  1.00  0.00     0.003 A 
HETATM   12  C   LIG     1      -1.494  -3.281   5.369  1.00  0.00     0.000 A 
HETATM   13  C   LIG     1      -1.452  -1.989   4.852  1.00  0.00     0.003 A 
HETATM   14  C   LIG     1      -1.215  -1.790   3.491  1.00  0.00     0.037 A 
ENDBRANCH   8   9
ENDBRANCH   7   8
ENDBRANCH   3   7
BRANCH   1  15
HETATM   15  C   LIG     1      -1.719  -3.205  -4.130  1.00  0.00     0.209 C 
HETATM   16  O   LIG     1      -1.437  -3.253  -5.318  1.00  0.00    -0.644 OA
HETATM   17  O   LIG     1      -2.955  -3.482  -3.661  1.00  0.00    -0.644 OA
ENDBRANCH   1  15
TORSDOF 4
