REMARK  3 active torsions:
REMARK  status: ('A' for Active; 'I' for Inactive)
REMARK    1  A    between atoms: O_1  and  C_4 
REMARK    2  A    between atoms: O_1  and  C_7 
REMARK    3  A    between atoms: C_4  and  C_6 
ROOT
HETATM    1  C   LIG     1       0.884   1.289   1.368  1.00  0.00     0.214 C 
ENDROOT
BRANCH   1   2
HETATM    2  O   LIG     1       1.587   0.183   0.801  1.00  0.00    -0.347 OA
BRANCH   2   3
HETATM    3  C   LIG     1       0.855  -0.701   0.055  1.00  0.00     0.069 A 
HETATM    4  C   LIG     1       1.574  -1.810  -0.393  1.00  0.00     0.037 A 
HETATM    5  C   LIG     1       0.962  -2.796  -1.170  1.00  0.00     0.003 A 
HETATM    6  C   LIG     1      -0.383  -2.671  -1.507  1.00  0.00     0.000 A 
HETATM    7  C   LIG     1      -1.107  -1.566  -1.065  1.00  0.00     0.003 A 
HETATM    8  C   LIG     1      -0.493  -0.580  -0.284  1.00  0.00     0.037 A 
ENDBRANCH   2   3
ENDBRANCH   1   2
BRANCH   1   9
HETATM    9  C   LIG     1       1.863   2.150   2.133  1.00  0.00    -0.032 A 
HETATM   10  C   LIG     1       2.948   2.751   1.472  1.00  0.00     0.036 A 
HETATM   11  C   LIG     1       3.863   3.552   2.162  1.00  0.00     0.046 A 
HETATM   12  C   LIG     1       3.611   3.856   3.501  1.00  0.00     0.026 A 
HETATM   13  N   LIG     1       4.884   4.218   1.469  1.00  0.00    -0.102 NA
HETATM   14  C   LIG     1       2.546   3.259   4.176  1.00  0.00     0.002 A 
HETATM   15  C   LIG     1       1.684   2.397   3.500  1.00  0.00     0.009 A 
ENDBRANCH   1   9
TORSDOF 3
