REMARK  2 active torsions:
REMARK  status: ('A' for Active; 'I' for Inactive)
REMARK    1  A    between atoms: C_1  and  C_7 
REMARK    2  A    between atoms: C_6  and  C_9 
ROOT
HETATM    1  C   LIG     1       0.736  -0.806   0.240  1.00  0.00     0.177 A 
HETATM    2  C   LIG     1       0.870   0.556   0.377  1.00  0.00     0.079 A 
HETATM    3  N   LIG     1      -1.202   0.110  -0.408  1.00  0.00    -0.260 N 
ATOM      4  HN  LIG     1      -2.158   0.210  -0.749  1.00  0.00     0.195 HD
HETATM    5  O   LIG     1      -0.508  -1.070  -0.238  1.00  0.00    -0.231 OA
HETATM    6  C   LIG     1      -0.374   1.102  -0.037  1.00  0.00     0.068 A 
ENDROOT
BRANCH   6   7
HETATM    7  C   LIG     1      -0.782   2.510  -0.086  1.00  0.00    -0.007 A 
HETATM    8  C   LIG     1      -2.072   2.868  -0.509  1.00  0.00     0.014 A 
HETATM    9  C   LIG     1      -2.465   4.209  -0.556  1.00  0.00     0.001 A 
HETATM   10  C   LIG     1      -1.574   5.210  -0.179  1.00  0.00     0.000 A 
HETATM   11  C   LIG     1      -0.291   4.874   0.243  1.00  0.00     0.001 A 
HETATM   12  C   LIG     1       0.103   3.533   0.290  1.00  0.00     0.014 A 
ENDBRANCH   6   7
BRANCH   1  13
HETATM   13  C   LIG     1       1.612  -1.906   0.498  1.00  0.00     0.236 C 
HETATM   14  O   LIG     1       1.413  -3.100   0.321  1.00  0.00    -0.642 OA
HETATM   15  O   LIG     1       2.794  -1.486   1.008  1.00  0.00    -0.642 OA
ENDBRANCH   1  13
TORSDOF 2
