REMARK  3 active torsions:
REMARK  status: ('A' for Active; 'I' for Inactive)
REMARK    1  A    between atoms: C_3  and  C_7 
REMARK    2  A    between atoms: C_6  and  C_8 
REMARK    3  A    between atoms: C_8  and  N_9 
ROOT
HETATM    1  N   LIG     1       0.870  -0.797  -0.065  1.00  0.00    -0.260 N 
ATOM      2  HN  LIG     1       1.649  -1.451  -0.138  1.00  0.00     0.195 HD
HETATM    3  C   LIG     1      -0.436  -1.110   0.012  1.00  0.00     0.067 A 
HETATM    4  C   LIG     1      -1.207   0.081   0.107  1.00  0.00     0.069 A 
HETATM    5  O   LIG     1       0.953   0.578  -0.026  1.00  0.00    -0.240 OA
HETATM    6  C   LIG     1      -0.294   1.105   0.075  1.00  0.00     0.104 A 
ENDROOT
BRANCH   3   7
HETATM    7  C   LIG     1      -0.901  -2.502  -0.007  1.00  0.00    -0.007 A 
HETATM    8  C   LIG     1      -2.266  -2.813   0.094  1.00  0.00     0.014 A 
HETATM    9  C   LIG     1      -2.701  -4.142   0.069  1.00  0.00     0.001 A 
HETATM   10  C   LIG     1      -1.779  -5.178  -0.056  1.00  0.00     0.000 A 
HETATM   11  C   LIG     1      -0.421  -4.888  -0.156  1.00  0.00     0.001 A 
HETATM   12  C   LIG     1       0.014  -3.560  -0.130  1.00  0.00     0.014 A 
ENDBRANCH   3   7
BRANCH   6  13
HETATM   13  C   LIG     1      -0.392   2.579   0.135  1.00  0.00     0.296 C 
BRANCH  13  14
HETATM   14  N   LIG     1      -1.208   3.092  -0.963  1.00  0.00    -0.073 N 
ATOM     15  HN3 LIG     1      -0.864   2.774  -1.869  1.00  0.00     0.274 HD
ATOM     16  HN2 LIG     1      -2.129   2.654  -0.985  1.00  0.00     0.274 HD
ATOM     17  HN1 LIG     1      -1.276   4.109  -0.922  1.00  0.00     0.274 HD
ENDBRANCH  13  14
ENDBRANCH   6  13
TORSDOF 3
