REMARK  1 active torsions:
REMARK  status: ('A' for Active; 'I' for Inactive)
REMARK    1  A    between atoms: C_2  and  C_8 
ROOT
HETATM    1  C   LIG     1       1.123   0.847  -0.122  1.00  0.00     0.147 A 
HETATM    2  C   LIG     1      -1.116  -0.090   0.164  1.00  0.00     0.100 A 
HETATM    3  S   LIG     1      -0.235   1.170   0.904  1.00  0.00    -0.046 SA
HETATM    4  N   LIG     1       0.941  -0.168  -0.941  1.00  0.00    -0.345 N 
ATOM      5  HN  LIG     1       1.642  -0.522  -1.592  1.00  0.00     0.167 HD
HETATM    6  C   LIG     1      -0.331  -0.688  -0.797  1.00  0.00     0.116 A 
HETATM    7  N   LIG     1       2.274   1.564  -0.051  1.00  0.00    -0.361 N 
HETATM    8  C   LIG     1       3.403   1.223  -0.907  1.00  0.00     0.125 C 
HETATM    9  C   LIG     1       2.295   2.973   0.323  1.00  0.00     0.125 C 
HETATM   10  C   LIG     1       3.466   3.555  -0.467  1.00  0.00     0.021 C 
HETATM   11  C   LIG     1       4.387   2.362  -0.656  1.00  0.00     0.021 C 
ENDROOT
BRANCH   2  12
HETATM   12  C   LIG     1      -2.460  -0.376   0.576  1.00  0.00     0.218 C 
HETATM   13  O   LIG     1      -3.128   0.161   1.448  1.00  0.00    -0.643 OA
HETATM   14  O   LIG     1      -2.999  -1.383  -0.148  1.00  0.00    -0.643 OA
ENDBRANCH   2  12
TORSDOF 1
