REMARK  2 active torsions:
REMARK  status: ('A' for Active; 'I' for Inactive)
REMARK    1  A    between atoms: C_1  and  C_6 
REMARK    2  A    between atoms: C_6  and  O_7 
ROOT
HETATM    1  C   LIG     1       1.046   0.695   0.005  1.00  0.00     0.002 A 
HETATM    2  C   LIG     1       0.999  -0.688   0.046  1.00  0.00     0.057 A 
HETATM    3  O   LIG     1      -0.289  -1.121   0.028  1.00  0.00    -0.326 OA
HETATM    4  C   LIG     1      -0.320   1.128  -0.043  1.00  0.00    -0.029 A 
HETATM    5  C   LIG     1      -1.079  -0.022  -0.025  1.00  0.00     0.149 A 
HETATM    6  C   LIG     1       2.038  -1.738   0.103  1.00  0.00     0.077 C 
HETATM    7  C   LIG     1      -0.818   2.524  -0.103  1.00  0.00     0.050 C 
ENDROOT
BRANCH   1   8
HETATM    8  C   LIG     1       2.259   1.555   0.004  1.00  0.00     0.206 C 
BRANCH   8   9
HETATM    9  O   LIG     1       2.397   2.259  -1.225  1.00  0.00    -0.396 OA
ATOM     10  HO  LIG     1       3.172   2.808  -1.226  1.00  0.00     0.209 HD
ENDBRANCH   8   9
ENDBRANCH   1   8
TORSDOF 2
