REMARK  2 active torsions:
REMARK  status: ('A' for Active; 'I' for Inactive)
REMARK    1  A    between atoms: C_1  and  C_7 
REMARK    2  A    between atoms: C_2  and  C_11 
ROOT
HETATM    1  C   LIG     1      -0.643   1.220  -0.075  1.00  0.00     0.071 A 
HETATM    2  C   LIG     1       0.727  -1.131   0.003  1.00  0.00     0.115 A 
HETATM    3  N   LIG     1       1.408   0.009   0.251  1.00  0.00    -0.351 N 
ATOM      4  HN  LIG     1       2.406   0.001   0.463  1.00  0.00     0.166 HD
HETATM    5  N   LIG     1      -0.593  -1.174  -0.278  1.00  0.00    -0.351 N 
ATOM      6  HN  LIG     1      -1.072  -2.056  -0.457  1.00  0.00     0.166 HD
HETATM    7  C   LIG     1      -1.250   0.009  -0.311  1.00  0.00     0.109 A 
HETATM    8  C   LIG     1       0.702   1.163   0.205  1.00  0.00     0.109 A 
ENDROOT
BRANCH   2   9
HETATM    9  C   LIG     1       1.471  -2.406   0.038  1.00  0.00     0.008 A 
HETATM   10  C   LIG     1       2.847  -2.448   0.340  1.00  0.00     0.015 A 
HETATM   11  C   LIG     1       3.554  -3.655   0.371  1.00  0.00     0.001 A 
HETATM   12  C   LIG     1       2.899  -4.853   0.100  1.00  0.00     0.000 A 
HETATM   13  C   LIG     1       1.541  -4.844  -0.201  1.00  0.00     0.001 A 
HETATM   14  C   LIG     1       0.838  -3.635  -0.230  1.00  0.00     0.015 A 
ENDBRANCH   2   9
BRANCH   1  15
HETATM   15  C   LIG     1      -1.339   2.508  -0.112  1.00  0.00     0.212 C 
HETATM   16  O   LIG     1      -0.828   3.593   0.091  1.00  0.00    -0.644 OA
HETATM   17  O   LIG     1      -2.645   2.383  -0.403  1.00  0.00    -0.644 OA
ENDBRANCH   1  15
TORSDOF 2
