REMARK  4 active torsions:
REMARK  status: ('A' for Active; 'I' for Inactive)
REMARK    1  A    between atoms: N_1  and  C_6 
REMARK    2  A    between atoms: C_3  and  C_6 
REMARK    3  A    between atoms: N_10  and  C_17 
REMARK    4  A    between atoms: C_16  and  C_17 
ROOT
HETATM    1  N   LIG     1       0.291   0.809   0.277  1.00  0.00     0.093 N 
HETATM    2  C   LIG     1       1.194  -0.174   0.898  1.00  0.00     0.273 C 
HETATM    3  C   LIG     1      -0.924   0.939   1.093  1.00  0.00     0.273 C 
HETATM    4  C   LIG     1       0.560  -1.554   1.110  1.00  0.00     0.036 C 
HETATM    5  C   LIG     1      -1.673  -0.376   1.303  1.00  0.00     0.036 C 
HETATM    6  C   LIG     1      -0.767  -1.472   1.886  1.00  0.00     0.014 C 
ENDROOT
BRANCH   1   7
HETATM    7  C   LIG     1       0.028   0.475  -1.136  1.00  0.00     0.318 C 
BRANCH   7   8
HETATM    8  C   LIG     1      -0.776   1.519  -1.864  1.00  0.00     0.010 A 
HETATM    9  S   LIG     1      -2.238   1.083  -2.651  1.00  0.00    -0.105 SA
HETATM   10  C   LIG     1      -2.493   2.679  -3.206  1.00  0.00     0.050 A 
HETATM   11  C   LIG     1      -1.490   3.530  -2.807  1.00  0.00     0.008 A 
HETATM   12  C   LIG     1      -0.496   2.863  -2.034  1.00  0.00     0.017 A 
ENDBRANCH   7   8
ENDBRANCH   1   7
BRANCH   6  13
HETATM   13  C   LIG     1      -1.463  -2.845   1.890  1.00  0.00     0.234 C 
BRANCH  13  14
HETATM   14  N   LIG     1      -2.680  -2.846   2.697  1.00  0.00    -0.079 N 
ATOM     15  HN3 LIG     1      -2.493  -2.525   3.647  1.00  0.00     0.274 HD
ATOM     16  HN2 LIG     1      -3.320  -2.109   2.400  1.00  0.00     0.274 HD
ATOM     17  HN1 LIG     1      -3.141  -3.756   2.700  1.00  0.00     0.274 HD
ENDBRANCH  13  14
ENDBRANCH   6  13
TORSDOF 4
