REMARK  2 active torsions:
REMARK  status: ('A' for Active; 'I' for Inactive)
REMARK    1  A    between atoms: C_1  and  C_7 
REMARK    2  A    between atoms: C_2  and  C_8 
ROOT
HETATM    1  C   LIG     1      -0.587   1.162   0.023  1.00  0.00     0.122 A 
HETATM    2  C   LIG     1       0.717  -1.212  -0.060  1.00  0.00     0.071 A 
HETATM    3  N   LIG     1      -1.328   0.040   0.134  1.00  0.00    -0.350 N 
ATOM      4  HN  LIG     1      -2.341   0.071   0.245  1.00  0.00     0.166 HD
HETATM    5  N   LIG     1       0.752   1.190  -0.120  1.00  0.00    -0.350 N 
ATOM      6  HN  LIG     1       1.266   2.068  -0.196  1.00  0.00     0.166 HD
HETATM    7  C   LIG     1       1.377  -0.008  -0.158  1.00  0.00     0.109 A 
HETATM    8  C   LIG     1      -0.649  -1.129   0.090  1.00  0.00     0.109 A 
ENDROOT
BRANCH   1   9
HETATM    9  C   LIG     1      -1.319   2.433   0.049  1.00  0.00     0.049 A 
HETATM   10  S   LIG     1      -0.496   3.938  -0.085  1.00  0.00    -0.098 SA
HETATM   11  C   LIG     1      -1.948   4.833   0.022  1.00  0.00     0.050 A 
HETATM   12  C   LIG     1      -3.047   4.018   0.157  1.00  0.00     0.009 A 
HETATM   13  C   LIG     1      -2.685   2.639   0.172  1.00  0.00     0.023 A 
ENDBRANCH   1   9
BRANCH   2  14
HETATM   14  C   LIG     1       1.380  -2.517  -0.118  1.00  0.00     0.212 C 
HETATM   15  O   LIG     1       0.825  -3.596  -0.028  1.00  0.00    -0.644 OA
HETATM   16  O   LIG     1       2.707  -2.415  -0.297  1.00  0.00    -0.644 OA
ENDBRANCH   2  14
TORSDOF 2
