REMARK  4 active torsions:
REMARK  status: ('A' for Active; 'I' for Inactive)
REMARK    1  A    between atoms: C_1  and  C_4 
REMARK    2  A    between atoms: C_1  and  O_5 
REMARK    3  A    between atoms: C_4  and  C_6 
REMARK    4  A    between atoms: O_5  and  C_9 
ROOT
HETATM    1  O   LIG     1       1.563  -3.995  -4.091  1.00  0.00    -0.391 OA
HETATM    2  C   LIG     1       0.680  -2.148  -2.029  1.00  0.00    -0.001 C 
HETATM    3  C   LIG     1       2.388  -2.880  -3.758  1.00  0.00     0.168 C 
HETATM    4  C   LIG     1       0.842  -4.500  -2.968  1.00  0.00     0.168 C 
HETATM    5  C   LIG     1      -0.083  -3.431  -2.400  1.00  0.00     0.031 C 
HETATM    6  C   LIG     1       1.548  -1.723  -3.223  1.00  0.00     0.031 C 
ENDROOT
BRANCH   2   7
HETATM    7  C   LIG     1       1.539  -2.291  -0.761  1.00  0.00     0.115 C 
BRANCH   7   8
HETATM    8  C   LIG     1       0.738  -2.648   0.465  1.00  0.00     0.259 C 
HETATM    9  O   LIG     1       0.922  -3.661   1.123  1.00  0.00    -0.265 OA
BRANCH   8  10
HETATM   10  O   LIG     1      -0.187  -1.684   0.732  1.00  0.00    -0.322 OA
BRANCH  10  11
HETATM   11  C   LIG     1      -1.001  -1.924   1.888  1.00  0.00     0.174 C 
HETATM   12  C   LIG     1      -2.143  -2.861   1.541  1.00  0.00     0.034 C 
ENDBRANCH  10  11
ENDBRANCH   8  10
ENDBRANCH   7   8
ENDBRANCH   2   7
TORSDOF 4
