REMARK  3 active torsions:
REMARK  status: ('A' for Active; 'I' for Inactive)
REMARK    1  A    between atoms: O_2  and  C_7 
REMARK    2  A    between atoms: C_4  and  C_8 
REMARK    3  A    between atoms: C_7  and  C_8 
ROOT
HETATM    1  O   LIG     1       0.794   1.283  -0.159  1.00  0.00    -0.391 OA
HETATM    2  C   LIG     1      -0.693  -1.169   0.221  1.00  0.00    -0.009 C 
HETATM    3  C   LIG     1       1.464   0.135   0.358  1.00  0.00     0.168 C 
HETATM    4  C   LIG     1      -0.561   1.350   0.279  1.00  0.00     0.168 C 
HETATM    5  C   LIG     1       0.801  -1.143  -0.141  1.00  0.00     0.031 C 
HETATM    6  C   LIG     1      -1.352   0.147  -0.219  1.00  0.00     0.031 C 
ENDROOT
BRANCH   2   7
HETATM    7  C   LIG     1      -1.368  -2.406  -0.405  1.00  0.00     0.031 C 
BRANCH   7   8
HETATM    8  C   LIG     1      -2.840  -2.573  -0.036  1.00  0.00     0.164 C 
BRANCH   8   9
HETATM    9  O   LIG     1      -2.993  -2.692   1.371  1.00  0.00    -0.401 OA
ATOM     10  HO  LIG     1      -3.909  -2.796   1.601  1.00  0.00     0.209 HD
ENDBRANCH   8   9
ENDBRANCH   7   8
ENDBRANCH   2   7
TORSDOF 3
