REMARK  3 active torsions:
REMARK  status: ('A' for Active; 'I' for Inactive)
REMARK    1  A    between atoms: C_1  and  C_2 
REMARK    2  A    between atoms: C_5  and  C_6 
REMARK    3  A    between atoms: C_8  and  C_9 
ROOT
HETATM    1  C   LIG     1       0.813  -1.141   0.832  1.00  0.00     0.063 A 
HETATM    2  N   LIG     1       0.643  -3.545   0.628  1.00  0.00    -0.364 N 
ATOM      3  HN  LIG     1       0.949  -4.408   0.179  1.00  0.00     0.165 HD
HETATM    4  C   LIG     1      -0.302  -3.568   1.605  1.00  0.00     0.042 A 
HETATM    5  C   LIG     1       1.169  -2.351   0.264  1.00  0.00     0.104 A 
HETATM    6  C   LIG     1      -0.154  -1.173   1.839  1.00  0.00     0.020 A 
HETATM    7  C   LIG     1      -0.716  -2.391   2.228  1.00  0.00     0.031 A 
ENDROOT
BRANCH   4   8
HETATM    8  C   LIG     1      -0.833  -4.907   1.953  1.00  0.00    -0.009 A 
HETATM    9  C   LIG     1      -2.143  -5.100   2.431  1.00  0.00     0.032 A 
HETATM   10  C   LIG     1      -2.631  -6.384   2.738  1.00  0.00     0.041 A 
HETATM   11  C   LIG     1      -1.806  -7.500   2.579  1.00  0.00     0.018 A 
HETATM   12  C   LIG     1      -0.506  -7.335   2.110  1.00  0.00     0.002 A 
HETATM   13  C   LIG     1      -0.032  -6.056   1.799  1.00  0.00     0.014 A 
BRANCH  10  14
HETATM   14  C   LIG     1      -4.029  -6.508   3.217  1.00  0.00     0.209 C 
HETATM   15  O   LIG     1      -4.798  -5.586   3.411  1.00  0.00    -0.644 OA
HETATM   16  O   LIG     1      -4.402  -7.784   3.421  1.00  0.00    -0.644 OA
ENDBRANCH  10  14
ENDBRANCH   4   8
BRANCH   1  17
HETATM   17  C   LIG     1       1.445   0.141   0.386  1.00  0.00     0.418 C 
HETATM   18  F   LIG     1       2.364  -0.017  -0.607  1.00  0.00    -0.166 F 
HETATM   19  F   LIG     1       2.098   0.779   1.397  1.00  0.00    -0.166 F 
HETATM   20  F   LIG     1       0.534   1.034  -0.089  1.00  0.00    -0.166 F 
ENDBRANCH   1  17
TORSDOF 3
