REMARK  3 active torsions:
REMARK  status: ('A' for Active; 'I' for Inactive)
REMARK    1  A    between atoms: C_1  and  C_7 
REMARK    2  A    between atoms: C_2  and  O_6 
REMARK    3  A    between atoms: C_7  and  N_8 
ROOT
HETATM    1  C   LIG     1       1.152  -0.052   0.014  1.00  0.00     0.041 A 
HETATM    2  C   LIG     1      -0.099  -0.636   0.064  1.00  0.00     0.083 A 
HETATM    3  S   LIG     1       1.043   1.660  -0.087  1.00  0.00    -0.102 SA
HETATM    4  C   LIG     1      -1.149   0.332   0.037  1.00  0.00     0.045 A 
HETATM    5  C   LIG     1      -0.663   1.620  -0.041  1.00  0.00     0.053 A 
ENDROOT
BRANCH   1   6
HETATM    6  C   LIG     1       2.500  -0.714   0.057  1.00  0.00     0.280 C 
BRANCH   6   7
HETATM    7  N   LIG     1       2.967  -1.025  -1.297  1.00  0.00    -0.075 N 
HETATM    8  C   LIG     1       4.264  -1.683  -1.266  1.00  0.00     0.267 C 
ATOM      9  HN2 LIG     1       2.280  -1.573  -1.814  1.00  0.00     0.277 HD
ATOM     10  HN1 LIG     1       2.981  -0.195  -1.889  1.00  0.00     0.277 HD
ENDBRANCH   6   7
ENDBRANCH   1   6
BRANCH   2  11
HETATM   11  O   LIG     1      -0.199  -1.990   0.137  1.00  0.00    -0.355 OA
HETATM   12  C   LIG     1      -1.530  -2.488   0.165  1.00  0.00     0.210 C 
ENDBRANCH   2  11
TORSDOF 3
