REMARK  1 active torsions:
REMARK  status: ('A' for Active; 'I' for Inactive)
REMARK    1  A    between atoms: C_1  and  C_4 
ROOT
HETATM    1  C   LIG     1      -0.506  -0.961   0.005  1.00  0.00     0.051 A 
HETATM    2  N   LIG     1       0.763  -0.507  -0.322  1.00  0.00    -0.353 N 
ATOM      3  HN  LIG     1       1.525  -1.094  -0.662  1.00  0.00     0.166 HD
HETATM    4  C   LIG     1      -1.366   0.009   0.483  1.00  0.00     0.081 A 
HETATM    5  C   LIG     1       0.839   0.792  -0.129  1.00  0.00     0.047 A 
HETATM    6  S   LIG     1      -0.589   1.537   0.473  1.00  0.00    -0.087 SA
HETATM    7  C   LIG     1       2.051   1.612  -0.392  1.00  0.00     0.076 C 
ENDROOT
BRANCH   1   8
HETATM    8  C   LIG     1      -0.852  -2.374  -0.087  1.00  0.00     0.015 A 
HETATM    9  C   LIG     1      -2.024  -2.843  -0.721  1.00  0.00     0.058 A 
HETATM   10  N   LIG     1      -3.000  -1.978  -1.263  1.00  0.00    -0.102 NA
HETATM   11  C   LIG     1      -2.329  -4.211  -0.636  1.00  0.00     0.027 A 
HETATM   12  C   LIG     1      -1.440  -5.116  -0.054  1.00  0.00     0.002 A 
HETATM   13  C   LIG     1      -0.243  -4.662   0.489  1.00  0.00     0.001 A 
HETATM   14  C   LIG     1       0.046  -3.298   0.478  1.00  0.00     0.015 A 
ENDBRANCH   1   8
TORSDOF 1
