REMARK  3 active torsions:
REMARK  status: ('A' for Active; 'I' for Inactive)
REMARK    1  A    between atoms: C_1  and  C_7 
REMARK    2  A    between atoms: C_2  and  O_6 
REMARK    3  A    between atoms: C_7  and  N_8 
ROOT
HETATM    1  C   LIG     1       1.083  -0.513   0.012  1.00  0.00     0.041 A 
HETATM    2  C   LIG     1      -0.221  -0.969  -0.047  1.00  0.00     0.083 A 
HETATM    3  S   LIG     1       1.148   1.200   0.093  1.00  0.00    -0.102 SA
HETATM    4  C   LIG     1      -1.166   0.101  -0.028  1.00  0.00     0.045 A 
HETATM    5  C   LIG     1      -0.553   1.332   0.042  1.00  0.00     0.053 A 
ENDROOT
BRANCH   1   6
HETATM    6  C   LIG     1       2.350  -1.311   0.020  1.00  0.00     0.278 C 
BRANCH   6   7
HETATM    7  N   LIG     1       2.837  -1.527  -1.340  1.00  0.00    -0.075 N 
ATOM      8  HN3 LIG     1       2.125  -1.955  -1.932  1.00  0.00     0.274 HD
ATOM      9  HN2 LIG     1       2.948  -0.648  -1.845  1.00  0.00     0.274 HD
ATOM     10  HN1 LIG     1       3.700  -2.071  -1.335  1.00  0.00     0.274 HD
ENDBRANCH   6   7
ENDBRANCH   1   6
BRANCH   2  11
HETATM   11  O   LIG     1      -0.458  -2.305  -0.120  1.00  0.00    -0.355 OA
HETATM   12  C   LIG     1      -1.834  -2.662  -0.149  1.00  0.00     0.210 C 
ENDBRANCH   2  11
TORSDOF 3
