REMARK  4 active torsions:
REMARK  status: ('A' for Active; 'I' for Inactive)
REMARK    1  A    between atoms: C_1  and  N_6 
REMARK    2  A    between atoms: N_6  and  C_11 
REMARK    3  A    between atoms: C_8  and  C_16 
REMARK    4  A    between atoms: N_12  and  C_16 
ROOT
HETATM    1  C   LIG     1      -0.340   0.580  -0.325  1.00  0.00     0.682 A 
HETATM    2  N   LIG     1      -1.059  -0.553  -0.357  1.00  0.00    -0.201 N 
ATOM      3  HN  LIG     1      -2.074  -0.529  -0.451  1.00  0.00     0.183 HD
HETATM    4  N   LIG     1       0.996   0.589  -0.204  1.00  0.00    -0.201 N 
ATOM      5  HN  LIG     1       1.522   1.462  -0.185  1.00  0.00     0.183 HD
HETATM    6  C   LIG     1       0.964  -1.824  -0.153  1.00  0.00    -0.001 A 
HETATM    7  C   LIG     1      -0.401  -1.719  -0.261  1.00  0.00     0.116 A 
HETATM    8  C   LIG     1       1.615  -0.610  -0.108  1.00  0.00     0.116 A 
ENDROOT
BRANCH   1   9
HETATM    9  N   LIG     1      -0.957   1.824  -0.431  1.00  0.00    -0.192 N 
ATOM     10  HN  LIG     1      -0.305   2.599  -0.553  1.00  0.00     0.184 HD
BRANCH   9  11
HETATM   11  C   LIG     1      -2.301   2.215  -0.402  1.00  0.00     0.049 A 
HETATM   12  C   LIG     1      -3.358   1.322  -0.183  1.00  0.00     0.030 A 
HETATM   13  C   LIG     1      -4.690   1.739  -0.204  1.00  0.00     0.002 A 
HETATM   14  C   LIG     1      -4.994   3.069  -0.454  1.00  0.00     0.000 A 
HETATM   15  C   LIG     1      -3.964   3.980  -0.687  1.00  0.00     0.002 A 
HETATM   16  C   LIG     1      -2.633   3.553  -0.666  1.00  0.00     0.030 A 
ENDBRANCH   9  11
ENDBRANCH   1   9
BRANCH   6  17
HETATM   17  C   LIG     1       1.631  -3.153  -0.022  1.00  0.00     0.271 C 
BRANCH  17  18
HETATM   18  N   LIG     1       2.974  -3.174  -0.590  1.00  0.00    -0.075 N 
ATOM     19  HN3 LIG     1       2.963  -2.866  -1.562  1.00  0.00     0.274 HD
ATOM     20  HN2 LIG     1       3.551  -2.435  -0.188  1.00  0.00     0.274 HD
ATOM     21  HN1 LIG     1       3.430  -4.082  -0.500  1.00  0.00     0.274 HD
ENDBRANCH  17  18
ENDBRANCH   6  17
TORSDOF 4
