REMARK  3 active torsions:
REMARK  status: ('A' for Active; 'I' for Inactive)
REMARK    1  A    between atoms: C_1  and  C_4 
REMARK    2  A    between atoms: C_3  and  C_11 
REMARK    3  A    between atoms: C_11  and  C_13 
ROOT
HETATM    1  C   LIG     1       0.270   0.807  -0.208  1.00  0.00     0.040 A 
HETATM    2  C   LIG     1      -0.423   0.479  -1.378  1.00  0.00     0.019 A 
HETATM    3  C   LIG     1       0.506   2.151   0.105  1.00  0.00     0.019 A 
HETATM    4  C   LIG     1      -0.715   2.844  -1.879  1.00  0.00    -0.053 A 
HETATM    5  C   LIG     1      -0.922   1.493  -2.200  1.00  0.00     0.008 A 
HETATM    6  C   LIG     1       0.013   3.163  -0.724  1.00  0.00     0.008 A 
ENDROOT
BRANCH   4   7
HETATM    7  C   LIG     1      -1.284   3.940  -2.757  1.00  0.00     0.084 C 
BRANCH   7   8
HETATM    8  C   LIG     1      -0.764   3.911  -4.168  1.00  0.00    -0.013 A 
HETATM    9  S   LIG     1      -1.855   3.744  -5.481  1.00  0.00    -0.106 SA
HETATM   10  C   LIG     1      -0.590   3.809  -6.627  1.00  0.00     0.050 A 
HETATM   11  C   LIG     1       0.642   3.951  -6.029  1.00  0.00     0.008 A 
HETATM   12  C   LIG     1       0.542   4.016  -4.609  1.00  0.00     0.015 A 
ENDBRANCH   7   8
ENDBRANCH   4   7
BRANCH   1  13
HETATM   13  C   LIG     1       0.799  -0.229   0.715  1.00  0.00     0.209 C 
HETATM   14  O   LIG     1       1.798  -0.068   1.392  1.00  0.00    -0.644 OA
HETATM   15  O   LIG     1       0.038  -1.343   0.777  1.00  0.00    -0.644 OA
ENDBRANCH   1  13
TORSDOF 3
