REMARK  2 active torsions:
REMARK  status: ('A' for Active; 'I' for Inactive)
REMARK    1  A    between atoms: C_2  and  C_6 
REMARK    2  A    between atoms: C_6  and  C_7 
ROOT
HETATM    1  C   LIG     1       3.488  -0.836  -1.838  1.00  0.00    -0.053 A 
HETATM    2  C   LIG     1       4.574  -1.156  -4.427  1.00  0.00     0.046 A 
HETATM    3  N   LIG     1       5.236  -1.329  -5.649  1.00  0.00    -0.102 NA
HETATM    4  C   LIG     1       4.153  -2.263  -3.689  1.00  0.00     0.027 A 
HETATM    5  C   LIG     1       4.536   0.102  -3.821  1.00  0.00     0.027 A 
HETATM    6  C   LIG     1       3.592  -2.107  -2.417  1.00  0.00     0.009 A 
HETATM    7  C   LIG     1       3.982   0.266  -2.547  1.00  0.00     0.009 A 
ENDROOT
BRANCH   1   8
HETATM    8  C   LIG     1       2.895  -0.660  -0.456  1.00  0.00     0.084 C 
BRANCH   8   9
HETATM    9  C   LIG     1       1.620   0.141  -0.447  1.00  0.00    -0.013 A 
HETATM   10  S   LIG     1       1.518   1.581   0.480  1.00  0.00    -0.106 SA
HETATM   11  C   LIG     1      -0.102   1.849   0.009  1.00  0.00     0.050 A 
HETATM   12  C   LIG     1      -0.567   0.862  -0.831  1.00  0.00     0.008 A 
HETATM   13  C   LIG     1       0.427  -0.126  -1.093  1.00  0.00     0.015 A 
ENDBRANCH   8   9
ENDBRANCH   1   8
TORSDOF 2
