REMARK  1 active torsions:
REMARK  status: ('A' for Active; 'I' for Inactive)
REMARK    1  A    between atoms: C_1  and  C_3 
ROOT
HETATM    1  C   LIG     1       1.114   1.431   0.056  1.00  0.00     0.074 A 
HETATM    2  C   LIG     1      -0.076   0.688  -0.002  1.00  0.00     0.092 A 
HETATM    3  O   LIG     1      -1.267   1.367  -0.041  1.00  0.00    -0.349 OA
HETATM    4  C   LIG     1      -0.015  -0.716  -0.017  1.00  0.00    -0.024 A 
HETATM    5  C   LIG     1       2.354   0.776   0.029  1.00  0.00     0.021 A 
HETATM    6  C   LIG     1       2.412  -0.616  -0.015  1.00  0.00     0.002 A 
HETATM    7  C   LIG     1       1.233  -1.358  -0.033  1.00  0.00     0.010 A 
HETATM    8  C   LIG     1      -2.410   0.601  -0.421  1.00  0.00     0.176 C 
HETATM    9  C   LIG     1      -1.267  -1.549  -0.050  1.00  0.00     0.043 C 
HETATM   10  C   LIG     1      -2.479  -0.716   0.328  1.00  0.00     0.031 C 
ENDROOT
BRANCH   1  11
HETATM   11  C   LIG     1       1.148   2.908   0.108  1.00  0.00     0.212 C 
HETATM   12  O   LIG     1       1.982   3.611  -0.435  1.00  0.00    -0.644 OA
HETATM   13  O   LIG     1       0.231   3.429   0.940  1.00  0.00    -0.644 OA
ENDBRANCH   1  11
TORSDOF 1
