REMARK  3 active torsions:
REMARK  status: ('A' for Active; 'I' for Inactive)
REMARK    1  A    between atoms: C_3  and  C_8 
REMARK    2  A    between atoms: C_6  and  C_9 
REMARK    3  A    between atoms: C_9  and  N_10 
ROOT
HETATM    1  N   LIG     1      -0.287  -1.125   0.148  1.00  0.00    -0.321 N 
ATOM      2  HN  LIG     1      -0.463  -2.128   0.199  1.00  0.00     0.169 HD
HETATM    3  C   LIG     1       0.919  -0.463   0.037  1.00  0.00     0.137 A 
HETATM    4  N   LIG     1       0.801   0.875  -0.025  1.00  0.00    -0.242 N 
ATOM      5  HN  LIG     1       1.543   1.568  -0.118  1.00  0.00     0.196 HD
HETATM    6  C   LIG     1      -1.153  -0.134   0.171  1.00  0.00     0.174 A 
HETATM    7  O   LIG     1      -0.571   1.093   0.068  1.00  0.00    -0.221 OA
ENDROOT
BRANCH   3   8
HETATM    8  C   LIG     1       2.196  -1.169  -0.025  1.00  0.00     0.010 A 
HETATM    9  C   LIG     1       3.407  -0.468  -0.139  1.00  0.00     0.015 A 
HETATM   10  C   LIG     1       4.624  -1.153  -0.204  1.00  0.00     0.001 A 
HETATM   11  C   LIG     1       4.645  -2.545  -0.155  1.00  0.00     0.000 A 
HETATM   12  C   LIG     1       3.451  -3.254  -0.041  1.00  0.00     0.001 A 
HETATM   13  C   LIG     1       2.233  -2.571   0.024  1.00  0.00     0.015 A 
ENDBRANCH   3   8
BRANCH   6  14
HETATM   14  C   LIG     1      -2.638  -0.170   0.259  1.00  0.00     0.315 C 
BRANCH  14  15
HETATM   15  N   LIG     1      -3.110  -0.805   1.494  1.00  0.00    -0.072 N 
ATOM     16  HN3 LIG     1      -2.713  -1.738   1.603  1.00  0.00     0.274 HD
ATOM     17  HN2 LIG     1      -2.704  -0.358   2.316  1.00  0.00     0.274 HD
ATOM     18  HN1 LIG     1      -4.128  -0.830   1.554  1.00  0.00     0.274 HD
ENDBRANCH  14  15
ENDBRANCH   6  14
TORSDOF 3
