REMARK  0 active torsions:
REMARK  status: ('A' for Active; 'I' for Inactive)
ROOT
HETATM    1  C   LIG     1      -0.102  -0.710  -0.007  1.00  0.00    -0.024 A 
HETATM    2  O   LIG     1      -2.411  -0.399  -0.040  1.00  0.00    -0.382 OA
HETATM    3  C   LIG     1      -0.334   0.654  -0.013  1.00  0.00    -0.026 A 
HETATM    4  C   LIG     1       1.187  -1.221   0.022  1.00  0.00     0.036 A 
HETATM    5  C   LIG     1       0.715   1.554   0.015  1.00  0.00     0.012 A 
HETATM    6  C   LIG     1       2.268  -0.334  -0.003  1.00  0.00     0.046 A 
HETATM    7  N   LIG     1       3.574  -0.815   0.164  1.00  0.00    -0.102 NA
HETATM    8  C   LIG     1      -1.397  -1.431  -0.009  1.00  0.00     0.207 A 
HETATM    9  C   LIG     1       2.020   1.050   0.042  1.00  0.00     0.027 A 
HETATM   10  C   LIG     1      -1.794   0.909  -0.012  1.00  0.00     0.207 A 
ENDROOT
TORSDOF 0
