REMARK  3 active torsions:
REMARK  status: ('A' for Active; 'I' for Inactive)
REMARK    1  A    between atoms: C_1  and  C_2 
REMARK    2  A    between atoms: C_1  and  C_7 
REMARK    3  A    between atoms: N_3  and  C_7 
ROOT
HETATM    1  C   LIG     1       0.981   0.099  -0.123  1.00  0.00     0.003 C 
HETATM    2  C   LIG     1       0.753  -0.694   1.185  1.00  0.00     0.021 C 
HETATM    3  C   LIG     1       2.513   0.235  -0.306  1.00  0.00     0.021 C 
ENDROOT
BRANCH   1   4
HETATM    4  C   LIG     1       0.265   1.466  -0.011  1.00  0.00    -0.049 A 
HETATM    5  C   LIG     1      -1.124   1.521   0.214  1.00  0.00     0.008 A 
HETATM    6  C   LIG     1      -1.800   2.739   0.330  1.00  0.00     0.001 A 
HETATM    7  C   LIG     1      -1.101   3.936   0.227  1.00  0.00     0.000 A 
HETATM    8  C   LIG     1       0.270   3.912   0.003  1.00  0.00     0.001 A 
HETATM    9  C   LIG     1       0.945   2.692  -0.118  1.00  0.00     0.008 A 
ENDBRANCH   1   4
BRANCH   1  10
HETATM   10  C   LIG     1       0.386  -0.680  -1.344  1.00  0.00     0.243 C 
BRANCH  10  11
HETATM   11  N   LIG     1       0.955  -2.013  -1.571  1.00  0.00    -0.078 N 
ATOM     12  HN3 LIG     1       1.970  -1.952  -1.654  1.00  0.00     0.274 HD
ATOM     13  HN2 LIG     1       0.878  -2.576  -0.724  1.00  0.00     0.274 HD
ATOM     14  HN1 LIG     1       0.567  -2.520  -2.366  1.00  0.00     0.274 HD
ENDBRANCH  10  11
ENDBRANCH   1  10
TORSDOF 3
