REMARK  1 active torsions:
REMARK  status: ('A' for Active; 'I' for Inactive)
REMARK    1  A    between atoms: C_1  and  C_6 
ROOT
HETATM    1  C   LIG     1      -0.373  -1.141  -0.028  1.00  0.00     0.074 A 
HETATM    2  N   LIG     1       0.945   0.726   0.101  1.00  0.00    -0.309 N 
ATOM      3  HN  LIG     1       1.750   1.348   0.172  1.00  0.00     0.186 HD
HETATM    4  C   LIG     1      -1.184  -0.023  -0.075  1.00  0.00     0.129 A 
HETATM    5  N   LIG     1      -0.356   1.056   0.005  1.00  0.00    -0.307 N 
HETATM    6  C   LIG     1       0.931  -0.610   0.081  1.00  0.00     0.127 A 
HETATM    7  C   LIG     1      -0.736   2.448  -0.006  1.00  0.00     0.177 C 
ENDROOT
BRANCH   1   8
HETATM    8  C   LIG     1      -0.758  -2.528  -0.078  1.00  0.00     0.212 C 
HETATM    9  O   LIG     1       0.009  -3.478  -0.031  1.00  0.00    -0.644 OA
HETATM   10  O   LIG     1      -2.090  -2.736  -0.185  1.00  0.00    -0.644 OA
ENDBRANCH   1   8
TORSDOF 1
