REMARK  2 active torsions:
REMARK  status: ('A' for Active; 'I' for Inactive)
REMARK    1  A    between atoms: N_2  and  C_9 
REMARK    2  A    between atoms: C_8  and  C_9 
ROOT
HETATM    1  N   LIG     1       6.031   1.134   1.626  1.00  0.00    -0.197 NA
HETATM    2  C   LIG     1       5.782   0.224   0.952  1.00  0.00     0.060 C 
HETATM    3  C   LIG     1       5.451  -0.928   0.109  1.00  0.00     0.144 C 
ENDROOT
BRANCH   3   4
HETATM    4  C   LIG     1       4.068  -1.456   0.461  1.00  0.00     0.142 C 
BRANCH   4   5
HETATM    5  N   LIG     1       3.713  -2.609  -0.349  1.00  0.00    -0.366 N 
HETATM    6  C   LIG     1       3.975  -3.913  -0.024  1.00  0.00     0.090 A 
HETATM    7  C   LIG     1       3.486  -4.707  -1.038  1.00  0.00     0.019 A 
HETATM    8  C   LIG     1       2.908  -3.850  -2.004  1.00  0.00     0.019 A 
HETATM    9  C   LIG     1       3.060  -2.557  -1.552  1.00  0.00     0.090 A 
ENDBRANCH   4   5
ENDBRANCH   3   4
TORSDOF 2
