REMARK  3 active torsions:
REMARK  status: ('A' for Active; 'I' for Inactive)
REMARK    1  A    between atoms: C_1  and  C_4 
REMARK    2  A    between atoms: N_2  and  C_3 
REMARK    3  A    between atoms: C_4  and  O_10 
ROOT
HETATM    1  C   LIG     1      -1.639  -0.128   0.134  1.00  0.00     0.066 A 
HETATM    2  C   LIG     1      -1.004  -1.382   0.078  1.00  0.00     0.054 A 
HETATM    3  C   LIG     1      -0.869   1.049   0.056  1.00  0.00     0.020 A 
HETATM    4  C   LIG     1       0.403  -1.421  -0.007  1.00  0.00     0.031 A 
HETATM    5  C   LIG     1       0.520   0.990  -0.041  1.00  0.00     0.001 A 
HETATM    6  C   LIG     1       1.155  -0.246  -0.063  1.00  0.00     0.002 A 
ENDROOT
BRANCH   2   7
HETATM    7  N   LIG     1      -1.704  -2.625   0.049  1.00  0.00    -0.332 N 
HETATM    8  C   LIG     1      -2.956  -2.877  -0.478  1.00  0.00     0.096 A 
HETATM    9  C   LIG     1      -3.226  -4.227  -0.383  1.00  0.00     0.019 A 
HETATM   10  C   LIG     1      -2.112  -4.836   0.228  1.00  0.00     0.019 A 
HETATM   11  C   LIG     1      -1.195  -3.841   0.477  1.00  0.00     0.096 A 
ENDBRANCH   2   7
BRANCH   1  12
HETATM   12  C   LIG     1      -3.074   0.107   0.418  1.00  0.00     0.295 C 
HETATM   13  O   LIG     1      -3.748   0.936  -0.164  1.00  0.00    -0.259 OA
BRANCH  12  14
HETATM   14  O   LIG     1      -3.423  -0.604   1.517  1.00  0.00    -0.322 OA
HETATM   15  C   LIG     1      -4.716  -0.305   2.050  1.00  0.00     0.213 C 
ENDBRANCH  12  14
ENDBRANCH   1  12
TORSDOF 3
