REMARK  1 active torsions:
REMARK  status: ('A' for Active; 'I' for Inactive)
REMARK    1  A    between atoms: N_1  and  C_2 
ROOT
HETATM    1  C   LIG     1      -0.704  -2.450  -0.022  1.00  0.00     0.038 A 
HETATM    2  C   LIG     1       0.252  -3.474   0.085  1.00  0.00     0.033 A 
HETATM    3  C   LIG     1      -2.055  -2.801  -0.194  1.00  0.00     0.033 A 
HETATM    4  C   LIG     1      -1.474  -5.140  -0.149  1.00  0.00     0.116 A 
HETATM    5  C   LIG     1      -2.436  -4.145  -0.257  1.00  0.00     0.044 A 
HETATM    6  C   LIG     1      -0.136  -4.817   0.022  1.00  0.00     0.044 A 
HETATM    7  F   LIG     1      -1.842  -6.426  -0.209  1.00  0.00    -0.206 F 
ENDROOT
BRANCH   1   8
HETATM    8  N   LIG     1      -0.311  -1.074   0.043  1.00  0.00    -0.333 N 
HETATM    9  C   LIG     1      -1.143   0.029  -0.037  1.00  0.00     0.096 A 
HETATM   10  C   LIG     1      -0.392   1.181   0.066  1.00  0.00     0.019 A 
HETATM   11  C   LIG     1       0.950   0.789   0.215  1.00  0.00     0.019 A 
HETATM   12  C   LIG     1       0.977  -0.588   0.199  1.00  0.00     0.096 A 
ENDBRANCH   1   8
TORSDOF 1
