REMARK  1 active torsions:
REMARK  status: ('A' for Active; 'I' for Inactive)
REMARK    1  A    between atoms: N_1  and  C_2 
ROOT
HETATM    1  C   LIG     1      -0.790  -2.391  -0.075  1.00  0.00     0.059 A 
HETATM    2  N   LIG     1      -3.908  -1.267  -1.486  1.00  0.00    -0.191 NA
HETATM    3  C   LIG     1      -3.069  -1.937  -1.045  1.00  0.00     0.102 C 
HETATM    4  C   LIG     1      -2.064  -2.811  -0.508  1.00  0.00     0.071 A 
HETATM    5  C   LIG     1       0.150  -3.369   0.312  1.00  0.00     0.031 A 
HETATM    6  C   LIG     1      -2.372  -4.185  -0.517  1.00  0.00     0.025 A 
HETATM    7  C   LIG     1      -0.174  -4.728   0.294  1.00  0.00     0.002 A 
HETATM    8  C   LIG     1      -1.436  -5.137  -0.116  1.00  0.00     0.002 A 
ENDROOT
BRANCH   1   9
HETATM    9  N   LIG     1      -0.397  -1.017   0.001  1.00  0.00    -0.331 N 
HETATM   10  C   LIG     1       0.904  -0.546  -0.074  1.00  0.00     0.096 A 
HETATM   11  C   LIG     1       0.904   0.827   0.040  1.00  0.00     0.019 A 
HETATM   12  C   LIG     1      -0.433   1.225   0.219  1.00  0.00     0.019 A 
HETATM   13  C   LIG     1      -1.205   0.084   0.206  1.00  0.00     0.096 A 
ENDBRANCH   1   9
TORSDOF 1
