REMARK  1 active torsions:
REMARK  status: ('A' for Active; 'I' for Inactive)
REMARK    1  A    between atoms: N_1  and  C_4 
ROOT
HETATM    1  C   LIG     1      -0.745  -2.427   0.002  1.00  0.00     0.053 A 
HETATM    2  N   LIG     1      -2.539  -4.062  -0.096  1.00  0.00    -0.373 N 
ATOM      3  HN  LIG     1      -3.535  -4.276  -0.148  1.00  0.00     0.164 HD
HETATM    4  C   LIG     1      -2.089  -2.782  -0.068  1.00  0.00     0.117 A 
HETATM    5  C   LIG     1      -1.609  -5.037  -0.052  1.00  0.00     0.088 A 
HETATM    6  C   LIG     1       0.189  -3.468   0.046  1.00  0.00     0.033 A 
HETATM    7  C   LIG     1      -0.250  -4.792   0.018  1.00  0.00     0.019 A 
ENDROOT
BRANCH   1   8
HETATM    8  N   LIG     1      -0.342  -1.060   0.028  1.00  0.00    -0.332 N 
HETATM    9  C   LIG     1       0.957  -0.585   0.089  1.00  0.00     0.096 A 
HETATM   10  C   LIG     1       0.942   0.793   0.096  1.00  0.00     0.019 A 
HETATM   11  C   LIG     1      -0.405   1.194   0.038  1.00  0.00     0.019 A 
HETATM   12  C   LIG     1      -1.170   0.049  -0.002  1.00  0.00     0.096 A 
ENDBRANCH   1   8
TORSDOF 1
