REMARK  2 active torsions:
REMARK  status: ('A' for Active; 'I' for Inactive)
REMARK    1  A    between atoms: N_1  and  C_8 
REMARK    2  A    between atoms: C_8  and  C_9 
ROOT
HETATM    1  N   LIG     1       1.584  -3.750  -3.343  1.00  0.00    -0.375 N 
ATOM      2  HN  LIG     1       2.492  -4.198  -3.465  1.00  0.00     0.164 HD
HETATM    3  C   LIG     1      -0.030  -2.628  -1.922  1.00  0.00    -0.025 A 
HETATM    4  C   LIG     1       1.202  -3.234  -2.153  1.00  0.00     0.096 A 
HETATM    5  C   LIG     1       0.705  -3.644  -4.361  1.00  0.00     0.087 A 
HETATM    6  C   LIG     1      -0.914  -2.543  -3.002  1.00  0.00     0.011 A 
HETATM    7  C   LIG     1      -0.543  -3.057  -4.241  1.00  0.00     0.018 A 
ENDROOT
BRANCH   3   8
HETATM    8  C   LIG     1      -0.371  -2.060  -0.576  1.00  0.00     0.167 C 
BRANCH   8   9
HETATM    9  N   LIG     1       0.072  -0.677  -0.456  1.00  0.00    -0.362 N 
HETATM   10  C   LIG     1       1.292  -0.273   0.023  1.00  0.00     0.090 A 
HETATM   11  C   LIG     1       1.325   1.103  -0.002  1.00  0.00     0.019 A 
HETATM   12  C   LIG     1       0.076   1.547  -0.496  1.00  0.00     0.019 A 
HETATM   13  C   LIG     1      -0.684   0.428  -0.760  1.00  0.00     0.090 A 
ENDBRANCH   8   9
ENDBRANCH   3   8
TORSDOF 2
