REMARK  4 active torsions:
REMARK  status: ('A' for Active; 'I' for Inactive)
REMARK    1  A    between atoms: C_1  and  C_5 
REMARK    2  A    between atoms: S_3  and  C_5 
REMARK    3  A    between atoms: S_3  and  C_7 
REMARK    4  A    between atoms: C_6  and  C_7 
ROOT
HETATM    1  C   LIG     1       3.407  -2.747  -2.508  1.00  0.00    -0.049 A 
HETATM    2  C   LIG     1       4.775  -2.894  -2.235  1.00  0.00     0.008 A 
HETATM    3  C   LIG     1       2.635  -3.900  -2.724  1.00  0.00     0.008 A 
HETATM    4  C   LIG     1       3.217  -5.167  -2.670  1.00  0.00     0.001 A 
HETATM    5  C   LIG     1       5.357  -4.163  -2.187  1.00  0.00     0.001 A 
HETATM    6  C   LIG     1       4.577  -5.298  -2.400  1.00  0.00     0.000 A 
ENDROOT
BRANCH   1   7
HETATM    7  C   LIG     1       2.784  -1.373  -2.552  1.00  0.00     0.112 C 
BRANCH   7   8
HETATM    8  S   LIG     1       2.008  -0.971  -4.154  1.00  0.00    -0.154 SA
BRANCH   8   9
HETATM    9  C   LIG     1       3.452  -1.134  -5.254  1.00  0.00     0.187 C 
BRANCH   9  10
HETATM   10  C   LIG     1       4.560  -0.167  -4.907  1.00  0.00     0.182 C 
HETATM   11  O   LIG     1       4.469   0.930  -4.388  1.00  0.00    -0.647 OA
HETATM   12  O   LIG     1       5.774  -0.630  -5.281  1.00  0.00    -0.647 OA
ENDBRANCH   9  10
ENDBRANCH   8   9
ENDBRANCH   7   8
ENDBRANCH   1   7
TORSDOF 4
