REMARK  2 active torsions:
REMARK  status: ('A' for Active; 'I' for Inactive)
REMARK    1  A    between atoms: N_1  and  C_8 
REMARK    2  A    between atoms: C_8  and  C_9 
ROOT
HETATM    1  N   LIG     1       0.837  -3.940  -2.003  1.00  0.00    -0.368 N 
ATOM      2  HN  LIG     1       1.284  -4.235  -1.135  1.00  0.00     0.165 HD
HETATM    3  C   LIG     1       0.047  -2.836  -2.048  1.00  0.00     0.027 A 
HETATM    4  C   LIG     1       1.009  -4.633  -3.151  1.00  0.00     0.088 A 
HETATM    5  C   LIG     1      -0.589  -2.427  -3.221  1.00  0.00     0.027 A 
HETATM    6  C   LIG     1       0.421  -4.287  -4.355  1.00  0.00     0.017 A 
HETATM    7  C   LIG     1      -0.394  -3.163  -4.387  1.00  0.00     0.003 A 
ENDROOT
BRANCH   3   8
HETATM    8  C   LIG     1      -0.143  -2.080  -0.757  1.00  0.00     0.184 C 
BRANCH   8   9
HETATM    9  N   LIG     1       0.295  -0.692  -0.857  1.00  0.00    -0.361 N 
HETATM   10  C   LIG     1      -0.513   0.407  -0.708  1.00  0.00     0.091 A 
HETATM   11  C   LIG     1       0.269   1.532  -0.853  1.00  0.00     0.019 A 
HETATM   12  C   LIG     1       1.596   1.099  -1.083  1.00  0.00     0.019 A 
HETATM   13  C   LIG     1       1.587  -0.279  -1.067  1.00  0.00     0.091 A 
ENDBRANCH   8   9
ENDBRANCH   3   8
TORSDOF 2
