REMARK  4 active torsions:
REMARK  status: ('A' for Active; 'I' for Inactive)
REMARK    1  A    between atoms: C_1  and  C_4 
REMARK    2  A    between atoms: C_2  and  O_5 
REMARK    3  A    between atoms: C_3  and  O_6 
REMARK    4  A    between atoms: C_4  and  O_7 
ROOT
HETATM    1  C   LIG     1       1.233   0.060   0.275  1.00  0.00     0.032 A 
HETATM    2  C   LIG     1       0.162  -0.860   0.204  1.00  0.00     0.079 A 
HETATM    3  C   LIG     1       0.958   1.435   0.095  1.00  0.00     0.079 A 
HETATM    4  C   LIG     1      -1.386   0.954  -0.236  1.00  0.00     0.005 A 
HETATM    5  C   LIG     1      -0.346   1.874  -0.153  1.00  0.00     0.037 A 
HETATM    6  C   LIG     1      -1.136  -0.401  -0.056  1.00  0.00     0.037 A 
ENDROOT
BRANCH   1   7
HETATM    7  C   LIG     1       2.626  -0.443   0.614  1.00  0.00     0.208 C 
BRANCH   7   8
HETATM    8  O   LIG     1       3.690   0.313   0.037  1.00  0.00    -0.396 OA
ATOM      9  HO  LIG     1       4.561  -0.002   0.249  1.00  0.00     0.209 HD
ENDBRANCH   7   8
ENDBRANCH   1   7
BRANCH   2  10
HETATM   10  O   LIG     1       0.474  -2.182   0.411  1.00  0.00    -0.355 OA
HETATM   11  C   LIG     1      -0.581  -3.132   0.291  1.00  0.00     0.210 C 
ENDBRANCH   2  10
BRANCH   3  12
HETATM   12  O   LIG     1       2.010   2.308   0.230  1.00  0.00    -0.355 OA
HETATM   13  C   LIG     1       1.957   3.464  -0.605  1.00  0.00     0.210 C 
ENDBRANCH   3  12
TORSDOF 4
