REMARK  1 active torsions:
REMARK  status: ('A' for Active; 'I' for Inactive)
REMARK    1  A    between atoms: C_3  and  S_7 
ROOT
HETATM    1  C   LIG     1      -1.441   0.092  -0.052  1.00  0.00     0.064 A 
HETATM    2  C   LIG     1      -0.725   1.294   0.003  1.00  0.00     0.051 A 
HETATM    3  C   LIG     1      -0.727  -1.126  -0.047  1.00  0.00     0.024 A 
HETATM    4  C   LIG     1       0.675  -1.121  -0.058  1.00  0.00     0.022 A 
HETATM    5  C   LIG     1       0.670   1.288  -0.015  1.00  0.00     0.035 A 
HETATM    6  N   LIG     1      -2.838   0.123   0.106  1.00  0.00    -0.101 NA
HETATM    7  C   LIG     1       1.373   0.087  -0.050  1.00  0.00     0.025 A 
HETATM    8 CL   LIG     1       1.531   2.778   0.024  1.00  0.00    -0.084 Cl
ENDROOT
BRANCH   3   9
HETATM    9  S   LIG     1      -1.577  -2.705  -0.060  1.00  0.00    -0.133 SA
HETATM   10  C   LIG     1      -1.641  -2.960  -1.852  1.00  0.00     0.095 C 
ENDBRANCH   3   9
TORSDOF 1
