REMARK  0 active torsions:
REMARK  status: ('A' for Active; 'I' for Inactive)
ROOT
HETATM    1  N   LIG     1       0.929   0.681  -0.004  1.00  0.00    -0.303 N 
ATOM      2  HN  LIG     1       1.766   1.264  -0.007  1.00  0.00     0.186 HD
HETATM    3  N   LIG     1       0.860  -0.665  -0.003  1.00  0.00    -0.301 N 
HETATM    4  C   LIG     1      -0.426  -1.142   0.003  1.00  0.00     0.026 A 
HETATM    5  C   LIG     1      -1.232  -0.022   0.004  1.00  0.00     0.052 A 
HETATM    6  C   LIG     1      -0.347   1.078   0.000  1.00  0.00     0.024 A 
HETATM    7  C   LIG     1       2.094  -1.413  -0.008  1.00  0.00     0.177 C 
HETATM    8  C   LIG     1      -0.781  -2.580   0.009  1.00  0.00     0.070 C 
HETATM    9  C   LIG     1      -0.683   2.521   0.001  1.00  0.00     0.070 C 
ENDROOT
TORSDOF 0
