REMARK  1 active torsions:
REMARK  status: ('A' for Active; 'I' for Inactive)
REMARK    1  A    between atoms: N_3  and  C_5 
ROOT
HETATM    1  N   LIG     1       1.168   0.429   0.706  1.00  0.00    -0.195 NA
HETATM    2  C   LIG     1       2.255   0.270   0.363  1.00  0.00     0.089 C 
HETATM    3  C   LIG     1       3.619   0.070  -0.068  1.00  0.00     0.395 C 
ENDROOT
BRANCH   3   4
HETATM    4  N   LIG     1       4.336  -1.006   0.653  1.00  0.00     0.102 N 
HETATM    5  C   LIG     1       5.781  -1.005   0.355  1.00  0.00     0.283 C 
HETATM    6  C   LIG     1       6.187  -1.406  -1.070  1.00  0.00     0.104 C 
HETATM    7  S   LIG     1       5.621  -3.076  -1.517  1.00  0.00    -0.166 SA
HETATM    8  C   LIG     1       3.889  -2.933  -0.975  1.00  0.00     0.104 C 
HETATM    9  C   LIG     1       3.761  -2.349   0.439  1.00  0.00     0.283 C 
ENDBRANCH   3   4
TORSDOF 1
