REMARK  2 active torsions:
REMARK  status: ('A' for Active; 'I' for Inactive)
REMARK    1  A    between atoms: C_2  and  N_7 
REMARK    2  A    between atoms: C_3  and  N_6 
ROOT
HETATM    1  C   LIG     1       2.017  -1.191   0.316  1.00  0.00     0.092 A 
HETATM    2  C   LIG     1       0.770  -1.874   0.183  1.00  0.00     0.033 A 
HETATM    3  C   LIG     1       2.090   0.233   0.347  1.00  0.00     0.052 A 
HETATM    4  C   LIG     1       3.225  -1.965   0.418  1.00  0.00     0.103 C 
HETATM    5  N   LIG     1       4.205  -2.594   0.492  1.00  0.00    -0.191 NA
HETATM    6  C   LIG     1      -0.393  -1.095   0.062  1.00  0.00     0.025 A 
HETATM    7  C   LIG     1       0.883   0.945   0.217  1.00  0.00     0.031 A 
HETATM    8  C   LIG     1      -0.339   0.295   0.073  1.00  0.00     0.004 A 
ENDROOT
BRANCH   2   9
HETATM    9  N   LIG     1       0.691  -3.289   0.188  1.00  0.00    -0.290 NA
HETATM   10  C   LIG     1      -0.401  -3.903  -0.571  1.00  0.00     0.116 C 
HETATM   11  C   LIG     1       0.884  -3.863   1.529  1.00  0.00     0.116 C 
ENDBRANCH   2   9
BRANCH   3  12
HETATM   12  N   LIG     1       3.317   0.920   0.520  1.00  0.00    -0.388 N 
HETATM   13  C   LIG     1       3.269   2.225   1.183  1.00  0.00     0.149 C 
HETATM   14  C   LIG     1       4.199   0.874  -0.654  1.00  0.00     0.149 C 
ENDBRANCH   3  12
TORSDOF 2
