REMARK  0 active torsions:
REMARK  status: ('A' for Active; 'I' for Inactive)
ROOT
HETATM    1  C   LIG     1      -1.424  -0.023  -0.047  1.00  0.00     0.251 A 
HETATM    2  C   LIG     1      -0.602  -1.276  -0.072  1.00  0.00     0.006 A 
HETATM    3  N   LIG     1      -0.719   1.158   0.000  1.00  0.00    -0.333 N 
ATOM      4  HN  LIG     1      -1.249   2.029   0.016  1.00  0.00     0.168 HD
HETATM    5  C   LIG     1       0.739  -1.164  -0.034  1.00  0.00     0.013 A 
HETATM    6  C   LIG     1       0.648   1.240   0.027  1.00  0.00     0.091 A 
HETATM    7  O   LIG     1      -2.649  -0.038  -0.070  1.00  0.00    -0.268 OA
HETATM    8  C   LIG     1       1.387   0.125   0.014  1.00  0.00     0.018 A 
HETATM    9  C   LIG     1      -1.304  -2.592  -0.153  1.00  0.00     0.054 C 
ENDROOT
TORSDOF 0
