REMARK  4 active torsions:
REMARK  status: ('A' for Active; 'I' for Inactive)
REMARK    1  A    between atoms: C_3  and  C_6 
REMARK    2  A    between atoms: C_6  and  C_8 
REMARK    3  A    between atoms: C_8  and  O_10 
REMARK    4  A    between atoms: O_10  and  C_12 
ROOT
HETATM    1  N   LIG     1       0.270  -0.137   1.239  1.00  0.00    -0.357 N 
ATOM      2  HN  LIG     1       0.667  -0.667   2.015  1.00  0.00     0.166 HD
HETATM    3  C   LIG     1      -0.528  -0.672   0.238  1.00  0.00     0.025 A 
HETATM    4  C   LIG     1       0.441   1.153   1.043  1.00  0.00     0.047 A 
HETATM    5  S   LIG     1      -0.351   1.803  -0.335  1.00  0.00    -0.087 SA
HETATM    6  C   LIG     1      -0.970   0.249  -0.695  1.00  0.00     0.077 A 
HETATM    7  C   LIG     1       1.249   2.037   1.924  1.00  0.00     0.076 C 
ENDROOT
BRANCH   3   8
HETATM    8  C   LIG     1      -0.838  -2.132   0.281  1.00  0.00     0.168 C 
BRANCH   8   9
HETATM    9  C   LIG     1      -0.321  -2.862  -0.937  1.00  0.00     0.264 C 
HETATM   10  O   LIG     1      -0.222  -2.391  -2.062  1.00  0.00    -0.265 OA
BRANCH   9  11
HETATM   11  O   LIG     1      -0.059  -4.164  -0.619  1.00  0.00    -0.322 OA
BRANCH  11  12
HETATM   12  C   LIG     1       0.410  -4.982  -1.701  1.00  0.00     0.174 C 
HETATM   13  C   LIG     1      -0.761  -5.472  -2.534  1.00  0.00     0.034 C 
ENDBRANCH  11  12
ENDBRANCH   9  11
ENDBRANCH   8   9
ENDBRANCH   3   8
TORSDOF 4
