REMARK  1 active torsions:
REMARK  status: ('A' for Active; 'I' for Inactive)
REMARK    1  A    between atoms: C_1  and  C_7 
ROOT
HETATM    1  C   LIG     1      -0.092  -1.256  -0.026  1.00  0.00     0.074 A 
HETATM    2  N   LIG     1       1.022   0.802   0.082  1.00  0.00    -0.357 N 
ATOM      3  HN  LIG     1       1.816   1.440   0.135  1.00  0.00     0.166 HD
HETATM    4  C   LIG     1       1.123  -0.584   0.050  1.00  0.00     0.026 A 
HETATM    5  S   LIG     1      -1.372  -0.097  -0.051  1.00  0.00    -0.072 SA
HETATM    6  C   LIG     1      -0.235   1.176   0.034  1.00  0.00     0.048 A 
HETATM    7  C   LIG     1       2.502  -1.140   0.106  1.00  0.00     0.070 C 
HETATM    8  C   LIG     1      -0.694   2.591   0.050  1.00  0.00     0.076 C 
ENDROOT
BRANCH   1   9
HETATM    9  C   LIG     1      -0.446  -2.668  -0.085  1.00  0.00     0.164 C 
HETATM   10  O   LIG     1      -1.609  -3.078  -0.109  1.00  0.00    -0.292 OA
HETATM   11  C   LIG     1       0.667  -3.686  -0.117  1.00  0.00     0.097 C 
ENDBRANCH   1   9
TORSDOF 1
