REMARK  1 active torsions:
REMARK  status: ('A' for Active; 'I' for Inactive)
REMARK    1  A    between atoms: C_3  and  C_7 
ROOT
HETATM    1  N   LIG     1      -1.388   0.108   0.566  1.00  0.00    -0.357 N 
ATOM      2  HN  LIG     1      -2.310   0.376   0.912  1.00  0.00     0.166 HD
HETATM    3  C   LIG     1      -0.452   0.993   0.044  1.00  0.00     0.024 A 
HETATM    4  C   LIG     1      -0.922  -1.122   0.553  1.00  0.00     0.047 A 
HETATM    5  S   LIG     1       0.667  -1.300  -0.067  1.00  0.00    -0.087 SA
HETATM    6  C   LIG     1       0.734   0.389  -0.341  1.00  0.00     0.077 A 
HETATM    7  C   LIG     1      -1.675  -2.305   1.051  1.00  0.00     0.076 C 
ENDROOT
BRANCH   3   8
HETATM    8  C   LIG     1      -0.786   2.477  -0.005  1.00  0.00    -0.008 C 
HETATM    9  C   LIG     1      -0.167   3.182   1.217  1.00  0.00     0.021 C 
HETATM   10  C   LIG     1      -0.239   3.131  -1.290  1.00  0.00     0.021 C 
HETATM   11  C   LIG     1      -2.313   2.704   0.020  1.00  0.00     0.021 C 
ENDBRANCH   3   8
TORSDOF 1
