REMARK  2 active torsions:
REMARK  status: ('A' for Active; 'I' for Inactive)
REMARK    1  A    between atoms: S_1  and  C_2 
REMARK    2  A    between atoms: S_1  and  N_8 
ROOT
HETATM    1  C   LIG     1       0.411  -1.143   1.234  1.00  0.00     0.117 A 
HETATM    2  C   LIG     1      -0.459  -0.772   2.255  1.00  0.00     0.142 A 
HETATM    3  C   LIG     1       0.865  -2.463   1.136  1.00  0.00     0.031 A 
HETATM    4  C   LIG     1      -0.889  -1.708   3.190  1.00  0.00     0.086 A 
HETATM    5  C   LIG     1      -0.437  -3.017   3.090  1.00  0.00     0.119 A 
HETATM    6  F   LIG     1      -0.900   0.488   2.360  1.00  0.00    -0.204 F 
HETATM    7  C   LIG     1       0.434  -3.404   2.074  1.00  0.00     0.044 A 
HETATM    8  F   LIG     1      -0.846  -3.925   3.986  1.00  0.00    -0.206 F 
ENDROOT
BRANCH   1   9
HETATM    9  S   LIG     1       0.901   0.102   0.100  1.00  0.00     0.259 S 
HETATM   10  O   LIG     1       1.742   1.054   0.786  1.00  0.00    -0.201 OA
HETATM   11  O   LIG     1      -0.238   0.477  -0.703  1.00  0.00    -0.201 OA
BRANCH   9  12
HETATM   12  N   LIG     1       1.937  -0.685  -0.973  1.00  0.00    -0.324 N 
ATOM     13  HN2 LIG     1       2.209  -1.668  -0.954  1.00  0.00     0.169 HD
ATOM     14  HN1 LIG     1       2.222   0.039  -1.632  1.00  0.00     0.169 HD
ENDBRANCH   9  12
ENDBRANCH   1   9
TORSDOF 2
