REMARK  2 active torsions:
REMARK  status: ('A' for Active; 'I' for Inactive)
REMARK    1  A    between atoms: S_1  and  C_2 
REMARK    2  A    between atoms: S_1  and  N_6 
ROOT
HETATM    1  C   LIG     1      -0.112  -1.329   0.439  1.00  0.00     0.130 A 
HETATM    2  N   LIG     1      -2.137  -0.689  -0.348  1.00  0.00    -0.264 N 
ATOM      3  HN  LIG     1      -3.080  -0.304  -0.411  1.00  0.00     0.194 HD
HETATM    4  C   LIG     1      -0.170  -1.615  -0.902  1.00  0.00     0.097 A 
HETATM    5  C   LIG     1      -1.377  -0.789   0.752  1.00  0.00     0.054 A 
HETATM    6  O   LIG     1      -1.380  -1.215  -1.381  1.00  0.00    -0.241 OA
HETATM    7  C   LIG     1       0.747  -2.236  -1.876  1.00  0.00     0.081 C 
HETATM    8  C   LIG     1      -1.919  -0.353   2.060  1.00  0.00     0.072 C 
ENDROOT
BRANCH   1   9
HETATM    9  S   LIG     1       1.169  -1.626   1.518  1.00  0.00     0.248 S 
HETATM   10  O   LIG     1       2.369  -1.570   0.711  1.00  0.00    -0.206 OA
HETATM   11  O   LIG     1       0.767  -2.832   2.203  1.00  0.00    -0.206 OA
BRANCH   9  12
HETATM   12  N   LIG     1       1.237  -0.374   2.651  1.00  0.00    -0.206 NA
HETATM   13  C   LIG     1       1.623   0.980   2.168  1.00  0.00     0.107 C 
HETATM   14  C   LIG     1       2.661   1.484   3.166  1.00  0.00     0.017 C 
HETATM   15  C   LIG     1       2.347   0.706   4.428  1.00  0.00     0.017 C 
HETATM   16  C   LIG     1       2.013  -0.670   3.879  1.00  0.00     0.107 C 
ENDBRANCH   9  12
ENDBRANCH   1   9
TORSDOF 2
