REMARK  3 active torsions:
REMARK  status: ('A' for Active; 'I' for Inactive)
REMARK    1  A    between atoms: C_1  and  S_4 
REMARK    2  A    between atoms: C_2  and  O_5 
REMARK    3  A    between atoms: C_3  and  O_6 
ROOT
HETATM    1  C   LIG     1       0.944  -0.885   0.521  1.00  0.00     0.067 A 
HETATM    2  C   LIG     1      -0.387  -1.335   0.358  1.00  0.00     0.087 A 
HETATM    3  C   LIG     1       1.272   0.459   0.223  1.00  0.00     0.087 A 
HETATM    4  C   LIG     1      -1.038   0.887  -0.366  1.00  0.00     0.006 A 
HETATM    5  C   LIG     1      -1.367  -0.441  -0.089  1.00  0.00     0.038 A 
HETATM    6  C   LIG     1       0.268   1.334  -0.206  1.00  0.00     0.038 A 
ENDROOT
BRANCH   1   7
HETATM    7  S   LIG     1       2.236  -2.031   1.055  1.00  0.00    -0.129 SA
HETATM    8  C   LIG     1       2.066  -1.809   2.843  1.00  0.00     0.096 C 
ENDBRANCH   1   7
BRANCH   2   9
HETATM    9  O   LIG     1      -0.645  -2.650   0.666  1.00  0.00    -0.354 OA
HETATM   10  C   LIG     1      -1.972  -3.125   0.483  1.00  0.00     0.210 C 
ENDBRANCH   2   9
BRANCH   3  11
HETATM   11  O   LIG     1       2.564   0.870   0.443  1.00  0.00    -0.354 OA
HETATM   12  C   LIG     1       3.053   1.888  -0.425  1.00  0.00     0.210 C 
ENDBRANCH   3  11
TORSDOF 3
