REMARK  1 active torsions:
REMARK  status: ('A' for Active; 'I' for Inactive)
REMARK    1  A    between atoms: N_4  and  O_6 
ROOT
HETATM    1  C   LIG     1      -1.547   0.656   0.146  1.00  0.00     0.097 C 
HETATM    2  N   LIG     1      -1.576  -0.700  -0.131  1.00  0.00    -0.378 N 
ATOM      3  HN  LIG     1      -1.264  -1.406   0.536  1.00  0.00     0.160 HD
HETATM    4  N   LIG     1      -2.586   1.232   0.682  1.00  0.00    -0.257 N 
ATOM      5  HN  LIG     1      -3.435   0.734   0.948  1.00  0.00     0.195 HD
HETATM    6  C   LIG     1      -0.292   1.387  -0.303  1.00  0.00     0.078 C 
HETATM    7  C   LIG     1      -2.089  -1.038  -1.454  1.00  0.00     0.121 C 
HETATM    8  C   LIG     1      -0.981  -1.051  -2.509  1.00  0.00     0.020 C 
HETATM    9  C   LIG     1      -0.191   1.348  -1.833  1.00  0.00     0.007 C 
HETATM   10  C   LIG     1       0.168  -0.039  -2.375  1.00  0.00     0.002 C 
ENDROOT
BRANCH   4  11
HETATM   11  O   LIG     1      -2.408   2.607   0.852  1.00  0.00    -0.288 OA
ATOM     12  HO  LIG     1      -3.165   3.027   1.243  1.00  0.00     0.244 HD
ENDBRANCH   4  11
TORSDOF 1
