REMARK  1 active torsions:
REMARK  status: ('A' for Active; 'I' for Inactive)
REMARK    1  A    between atoms: C_3  and  N_7 
ROOT
HETATM    1  N   LIG     1      -0.313  -1.025   0.009  1.00  0.00    -0.301 N 
ATOM      2  HN  LIG     1      -0.585  -2.008   0.016  1.00  0.00     0.187 HD
HETATM    3  C   LIG     1      -0.356   1.246  -0.005  1.00  0.00     0.073 A 
HETATM    4  N   LIG     1       0.932  -0.509   0.005  1.00  0.00    -0.299 N 
HETATM    5  C   LIG     1       0.963   0.865  -0.003  1.00  0.00     0.052 A 
HETATM    6  C   LIG     1      -1.111   0.051   0.002  1.00  0.00     0.050 A 
HETATM    7  C   LIG     1       2.207   1.673  -0.008  1.00  0.00     0.072 C 
HETATM    8  C   LIG     1       2.060  -1.411   0.011  1.00  0.00     0.177 C 
HETATM    9  C   LIG     1      -2.584  -0.108   0.002  1.00  0.00     0.072 C 
ENDROOT
BRANCH   3  10
HETATM   10  N   LIG     1      -0.801   2.510  -0.012  1.00  0.00    -0.396 N 
ATOM     11  HN2 LIG     1      -1.781   2.793  -0.013  1.00  0.00     0.156 HD
ATOM     12  HN1 LIG     1      -0.256   3.372  -0.017  1.00  0.00     0.156 HD
ENDBRANCH   3  10
TORSDOF 1
