REMARK  2 active torsions:
REMARK  status: ('A' for Active; 'I' for Inactive)
REMARK    1  A    between atoms: C_3  and  C_6 
REMARK    2  A    between atoms: C_6  and  C_8 
ROOT
HETATM    1  N   LIG     1       0.922  -0.508   0.007  1.00  0.00    -0.357 N 
ATOM      2  HN  LIG     1       1.703  -1.164   0.006  1.00  0.00     0.166 HD
HETATM    3  C   LIG     1      -0.419  -0.870  -0.013  1.00  0.00     0.026 A 
HETATM    4  C   LIG     1       1.039   0.802   0.028  1.00  0.00     0.047 A 
HETATM    5  S   LIG     1      -0.440   1.676   0.055  1.00  0.00    -0.087 SA
HETATM    6  C   LIG     1      -1.299   0.196   0.029  1.00  0.00     0.077 A 
HETATM    7  C   LIG     1       2.334   1.533   0.030  1.00  0.00     0.076 C 
ENDROOT
BRANCH   3   8
HETATM    8  C   LIG     1      -0.766  -2.323  -0.033  1.00  0.00     0.170 C 
BRANCH   8   9
HETATM    9  C   LIG     1      -1.599  -2.714  -1.227  1.00  0.00     0.178 C 
HETATM   10  O   LIG     1      -2.047  -2.001  -2.110  1.00  0.00    -0.648 OA
HETATM   11  O   LIG     1      -1.875  -4.038  -1.238  1.00  0.00    -0.648 OA
ENDBRANCH   8   9
ENDBRANCH   3   8
TORSDOF 2
