REMARK  3 active torsions:
REMARK  status: ('A' for Active; 'I' for Inactive)
REMARK    1  A    between atoms: C_3  and  C_9 
REMARK    2  A    between atoms: C_9  and  O_11 
REMARK    3  A    between atoms: O_11  and  C_12 
ROOT
HETATM    1  N   LIG     1      -7.616   2.127   1.817  1.00  0.00    -0.191 NA
HETATM    2  C   LIG     1      -6.457   2.140   1.741  1.00  0.00     0.099 C 
HETATM    3  C   LIG     1      -5.032   2.151   1.613  1.00  0.00     0.044 A 
HETATM    4  C   LIG     1      -2.237   2.140   1.320  1.00  0.00     0.069 A 
HETATM    5  C   LIG     1      -4.457   2.093   0.343  1.00  0.00     0.025 A 
HETATM    6  C   LIG     1      -4.207   2.212   2.742  1.00  0.00     0.025 A 
HETATM    7  C   LIG     1      -3.068   2.084   0.199  1.00  0.00     0.038 A 
HETATM    8  C   LIG     1      -2.815   2.210   2.592  1.00  0.00     0.038 A 
ENDROOT
BRANCH   4   9
HETATM    9  O   LIG     1      -0.866   2.132   1.290  1.00  0.00    -0.345 OA
BRANCH   9  10
HETATM   10  C   LIG     1      -0.278   2.022  -0.015  1.00  0.00     0.233 C 
BRANCH  10  11
HETATM   11  C   LIG     1       1.218   2.020   0.007  1.00  0.00     0.041 A 
HETATM   12  N   LIG     1       1.887   1.414  -1.052  1.00  0.00    -0.355 N 
HETATM   13  C   LIG     1       3.187   1.537  -0.900  1.00  0.00     0.047 A 
ATOM     14  HN  LIG     1       1.434   0.942  -1.834  1.00  0.00     0.166 HD
HETATM   15  S   LIG     1       3.686   2.399   0.500  1.00  0.00    -0.087 SA
HETATM   16  C   LIG     1       4.198   0.975  -1.836  1.00  0.00     0.076 C 
HETATM   17  C   LIG     1       2.045   2.604   0.946  1.00  0.00     0.078 A 
ENDBRANCH  10  11
ENDBRANCH   9  10
ENDBRANCH   4   9
TORSDOF 3
