REMARK  2 active torsions:
REMARK  status: ('A' for Active; 'I' for Inactive)
REMARK    1  A    between atoms: N_4  and  C_11 
REMARK    2  A    between atoms: C_8  and  C_11 
ROOT
HETATM    1  S   LIG     1       0.319   1.254  -2.273  1.00  0.00     0.147 S 
HETATM    2  C   LIG     1       1.509   0.135  -1.585  1.00  0.00     0.170 C 
HETATM    3  C   LIG     1      -0.938   1.320  -1.024  1.00  0.00     0.170 C 
HETATM    4  N   LIG     1      -0.198  -0.893  -0.038  1.00  0.00     0.095 N 
HETATM    5  O   LIG     1       0.935   2.565  -2.347  1.00  0.00    -0.228 OA
HETATM    6  O   LIG     1      -0.252   0.644  -3.460  1.00  0.00    -0.228 OA
HETATM    7  C   LIG     1      -1.312  -0.077  -0.552  1.00  0.00     0.287 C 
HETATM    8  C   LIG     1       0.818  -1.117  -1.081  1.00  0.00     0.287 C 
ENDROOT
BRANCH   4   9
HETATM    9  C   LIG     1       0.319  -0.385   1.248  1.00  0.00     0.318 C 
BRANCH   9  10
HETATM   10  C   LIG     1       1.419  -1.232   1.829  1.00  0.00     0.010 A 
HETATM   11  S   LIG     1       2.976  -0.555   2.085  1.00  0.00    -0.105 SA
HETATM   12  C   LIG     1       3.598  -2.038   2.659  1.00  0.00     0.050 A 
HETATM   13  C   LIG     1       2.638  -3.024   2.689  1.00  0.00     0.008 A 
HETATM   14  C   LIG     1       1.376  -2.557   2.220  1.00  0.00     0.017 A 
ENDBRANCH   9  10
ENDBRANCH   4   9
TORSDOF 2
