REMARK  2 active torsions:
REMARK  status: ('A' for Active; 'I' for Inactive)
REMARK    1  A    between atoms: N_4  and  C_9 
REMARK    2  A    between atoms: C_9  and  C_10 
ROOT
HETATM    1  S   LIG     1       0.281   1.018  -2.679  1.00  0.00     0.147 S 
HETATM    2  C   LIG     1       1.534   0.063  -1.867  1.00  0.00     0.170 C 
HETATM    3  C   LIG     1      -0.949   1.219  -1.416  1.00  0.00     0.170 C 
HETATM    4  N   LIG     1      -0.094  -0.794  -0.143  1.00  0.00     0.094 N 
HETATM    5  O   LIG     1       0.840   2.328  -2.959  1.00  0.00    -0.228 OA
HETATM    6  O   LIG     1      -0.288   0.219  -3.747  1.00  0.00    -0.228 OA
HETATM    7  C   LIG     1      -1.254  -0.108  -0.738  1.00  0.00     0.287 C 
HETATM    8  C   LIG     1       0.911  -1.128  -1.166  1.00  0.00     0.287 C 
ENDROOT
BRANCH   4   9
HETATM    9  C   LIG     1       0.424  -0.090   1.044  1.00  0.00     0.311 C 
BRANCH   9  10
HETATM   10  C   LIG     1       1.597  -0.771   1.715  1.00  0.00    -0.030 A 
HETATM   11  C   LIG     1       2.827  -0.104   1.836  1.00  0.00     0.009 A 
HETATM   12  C   LIG     1       3.919  -0.733   2.435  1.00  0.00     0.001 A 
HETATM   13  C   LIG     1       3.793  -2.032   2.924  1.00  0.00     0.000 A 
HETATM   14  C   LIG     1       2.575  -2.701   2.819  1.00  0.00     0.001 A 
HETATM   15  C   LIG     1       1.481  -2.074   2.221  1.00  0.00     0.009 A 
ENDBRANCH   9  10
ENDBRANCH   4   9
TORSDOF 2
