REMARK  2 active torsions:
REMARK  status: ('A' for Active; 'I' for Inactive)
REMARK    1  A    between atoms: C_3  and  O_10 
REMARK    2  A    between atoms: C_8  and  O_11 
ROOT
HETATM    1  C   LIG     1      -0.510  -1.232  -0.083  1.00  0.00     0.080 A 
HETATM    2  C   LIG     1      -0.520   1.182  -0.009  1.00  0.00     0.065 A 
HETATM    3  C   LIG     1      -1.226  -0.024  -0.051  1.00  0.00     0.090 A 
HETATM    4  N   LIG     1      -1.691  -3.544  -0.117  1.00  0.00    -0.191 NA
HETATM    5  C   LIG     1      -1.189  -2.498  -0.101  1.00  0.00     0.102 C 
HETATM    6  C   LIG     1       0.880   1.181  -0.009  1.00  0.00     0.070 A 
HETATM    7  C   LIG     1       0.896  -1.226  -0.089  1.00  0.00     0.064 A 
HETATM    8  C   LIG     1       1.599  -0.020  -0.066  1.00  0.00     0.091 A 
HETATM    9 CL   LIG     1       1.689   2.710   0.044  1.00  0.00    -0.081 Cl
ENDROOT
BRANCH   3  10
HETATM   10  O   LIG     1      -2.592  -0.125  -0.056  1.00  0.00    -0.354 OA
HETATM   11  C   LIG     1      -3.347   1.080  -0.078  1.00  0.00     0.210 C 
ENDBRANCH   3  10
BRANCH   8  12
HETATM   12  O   LIG     1       2.967   0.057  -0.038  1.00  0.00    -0.354 OA
HETATM   13  C   LIG     1       3.668  -0.980  -0.717  1.00  0.00     0.210 C 
ENDBRANCH   8  12
TORSDOF 2
