REMARK  3 active torsions:
REMARK  status: ('A' for Active; 'I' for Inactive)
REMARK    1  A    between atoms: C_1  and  C_2 
REMARK    2  A    between atoms: C_2  and  C_5 
REMARK    3  A    between atoms: C_3  and  C_4 
ROOT
HETATM    1  C   LIG     1      -0.230  -0.912  -0.731  1.00  0.00     0.032 A 
HETATM    2  C   LIG     1       0.972  -1.633  -0.753  1.00  0.00     0.054 A 
HETATM    3  C   LIG     1      -0.241   0.356  -0.119  1.00  0.00     0.016 A 
HETATM    4  C   LIG     1       2.160  -1.034  -0.293  1.00  0.00     0.019 A 
HETATM    5  C   LIG     1       0.933   0.923   0.386  1.00  0.00     0.001 A 
HETATM    6  C   LIG     1       2.140   0.241   0.271  1.00  0.00     0.001 A 
ENDROOT
BRANCH   1   7
HETATM    7  C   LIG     1      -1.524  -1.376  -1.306  1.00  0.00     0.193 C 
HETATM    8  O   LIG     1      -2.555  -1.129  -0.680  1.00  0.00    -0.287 OA
BRANCH   7   9
HETATM    9  C   LIG     1      -1.647  -2.033  -2.644  1.00  0.00     0.015 A 
HETATM   10  C   LIG     1      -2.818  -2.761  -2.925  1.00  0.00     0.018 A 
HETATM   11  C   LIG     1      -3.003  -3.359  -4.176  1.00  0.00     0.043 A 
HETATM   12  C   LIG     1      -2.013  -3.239  -5.141  1.00  0.00     0.116 A 
HETATM   13  C   LIG     1      -0.850  -2.522  -4.884  1.00  0.00     0.043 A 
HETATM   14  F   LIG     1      -2.184  -3.812  -6.340  1.00  0.00    -0.206 F 
HETATM   15  C   LIG     1      -0.672  -1.902  -3.642  1.00  0.00     0.018 A 
ENDBRANCH   7   9
ENDBRANCH   1   7
BRANCH   2  16
HETATM   16  C   LIG     1       1.088  -3.041  -1.180  1.00  0.00     0.210 C 
HETATM   17  O   LIG     1       2.059  -3.543  -1.706  1.00  0.00    -0.644 OA
HETATM   18  O   LIG     1       0.016  -3.763  -0.821  1.00  0.00    -0.644 OA
ENDBRANCH   2  16
TORSDOF 3
