REMARK  1 active torsions:
REMARK  status: ('A' for Active; 'I' for Inactive)
REMARK    1  A    between atoms: C_1  and  C_6 
ROOT
HETATM    1  C   LIG     1      -2.347  -0.122   0.007  1.00  0.00     0.191 A 
HETATM    2  N   LIG     1      -1.561  -1.188   0.006  1.00  0.00    -0.337 N 
ATOM      3  HN  LIG     1      -1.851  -2.166   0.008  1.00  0.00     0.167 HD
HETATM    4  N   LIG     1      -1.593   1.029   0.004  1.00  0.00    -0.337 N 
ATOM      5  HN  LIG     1      -1.960   1.981   0.003  1.00  0.00     0.167 HD
HETATM    6  C   LIG     1      -0.276  -0.707   0.002  1.00  0.00     0.060 A 
HETATM    7  C   LIG     1      -0.267   0.683   0.002  1.00  0.00     0.060 A 
HETATM    8  C   LIG     1       0.943  -1.400  -0.000  1.00  0.00     0.032 A 
HETATM    9  C   LIG     1       0.904   1.443  -0.001  1.00  0.00     0.032 A 
HETATM   10  C   LIG     1       2.111   0.734  -0.003  1.00  0.00     0.002 A 
HETATM   11  C   LIG     1       2.134  -0.663  -0.003  1.00  0.00     0.002 A 
ENDROOT
BRANCH   1  12
HETATM   12  C   LIG     1      -3.835  -0.044   0.013  1.00  0.00     0.449 C 
HETATM   13  F   LIG     1      -4.448  -1.253  -0.010  1.00  0.00    -0.163 F 
HETATM   14  F   LIG     1      -4.289   0.614   1.113  1.00  0.00    -0.163 F 
HETATM   15  F   LIG     1      -4.294   0.657  -1.059  1.00  0.00    -0.163 F 
ENDBRANCH   1  12
TORSDOF 1
