REMARK  1 active torsions:
REMARK  status: ('A' for Active; 'I' for Inactive)
REMARK    1  A    between atoms: C_1  and  N_2 
ROOT
HETATM    1  C   LIG     1      -1.010  -1.144  -0.199  1.00  0.00     0.052 A 
HETATM    2  C   LIG     1      -1.794  -0.033  -0.567  1.00  0.00     0.062 A 
HETATM    3  C   LIG     1      -1.410   1.273  -0.215  1.00  0.00     0.052 A 
HETATM    4  C   LIG     1       0.140  -0.871   0.568  1.00  0.00     0.033 A 
HETATM    5  C   LIG     1      -0.227   1.520   0.480  1.00  0.00     0.048 A 
HETATM    6 CL   LIG     1      -3.313  -0.159  -1.390  1.00  0.00    -0.082 Cl
HETATM    7  C   LIG     1       0.515   0.430   0.919  1.00  0.00     0.029 A 
HETATM    8  N   LIG     1       0.076   2.810   0.930  1.00  0.00    -0.102 NA
ENDROOT
BRANCH   1   9
HETATM    9  N   LIG     1      -1.243  -2.493  -0.487  1.00  0.00    -0.375 N 
HETATM   10  C   LIG     1      -1.826  -3.261   0.634  1.00  0.00     0.149 C 
HETATM   11  C   LIG     1      -1.641  -4.766   0.364  1.00  0.00     0.187 C 
HETATM   12  O   LIG     1      -2.193  -5.160  -0.904  1.00  0.00    -0.388 OA
HETATM   13  C   LIG     1      -1.584  -4.409  -1.972  1.00  0.00     0.187 C 
HETATM   14  C   LIG     1      -1.813  -2.898  -1.784  1.00  0.00     0.149 C 
ENDBRANCH   1   9
TORSDOF 1
