REMARK  0 active torsions:
REMARK  status: ('A' for Active; 'I' for Inactive)
ROOT
HETATM    1  C   LIG     1      -1.420   0.705  -0.152  1.00  0.00     0.167 C 
HETATM    2  N   LIG     1      -0.303   1.456  -0.105  1.00  0.00    -0.367 N 
ATOM      3  HN  LIG     1      -0.348   2.361  -0.572  1.00  0.00     0.161 HD
HETATM    4  N   LIG     1      -1.390  -0.606   0.156  1.00  0.00    -0.367 N 
ATOM      5  HN  LIG     1      -2.296  -1.074   0.155  1.00  0.00     0.161 HD
HETATM    6  S   LIG     1      -2.858   1.402  -0.622  1.00  0.00    -0.041 SA
HETATM    7  C   LIG     1       0.951   1.127   0.531  1.00  0.00     0.122 C 
HETATM    8  C   LIG     1      -0.258  -1.450   0.489  1.00  0.00     0.122 C 
HETATM    9  C   LIG     1       1.720   0.022  -0.181  1.00  0.00     0.021 C 
HETATM   10  C   LIG     1       0.920  -1.253  -0.454  1.00  0.00     0.021 C 
ENDROOT
TORSDOF 0
