REMARK  1 active torsions:
REMARK  status: ('A' for Active; 'I' for Inactive)
REMARK    1  A    between atoms: C_1  and  C_6 
ROOT
HETATM    1  C   LIG     1      -2.308  -0.081   0.019  1.00  0.00     0.118 A 
HETATM    2  N   LIG     1      -1.557  -1.165   0.121  1.00  0.00    -0.340 N 
ATOM      3  HN  LIG     1      -1.879  -2.129   0.202  1.00  0.00     0.167 HD
HETATM    4  N   LIG     1      -1.508   1.038  -0.057  1.00  0.00    -0.340 N 
ATOM      5  HN  LIG     1      -1.841   1.999  -0.133  1.00  0.00     0.167 HD
HETATM    6  C   LIG     1      -0.255  -0.728   0.096  1.00  0.00     0.060 A 
HETATM    7  C   LIG     1      -0.196   0.655  -0.015  1.00  0.00     0.060 A 
HETATM    8  C   LIG     1       0.939  -1.461   0.166  1.00  0.00     0.032 A 
HETATM    9  C   LIG     1       1.000   1.373  -0.062  1.00  0.00     0.032 A 
HETATM   10  C   LIG     1       2.182   0.625   0.009  1.00  0.00     0.002 A 
HETATM   11  C   LIG     1       2.156  -0.767   0.120  1.00  0.00     0.002 A 
ENDROOT
BRANCH   1  12
HETATM   12  C   LIG     1      -3.776  -0.019   0.016  1.00  0.00     0.032 A 
HETATM   13  C   LIG     1      -4.496   1.151  -0.319  1.00  0.00     0.060 A 
HETATM   14  N   LIG     1      -3.848   2.289  -0.881  1.00  0.00    -0.101 NA
HETATM   15  C   LIG     1      -5.900   1.114  -0.330  1.00  0.00     0.027 A 
HETATM   16  C   LIG     1      -6.589  -0.036   0.057  1.00  0.00     0.002 A 
HETATM   17  C   LIG     1      -5.885  -1.178   0.423  1.00  0.00     0.001 A 
HETATM   18  C   LIG     1      -4.490  -1.170   0.395  1.00  0.00     0.017 A 
ENDBRANCH   1  12
TORSDOF 1
