REMARK  4 active torsions:
REMARK  status: ('A' for Active; 'I' for Inactive)
REMARK    1  A    between atoms: C_1  and  C_6 
REMARK    2  A    between atoms: C_2  and  N_7 
REMARK    3  A    between atoms: C_6  and  O_11 
REMARK    4  A    between atoms: O_11  and  C_14 
ROOT
HETATM    1  C   LIG     1       1.906   0.585  -0.006  1.00  0.00     0.080 A 
HETATM    2  C   LIG     1       2.509  -0.663   0.096  1.00  0.00     0.085 A 
HETATM    3  S   LIG     1       1.369  -1.933   0.199  1.00  0.00    -0.076 SA
HETATM    4  C   LIG     1       0.460   0.462   0.048  1.00  0.00    -0.026 A 
HETATM    5  C   LIG     1       0.063  -0.860   0.102  1.00  0.00    -0.008 A 
HETATM    6  C   LIG     1      -0.550   1.578  -0.014  1.00  0.00     0.041 C 
HETATM    7  C   LIG     1      -1.354  -1.341   0.107  1.00  0.00     0.047 C 
HETATM    8  C   LIG     1      -1.972   1.105   0.315  1.00  0.00     0.005 C 
HETATM    9  C   LIG     1      -2.297  -0.227  -0.368  1.00  0.00     0.005 C 
ENDROOT
BRANCH   1  10
HETATM   10  C   LIG     1       2.682   1.820  -0.165  1.00  0.00     0.296 C 
HETATM   11  O   LIG     1       3.905   1.860  -0.203  1.00  0.00    -0.259 OA
BRANCH  10  12
HETATM   12  O   LIG     1       1.888   2.925  -0.295  1.00  0.00    -0.318 OA
BRANCH  12  13
HETATM   13  C   LIG     1       2.563   4.174  -0.474  1.00  0.00     0.174 C 
HETATM   14  C   LIG     1       3.042   4.704   0.863  1.00  0.00     0.034 C 
ENDBRANCH  12  13
ENDBRANCH  10  12
ENDBRANCH   1  10
BRANCH   2  15
HETATM   15  N   LIG     1       3.828  -0.951   0.108  1.00  0.00    -0.393 N 
ATOM     16  HN2 LIG     1       4.508  -0.193   0.047  1.00  0.00     0.156 HD
ATOM     17  HN1 LIG     1       4.271  -1.867   0.183  1.00  0.00     0.156 HD
ENDBRANCH   2  15
TORSDOF 4
