REMARK  1 active torsions:
REMARK  status: ('A' for Active; 'I' for Inactive)
REMARK    1  A    between atoms: C_4  and  O_10 
ROOT
HETATM    1  C   LIG     1      -1.411  -0.068  -0.065  1.00  0.00     0.079 A 
HETATM    2  N   LIG     1      -3.995  -0.191  -0.205  1.00  0.00    -0.191 NA
HETATM    3  C   LIG     1      -2.838  -0.111  -0.134  1.00  0.00     0.102 C 
HETATM    4  C   LIG     1      -0.644  -1.239  -0.047  1.00  0.00     0.086 A 
HETATM    5  C   LIG     1      -0.767   1.176  -0.034  1.00  0.00     0.049 A 
HETATM    6  C   LIG     1       0.748  -1.171   0.002  1.00  0.00     0.040 A 
HETATM    7  C   LIG     1       0.626   1.238  -0.007  1.00  0.00     0.035 A 
HETATM    8  C   LIG     1       1.386   0.070   0.012  1.00  0.00     0.026 A 
HETATM    9 CL   LIG     1       1.412   2.768  -0.014  1.00  0.00    -0.084 Cl
ENDROOT
BRANCH   4  10
HETATM   10  O   LIG     1      -1.174  -2.500  -0.085  1.00  0.00    -0.359 OA
ATOM     11  HO  LIG     1      -0.654  -3.295  -0.073  1.00  0.00     0.217 HD
ENDBRANCH   4  10
TORSDOF 1
