REMARK  4 active torsions:
REMARK  status: ('A' for Active; 'I' for Inactive)
REMARK    1  A    between atoms: C_1  and  C_6 
REMARK    2  A    between atoms: C_3  and  C_7 
REMARK    3  A    between atoms: C_4  and  N_9 
REMARK    4  A    between atoms: C_6  and  O_12 
ROOT
HETATM    1  C   LIG     1       0.988   0.719  -0.302  1.00  0.00     0.106 A 
HETATM    2  S   LIG     1       1.489  -0.922  -0.360  1.00  0.00    -0.086 SA
HETATM    3  C   LIG     1      -0.094  -1.529  -0.057  1.00  0.00    -0.007 A 
HETATM    4  C   LIG     1      -0.375   0.797  -0.081  1.00  0.00     0.050 A 
HETATM    5  C   LIG     1      -0.987  -0.476   0.056  1.00  0.00     0.045 A 
ENDROOT
BRANCH   1   6
HETATM    6  C   LIG     1       1.992   1.756  -0.475  1.00  0.00     0.302 C 
HETATM    7  O   LIG     1       3.190   1.584  -0.690  1.00  0.00    -0.259 OA
BRANCH   6   8
HETATM    8  O   LIG     1       1.422   2.995  -0.352  1.00  0.00    -0.322 OA
HETATM    9  C   LIG     1       2.336   4.082  -0.480  1.00  0.00     0.213 C 
ENDBRANCH   6   8
ENDBRANCH   1   6
BRANCH   4  10
HETATM   10  N   LIG     1      -1.084   1.939   0.003  1.00  0.00    -0.398 N 
ATOM     11  HN2 LIG     1      -0.644   2.854  -0.095  1.00  0.00     0.156 HD
ATOM     12  HN1 LIG     1      -2.089   1.997   0.166  1.00  0.00     0.156 HD
ENDBRANCH   4  10
BRANCH   3  13
HETATM   13  C   LIG     1      -0.355  -3.037   0.055  1.00  0.00    -0.018 C 
HETATM   14  C   LIG     1      -1.847  -3.318   0.344  1.00  0.00     0.020 C 
HETATM   15  C   LIG     1       0.008  -3.756  -1.258  1.00  0.00     0.020 C 
HETATM   16  C   LIG     1       0.468  -3.645   1.209  1.00  0.00     0.020 C 
ENDBRANCH   3  13
TORSDOF 4
