REMARK  1 active torsions:
REMARK  status: ('A' for Active; 'I' for Inactive)
REMARK    1  A    between atoms: C_3  and  C_9 
ROOT
HETATM    1  N   LIG     1       4.772   0.364  -2.430  1.00  0.00    -0.197 NA
HETATM    2  C   LIG     1       4.322   0.225  -1.369  1.00  0.00     0.065 C 
HETATM    3  C   LIG     1       3.789   0.069  -0.011  1.00  0.00     0.188 C 
ENDROOT
BRANCH   3   4
HETATM    4  C   LIG     1       2.297   0.156  -0.020  1.00  0.00     0.065 A 
HETATM    5  N   LIG     1       1.498  -0.889   0.029  1.00  0.00    -0.352 N 
HETATM    6  C   LIG     1       0.174  -0.478   0.015  1.00  0.00     0.050 A 
ATOM      7  HN  LIG     1       1.808  -1.860   0.071  1.00  0.00     0.166 HD
HETATM    8  C   LIG     1      -0.021   0.904  -0.025  1.00  0.00     0.033 A 
HETATM    9  C   LIG     1      -0.954  -1.322   0.041  1.00  0.00     0.031 A 
HETATM   10  S   LIG     1       1.512   1.686  -0.048  1.00  0.00    -0.074 SA
HETATM   11  C   LIG     1      -1.306   1.471  -0.040  1.00  0.00     0.021 A 
HETATM   12  C   LIG     1      -2.409   0.612  -0.014  1.00  0.00     0.002 A 
HETATM   13  C   LIG     1      -2.238  -0.768   0.026  1.00  0.00     0.002 A 
ENDBRANCH   3   4
TORSDOF 1
