REMARK  2 active torsions:
REMARK  status: ('A' for Active; 'I' for Inactive)
REMARK    1  A    between atoms: C_1  and  C_5 
REMARK    2  A    between atoms: C_2  and  N_8 
ROOT
HETATM    1  C   LIG     1       0.952  -0.766   0.084  1.00  0.00     0.076 A 
HETATM    2  C   LIG     1      -0.390  -1.102   0.018  1.00  0.00     0.047 A 
HETATM    3  S   LIG     1       1.145   0.951   0.064  1.00  0.00    -0.096 SA
HETATM    4  C   LIG     1      -1.236   0.038  -0.100  1.00  0.00     0.037 A 
HETATM    5  C   LIG     1      -0.531   1.218  -0.084  1.00  0.00     0.053 A 
ENDROOT
BRANCH   1   6
HETATM    6  C   LIG     1       2.171  -1.568   0.149  1.00  0.00     0.164 C 
HETATM    7  O   LIG     1       3.275  -1.113   0.461  1.00  0.00    -0.292 OA
HETATM    8  C   LIG     1       2.076  -3.039  -0.175  1.00  0.00     0.097 C 
ENDBRANCH   1   6
BRANCH   2   9
HETATM    9  N   LIG     1      -0.921  -2.344   0.058  1.00  0.00    -0.398 N 
ATOM     10  HN2 LIG     1      -0.315  -3.160   0.142  1.00  0.00     0.156 HD
ATOM     11  HN1 LIG     1      -1.909  -2.591   0.009  1.00  0.00     0.156 HD
ENDBRANCH   2   9
TORSDOF 2
