REMARK  4 active torsions:
REMARK  status: ('A' for Active; 'I' for Inactive)
REMARK    1  A    between atoms: C_1  and  C_5 
REMARK    2  A    between atoms: C_2  and  N_8 
REMARK    3  A    between atoms: C_5  and  O_11 
REMARK    4  A    between atoms: O_11  and  C_13 
ROOT
HETATM    1  C   LIG     1       0.230   0.138   0.151  1.00  0.00     0.079 A 
HETATM    2  C   LIG     1       0.360  -1.245   0.115  1.00  0.00     0.084 A 
HETATM    3  S   LIG     1      -1.149  -2.043   0.073  1.00  0.00    -0.083 SA
HETATM    4  C   LIG     1      -1.176   0.530   0.153  1.00  0.00    -0.036 A 
HETATM    5  C   LIG     1      -2.004  -0.575   0.112  1.00  0.00     0.059 A 
HETATM    6  C   LIG     1      -1.694   1.933   0.192  1.00  0.00     0.050 C 
ENDROOT
BRANCH   1   7
HETATM    7  C   LIG     1       1.395   1.031   0.174  1.00  0.00     0.296 C 
HETATM    8  O   LIG     1       2.560   0.637   0.176  1.00  0.00    -0.259 OA
BRANCH   7   9
HETATM    9  O   LIG     1       1.051   2.350   0.184  1.00  0.00    -0.318 OA
BRANCH   9  10
HETATM   10  C   LIG     1       2.123   3.296   0.208  1.00  0.00     0.174 C 
HETATM   11  C   LIG     1       2.645   3.455   1.623  1.00  0.00     0.034 C 
ENDBRANCH   9  10
ENDBRANCH   7   9
ENDBRANCH   1   7
BRANCH   2  12
HETATM   12  N   LIG     1       1.495  -1.974   0.110  1.00  0.00    -0.393 N 
ATOM     13  HN2 LIG     1       2.396  -1.497   0.135  1.00  0.00     0.156 HD
ATOM     14  HN1 LIG     1       1.590  -2.989   0.084  1.00  0.00     0.156 HD
ENDBRANCH   2  12
TORSDOF 4
