REMARK  2 active torsions:
REMARK  status: ('A' for Active; 'I' for Inactive)
REMARK    1  A    between atoms: C_1  and  C_5 
REMARK    2  A    between atoms: C_2  and  N_8 
REMARK       I    between atoms: C_5  and  N_11 
ROOT
HETATM    1  C   LIG     1       0.988   0.604  -0.083  1.00  0.00     0.071 A 
HETATM    2  C   LIG     1       1.033  -0.785  -0.116  1.00  0.00     0.084 A 
HETATM    3  S   LIG     1      -0.526  -1.485  -0.144  1.00  0.00    -0.083 SA
HETATM    4  C   LIG     1      -0.386   1.078  -0.003  1.00  0.00    -0.037 A 
HETATM    5  C   LIG     1      -1.286   0.031  -0.029  1.00  0.00     0.059 A 
HETATM    6  C   LIG     1      -0.791   2.516   0.078  1.00  0.00     0.050 C 
ENDROOT
BRANCH   1   7
HETATM    7  C   LIG     1       2.162   1.485  -0.116  1.00  0.00     0.252 C 
HETATM    8  O   LIG     1       2.153   2.652   0.264  1.00  0.00    -0.268 OA
HETATM    9  N   LIG     1       3.298   0.954  -0.658  1.00  0.00    -0.366 N 
ATOM     10  HN2 LIG     1       3.305  -0.016  -0.974  1.00  0.00     0.159 HD
ATOM     11  HN1 LIG     1       4.114   1.566  -0.681  1.00  0.00     0.159 HD
ENDBRANCH   1   7
BRANCH   2  12
HETATM   12  N   LIG     1       2.120  -1.601  -0.115  1.00  0.00    -0.393 N 
ATOM     13  HN2 LIG     1       3.050  -1.183  -0.098  1.00  0.00     0.156 HD
ATOM     14  HN1 LIG     1       2.153  -2.620  -0.139  1.00  0.00     0.156 HD
ENDBRANCH   2  12
TORSDOF 2
