REMARK  3 active torsions:
REMARK  status: ('A' for Active; 'I' for Inactive)
REMARK    1  A    between atoms: C_1  and  C_3 
REMARK    2  A    between atoms: C_2  and  N_8 
REMARK    3  A    between atoms: C_3  and  O_11 
ROOT
HETATM    1  C   LIG     1      -0.322   0.965   0.003  1.00  0.00     0.072 A 
HETATM    2  C   LIG     1       1.042   0.517  -0.000  1.00  0.00     0.049 A 
HETATM    3  S   LIG     1      -0.363  -1.627   0.035  1.00  0.00    -0.110 SA
HETATM    4  C   LIG     1      -1.179  -0.126   0.022  1.00  0.00     0.069 A 
HETATM    5  C   LIG     1       1.159  -0.853   0.015  1.00  0.00     0.079 A 
ENDROOT
BRANCH   1   6
HETATM    6  C   LIG     1      -0.784   2.353  -0.016  1.00  0.00     0.295 C 
HETATM    7  O   LIG     1      -0.031   3.321  -0.020  1.00  0.00    -0.259 OA
BRANCH   6   8
HETATM    8  O   LIG     1      -2.148   2.448  -0.037  1.00  0.00    -0.322 OA
HETATM    9  C   LIG     1      -2.648   3.783  -0.089  1.00  0.00     0.213 C 
ENDBRANCH   6   8
ENDBRANCH   1   6
BRANCH   2  10
HETATM   10  N   LIG     1       2.114   1.330  -0.019  1.00  0.00    -0.398 N 
ATOM     11  HN2 LIG     1       2.027   2.346  -0.030  1.00  0.00     0.156 HD
ATOM     12  HN1 LIG     1       3.083   1.012  -0.021  1.00  0.00     0.156 HD
ENDBRANCH   2  10
TORSDOF 3
