REMARK  1 active torsions:
REMARK  status: ('A' for Active; 'I' for Inactive)
REMARK    1  A    between atoms: C_1  and  C_3 
ROOT
HETATM    1  C   LIG     1       0.998  -0.769  -0.048  1.00  0.00     0.103 A 
HETATM    2  C   LIG     1      -0.340  -1.121  -0.081  1.00  0.00     0.058 A 
HETATM    3  S   LIG     1       1.173   0.943   0.073  1.00  0.00    -0.093 SA
HETATM    4  C   LIG     1      -1.206   0.012  -0.009  1.00  0.00     0.032 A 
HETATM    5  C   LIG     1      -0.513   1.196   0.077  1.00  0.00     0.052 A 
HETATM    6 CL   LIG     1      -1.009  -2.697  -0.193  1.00  0.00    -0.083 Cl
ENDROOT
BRANCH   1   7
HETATM    7  C   LIG     1       2.207  -1.558  -0.095  1.00  0.00     0.218 C 
HETATM    8  O   LIG     1       3.368  -1.172  -0.050  1.00  0.00    -0.643 OA
HETATM    9  O   LIG     1       1.968  -2.882  -0.205  1.00  0.00    -0.643 OA
ENDBRANCH   1   7
TORSDOF 1
