REMARK  2 active torsions:
REMARK  status: ('A' for Active; 'I' for Inactive)
REMARK    1  A    between atoms: C_1  and  C_5 
REMARK    2  A    between atoms: C_5  and  O_9 
ROOT
HETATM    1  C   LIG     1       0.723  -0.374  -0.165  1.00  0.00     0.102 A 
HETATM    2  C   LIG     1       0.620   1.004  -0.079  1.00  0.00     0.063 A 
HETATM    3  S   LIG     1      -0.827  -1.111  -0.099  1.00  0.00    -0.094 SA
HETATM    4  C   LIG     1      -0.742   1.459   0.035  1.00  0.00    -0.032 A 
HETATM    5  C   LIG     1      -1.616   0.391   0.052  1.00  0.00     0.059 A 
HETATM    6 CL   LIG     1       1.925   2.124  -0.147  1.00  0.00    -0.082 Cl
HETATM    7  C   LIG     1      -1.168   2.889   0.113  1.00  0.00     0.050 C 
ENDROOT
BRANCH   1   8
HETATM    8  C   LIG     1       1.877  -1.239  -0.310  1.00  0.00     0.301 C 
HETATM    9  O   LIG     1       1.874  -2.371  -0.787  1.00  0.00    -0.259 OA
BRANCH   8  10
HETATM   10  O   LIG     1       2.993  -0.635   0.187  1.00  0.00    -0.322 OA
HETATM   11  C   LIG     1       4.187  -1.409   0.071  1.00  0.00     0.213 C 
ENDBRANCH   8  10
ENDBRANCH   1   8
TORSDOF 2
