REMARK  1 active torsions:
REMARK  status: ('A' for Active; 'I' for Inactive)
REMARK    1  A    between atoms: C_2  and  N_8 
ROOT
HETATM    1  C   LIG     1      -0.320  -1.111   0.003  1.00  0.00     0.078 A 
HETATM    2  C   LIG     1       1.016  -0.756   0.000  1.00  0.00     0.088 A 
HETATM    3  C   LIG     1      -0.777  -2.468   0.009  1.00  0.00     0.102 C 
HETATM    4  S   LIG     1       1.202   0.950  -0.004  1.00  0.00    -0.083 SA
HETATM    5  N   LIG     1      -1.148  -3.568   0.013  1.00  0.00    -0.191 NA
HETATM    6  C   LIG     1      -1.188   0.024   0.001  1.00  0.00     0.033 A 
HETATM    7  C   LIG     1      -0.487   1.209  -0.001  1.00  0.00     0.053 A 
ENDROOT
BRANCH   2   8
HETATM    8  N   LIG     1       2.105  -1.552   0.000  1.00  0.00    -0.392 N 
ATOM      9  HN2 LIG     1       1.994  -2.566   0.002  1.00  0.00     0.156 HD
ATOM     10  HN1 LIG     1       3.091  -1.290  -0.002  1.00  0.00     0.156 HD
ENDBRANCH   2   8
TORSDOF 1
