REMARK  2 active torsions:
REMARK  status: ('A' for Active; 'I' for Inactive)
REMARK    1  A    between atoms: C_1  and  C_3 
REMARK    2  A    between atoms: C_3  and  O_9 
ROOT
HETATM    1  C   LIG     1       0.655  -0.632  -0.153  1.00  0.00     0.101 A 
HETATM    2  C   LIG     1      -0.694  -0.886   0.033  1.00  0.00     0.057 A 
HETATM    3  S   LIG     1       0.969   1.062  -0.064  1.00  0.00    -0.094 SA
HETATM    4  C   LIG     1      -1.451   0.303   0.258  1.00  0.00     0.032 A 
HETATM    5  C   LIG     1      -0.669   1.433   0.233  1.00  0.00     0.052 A 
HETATM    6 CL   LIG     1      -1.491  -2.407   0.032  1.00  0.00    -0.083 Cl
ENDROOT
BRANCH   1   7
HETATM    7  C   LIG     1       1.781  -1.519  -0.385  1.00  0.00     0.301 C 
HETATM    8  O   LIG     1       2.959  -1.187  -0.483  1.00  0.00    -0.259 OA
BRANCH   7   9
HETATM    9  O   LIG     1       1.359  -2.811  -0.470  1.00  0.00    -0.322 OA
HETATM   10  C   LIG     1       2.392  -3.783  -0.619  1.00  0.00     0.213 C 
ENDBRANCH   7   9
ENDBRANCH   1   7
TORSDOF 2
