REMARK  1 active torsions:
REMARK  status: ('A' for Active; 'I' for Inactive)
REMARK    1  A    between atoms: C_1  and  C_4 
ROOT
HETATM    1  C   LIG     1      -0.294  -1.214   0.089  1.00  0.00     0.081 A 
HETATM    2  S   LIG     1       1.372  -0.834   0.164  1.00  0.00    -0.095 SA
HETATM    3  C   LIG     1      -1.059  -0.064   0.010  1.00  0.00     0.033 A 
HETATM    4  C   LIG     1       1.066   0.844   0.091  1.00  0.00     0.057 A 
HETATM    5  C   LIG     1      -0.281   1.139   0.011  1.00  0.00    -0.054 A 
HETATM    6  C   LIG     1      -0.842   2.518  -0.064  1.00  0.00     0.048 C 
ENDROOT
BRANCH   1   7
HETATM    7  C   LIG     1      -0.788  -2.573   0.109  1.00  0.00     0.216 C 
HETATM    8  O   LIG     1      -1.958  -2.930   0.058  1.00  0.00    -0.643 OA
HETATM    9  O   LIG     1       0.188  -3.505   0.195  1.00  0.00    -0.643 OA
ENDBRANCH   1   7
TORSDOF 1
