REMARK  2 active torsions:
REMARK  status: ('A' for Active; 'I' for Inactive)
REMARK    1  A    between atoms: C_4  and  C_8 
REMARK    2  A    between atoms: C_5  and  S_9 
ROOT
HETATM    1  C   LIG     1      -1.201   0.031  -0.044  1.00  0.00     0.070 A 
HETATM    2  N   LIG     1       0.908  -0.805   0.113  1.00  0.00    -0.299 N 
ATOM      3  HN  LIG     1       1.711  -1.431   0.174  1.00  0.00     0.187 HD
HETATM    4  C   LIG     1      -0.393  -1.140   0.024  1.00  0.00     0.061 A 
HETATM    5  C   LIG     1      -0.331   1.086   0.014  1.00  0.00     0.086 A 
HETATM    6  N   LIG     1       0.912   0.540   0.104  1.00  0.00    -0.294 N 
ATOM      7  HN  LIG     1       1.765   1.097   0.159  1.00  0.00     0.187 HD
ENDROOT
BRANCH   4   8
HETATM    8  C   LIG     1      -0.836  -2.541   0.006  1.00  0.00    -0.008 A 
HETATM    9  C   LIG     1      -2.201  -2.866  -0.077  1.00  0.00     0.017 A 
HETATM   10  C   LIG     1      -2.618  -4.200  -0.091  1.00  0.00     0.043 A 
HETATM   11  C   LIG     1      -1.672  -5.214  -0.022  1.00  0.00     0.116 A 
HETATM   12  C   LIG     1      -0.318  -4.922   0.060  1.00  0.00     0.043 A 
HETATM   13  F   LIG     1      -2.075  -6.491  -0.034  1.00  0.00    -0.206 F 
HETATM   14  C   LIG     1       0.100  -3.588   0.073  1.00  0.00     0.017 A 
ENDBRANCH   4   8
BRANCH   5  15
HETATM   15  S   LIG     1      -0.512   2.801  -0.005  1.00  0.00    -0.115 SA
HETATM   16  C   LIG     1      -2.306   2.983  -0.138  1.00  0.00     0.097 C 
ENDBRANCH   5  15
TORSDOF 2
