REMARK  2 active torsions:
REMARK  status: ('A' for Active; 'I' for Inactive)
REMARK    1  A    between atoms: C_3  and  C_8 
REMARK    2  A    between atoms: C_5  and  N_9 
ROOT
HETATM    1  C   LIG     1      -0.293   1.316   0.453  1.00  0.00     0.112 A 
HETATM    2  S   LIG     1      -1.468   0.079   0.581  1.00  0.00    -0.076 SA
HETATM    3  C   LIG     1      -0.359  -1.137   0.094  1.00  0.00     0.018 A 
HETATM    4  C   LIG     1       0.891  -0.594  -0.147  1.00  0.00     0.051 A 
HETATM    5  C   LIG     1       0.928   0.814   0.054  1.00  0.00     0.055 A 
HETATM    6  C   LIG     1      -0.590   2.684   0.736  1.00  0.00     0.109 C 
HETATM    7  N   LIG     1      -0.814   3.801   0.960  1.00  0.00    -0.191 NA
ENDROOT
BRANCH   5   8
HETATM    8  N   LIG     1       2.053   1.535  -0.134  1.00  0.00    -0.397 N 
ATOM      9  HN2 LIG     1       2.080   2.544   0.010  1.00  0.00     0.156 HD
ATOM     10  HN1 LIG     1       2.956   1.164  -0.429  1.00  0.00     0.156 HD
ENDBRANCH   5   8
BRANCH   3  11
HETATM   11  C   LIG     1      -0.778  -2.544   0.013  1.00  0.00    -0.019 A 
HETATM   12  C   LIG     1       0.059  -3.553   0.520  1.00  0.00     0.016 A 
HETATM   13  C   LIG     1      -0.316  -4.897   0.442  1.00  0.00     0.043 A 
HETATM   14  C   LIG     1      -1.527  -5.238  -0.146  1.00  0.00     0.116 A 
HETATM   15  C   LIG     1      -2.369  -4.261  -0.660  1.00  0.00     0.043 A 
HETATM   16  F   LIG     1      -1.885  -6.526  -0.222  1.00  0.00    -0.206 F 
HETATM   17  C   LIG     1      -1.995  -2.916  -0.582  1.00  0.00     0.016 A 
ENDBRANCH   3  11
TORSDOF 2
