REMARK  3 active torsions:
REMARK  status: ('A' for Active; 'I' for Inactive)
REMARK    1  A    between atoms: C_1  and  C_3 
REMARK    2  A    between atoms: C_2  and  N_8 
REMARK    3  A    between atoms: C_3  and  O_11 
ROOT
HETATM    1  C   LIG     1      -0.108  -0.737   0.173  1.00  0.00     0.073 A 
HETATM    2  C   LIG     1       1.170  -0.348  -0.203  1.00  0.00     0.084 A 
HETATM    3  S   LIG     1       1.216   1.272  -0.761  1.00  0.00    -0.084 SA
HETATM    4  C   LIG     1      -1.046   0.339  -0.029  1.00  0.00     0.028 A 
HETATM    5  C   LIG     1      -0.459   1.477  -0.528  1.00  0.00     0.053 A 
ENDROOT
BRANCH   1   6
HETATM    6  C   LIG     1      -0.438  -2.061   0.700  1.00  0.00     0.295 C 
HETATM    7  O   LIG     1       0.385  -2.949   0.899  1.00  0.00    -0.259 OA
BRANCH   6   8
HETATM    8  O   LIG     1      -1.776  -2.192   0.954  1.00  0.00    -0.322 OA
HETATM    9  C   LIG     1      -2.161  -3.472   1.453  1.00  0.00     0.213 C 
ENDBRANCH   6   8
ENDBRANCH   1   6
BRANCH   2  10
HETATM   10  N   LIG     1       2.305  -1.076  -0.175  1.00  0.00    -0.393 N 
ATOM     11  HN2 LIG     1       2.278  -2.040   0.157  1.00  0.00     0.156 HD
ATOM     12  HN1 LIG     1       3.244  -0.790  -0.451  1.00  0.00     0.156 HD
ENDBRANCH   2  10
TORSDOF 3
