REMARK  1 active torsions:
REMARK  status: ('A' for Active; 'I' for Inactive)
REMARK    1  A    between atoms: C_1  and  C_4 
ROOT
HETATM    1  C   LIG     1      -0.313  -1.075   0.003  1.00  0.00     0.133 A 
HETATM    2  N   LIG     1       0.972  -0.662   0.005  1.00  0.00    -0.295 N 
ATOM      3  HN  LIG     1       1.814  -1.238   0.007  1.00  0.00     0.187 HD
HETATM    4  C   LIG     1      -1.196   0.040  -0.000  1.00  0.00     0.054 A 
HETATM    5  N   LIG     1       0.893   0.679   0.003  1.00  0.00    -0.307 N 
HETATM    6  C   LIG     1      -0.386   1.150  -0.000  1.00  0.00     0.112 A 
HETATM    7  C   LIG     1       2.097   1.476   0.004  1.00  0.00     0.177 C 
ENDROOT
BRANCH   1   8
HETATM    8  C   LIG     1      -0.720  -2.525   0.004  1.00  0.00     0.433 C 
HETATM    9  F   LIG     1       0.327  -3.392   0.023  1.00  0.00    -0.165 F 
HETATM   10  F   LIG     1      -1.494  -2.826   1.084  1.00  0.00    -0.165 F 
HETATM   11  F   LIG     1      -1.463  -2.836  -1.094  1.00  0.00    -0.165 F 
ENDBRANCH   1   8
TORSDOF 1
