REMARK  5 active torsions:
REMARK  status: ('A' for Active; 'I' for Inactive)
REMARK    1  A    between atoms: C_1  and  C_7 
REMARK    2  A    between atoms: C_2  and  C_6 
REMARK    3  A    between atoms: C_3  and  N_13 
REMARK    4  A    between atoms: C_7  and  O_16 
REMARK    5  A    between atoms: O_16  and  C_17 
ROOT
HETATM    1  C   LIG     1       0.943  -0.652   0.033  1.00  0.00     0.084 A 
HETATM    2  C   LIG     1      -0.424  -1.149   0.000  1.00  0.00     0.007 A 
HETATM    3  C   LIG     1       0.966   0.741   0.035  1.00  0.00     0.085 A 
HETATM    4  C   LIG     1      -1.331  -0.112  -0.107  1.00  0.00     0.065 A 
HETATM    5  S   LIG     1      -0.596   1.421  -0.060  1.00  0.00    -0.083 SA
ENDROOT
BRANCH   1   6
HETATM    6  C   LIG     1       2.192  -1.416   0.000  1.00  0.00     0.297 C 
HETATM    7  O   LIG     1       3.245  -1.021   0.488  1.00  0.00    -0.259 OA
BRANCH   6   8
HETATM    8  O   LIG     1       2.070  -2.579  -0.700  1.00  0.00    -0.318 OA
BRANCH   8   9
HETATM    9  C   LIG     1       3.245  -3.392  -0.833  1.00  0.00     0.174 C 
HETATM   10  C   LIG     1       4.003  -3.002  -2.087  1.00  0.00     0.034 C 
ENDBRANCH   8   9
ENDBRANCH   6   8
ENDBRANCH   1   6
BRANCH   2  11
HETATM   11  C   LIG     1      -0.916  -2.584   0.079  1.00  0.00     0.016 A 
HETATM   12  S   LIG     1      -2.410  -3.115  -0.588  1.00  0.00    -0.101 SA
HETATM   13  C   LIG     1      -2.146  -4.731  -0.101  1.00  0.00     0.050 A 
HETATM   14  C   LIG     1      -0.965  -4.869   0.591  1.00  0.00     0.008 A 
HETATM   15  C   LIG     1      -0.274  -3.624   0.722  1.00  0.00     0.020 A 
ENDBRANCH   2  11
BRANCH   3  16
HETATM   16  N   LIG     1       2.042   1.558   0.059  1.00  0.00    -0.393 N 
ATOM     17  HN2 LIG     1       2.976   1.151   0.116  1.00  0.00     0.156 HD
ATOM     18  HN1 LIG     1       2.059   2.578   0.060  1.00  0.00     0.156 HD
ENDBRANCH   3  16
TORSDOF 5
