REMARK  3 active torsions:
REMARK  status: ('A' for Active; 'I' for Inactive)
REMARK    1  A    between atoms: C_1  and  C_2 
REMARK    2  A    between atoms: C_8  and  O_14 
REMARK    3  A    between atoms: O_14  and  C_15 
ROOT
HETATM    1  N   LIG     1      -1.135   8.273  -0.334  1.00  0.00    -0.195 NA
HETATM    2  C   LIG     1      -0.648   7.221  -0.244  1.00  0.00     0.085 C 
HETATM    3  C   LIG     1      -0.007   5.902  -0.129  1.00  0.00     0.300 C 
ENDROOT
BRANCH   3   4
HETATM    4  O   LIG     1      -0.993   4.870  -0.242  1.00  0.00    -0.322 OA
BRANCH   4   5
HETATM    5  C   LIG     1      -0.442   3.610  -0.164  1.00  0.00     0.142 A 
HETATM    6  N   LIG     1       0.891   3.477   0.003  1.00  0.00    -0.346 N 
HETATM    7  C   LIG     1       1.379   2.217   0.061  1.00  0.00     0.106 A 
ATOM      8  HN  LIG     1       1.502   4.290   0.082  1.00  0.00     0.167 HD
HETATM    9  C   LIG     1       0.596   1.076  -0.038  1.00  0.00     0.063 A 
HETATM   10  C   LIG     1      -0.783   1.251  -0.205  1.00  0.00     0.022 A 
HETATM   11  C   LIG     1      -1.312   2.538  -0.271  1.00  0.00     0.057 A 
BRANCH   9  12
HETATM   12  C   LIG     1       1.214  -0.287   0.031  1.00  0.00     0.418 C 
HETATM   13  F   LIG     1       2.567  -0.263   0.188  1.00  0.00    -0.166 F 
HETATM   14  F   LIG     1       0.982  -1.019  -1.093  1.00  0.00    -0.166 F 
HETATM   15  F   LIG     1       0.731  -1.026   1.066  1.00  0.00    -0.166 F 
ENDBRANCH   9  12
ENDBRANCH   4   5
ENDBRANCH   3   4
TORSDOF 3
