REMARK  1 active torsions:
REMARK  status: ('A' for Active; 'I' for Inactive)
REMARK    1  A    between atoms: C_1  and  C_2 
ROOT
HETATM    1  C   LIG     1       0.898  -0.657  -0.011  1.00  0.00     0.133 A 
HETATM    2  N   LIG     1      -0.380  -1.090  -0.010  1.00  0.00    -0.297 N 
ATOM      3  HN  LIG     1      -0.713  -2.054  -0.016  1.00  0.00     0.187 HD
HETATM    4  N   LIG     1      -1.115   0.033   0.000  1.00  0.00    -0.311 N 
ATOM      5  HN  LIG     1      -2.135   0.033   0.003  1.00  0.00     0.186 HD
HETATM    6  C   LIG     1       0.943   0.765  -0.001  1.00  0.00     0.054 A 
HETATM    7  C   LIG     1      -0.368   1.172   0.006  1.00  0.00     0.109 A 
ENDROOT
BRANCH   1   8
HETATM    8  C   LIG     1       2.089  -1.580  -0.021  1.00  0.00     0.433 C 
HETATM    9  F   LIG     1       1.765  -2.900  -0.010  1.00  0.00    -0.165 F 
HETATM   10  F   LIG     1       2.867  -1.379  -1.121  1.00  0.00    -0.165 F 
HETATM   11  F   LIG     1       2.895  -1.367   1.056  1.00  0.00    -0.165 F 
ENDBRANCH   1   8
TORSDOF 1
