REMARK  1 active torsions:
REMARK  status: ('A' for Active; 'I' for Inactive)
REMARK    1  A    between atoms: C_2  and  N_11 
ROOT
HETATM    1  C   LIG     1       1.342  -1.587   0.044  1.00  0.00     0.085 A 
HETATM    2  C   LIG     1       2.469  -0.787   0.031  1.00  0.00     0.089 A 
HETATM    3  C   LIG     1       0.133  -0.829  -0.001  1.00  0.00    -0.018 A 
HETATM    4  C   LIG     1       0.385   0.531  -0.004  1.00  0.00     0.021 A 
HETATM    5  S   LIG     1       2.047   0.879  -0.017  1.00  0.00    -0.074 SA
HETATM    6  C   LIG     1       1.388  -3.015   0.111  1.00  0.00     0.103 C 
HETATM    7  N   LIG     1       1.401  -4.176   0.168  1.00  0.00    -0.191 NA
HETATM    8  N   LIG     1      -2.011   1.071   0.349  1.00  0.00     0.089 N 
HETATM    9  C   LIG     1      -0.674   1.600  -0.023  1.00  0.00     0.318 C 
HETATM   10  C   LIG     1      -1.275  -1.343   0.006  1.00  0.00     0.071 C 
HETATM   11  C   LIG     1      -2.272  -0.214  -0.339  1.00  0.00     0.277 C 
HETATM   12  C   LIG     1      -2.149   0.943   1.802  1.00  0.00     0.310 C 
ENDROOT
BRANCH   2  13
HETATM   13  N   LIG     1       3.766  -1.156   0.056  1.00  0.00    -0.392 N 
ATOM     14  HN2 LIG     1       4.016  -2.144   0.084  1.00  0.00     0.156 HD
ATOM     15  HN1 LIG     1       4.598  -0.566   0.046  1.00  0.00     0.156 HD
ENDBRANCH   2  13
TORSDOF 1
