REMARK  2 active torsions:
REMARK  status: ('A' for Active; 'I' for Inactive)
REMARK    1  A    between atoms: N_1  and  C_6 
REMARK    2  A    between atoms: C_6  and  C_10 
ROOT
HETATM    1  N   LIG     1       3.185  -3.706  -3.191  1.00  0.00    -0.075 N 
ATOM      2  HN1 LIG     1       4.035  -3.573  -3.739  1.00  0.00     0.277 HD
ATOM      3  HN2 LIG     1       2.951  -4.651  -3.496  1.00  0.00     0.277 HD
HETATM    4  C   LIG     1       2.881  -1.158  -1.706  1.00  0.00     0.007 C 
HETATM    5  C   LIG     1       3.454  -3.653  -1.754  1.00  0.00     0.232 C 
HETATM    6  C   LIG     1       2.148  -2.746  -3.563  1.00  0.00     0.232 C 
HETATM    7  C   LIG     1       3.890  -2.255  -1.308  1.00  0.00     0.034 C 
HETATM    8  C   LIG     1       2.543  -1.315  -3.198  1.00  0.00     0.034 C 
ENDROOT
BRANCH   4   9
HETATM    9  C   LIG     1       1.647  -1.177  -0.775  1.00  0.00     0.133 C 
BRANCH   9  10
HETATM   10  N   LIG     1       0.670  -0.120  -1.028  1.00  0.00    -0.354 N 
HETATM   11  C   LIG     1      -0.527  -0.271  -1.707  1.00  0.00     0.008 A 
HETATM   12  C   LIG     1      -1.123   0.975  -1.786  1.00  0.00     0.026 A 
HETATM   13  C   LIG     1      -1.047  -1.552  -2.255  1.00  0.00     0.068 C 
HETATM   14  C   LIG     1      -0.318   1.880  -1.070  1.00  0.00     0.026 A 
HETATM   15  C   LIG     1       0.762   1.184  -0.570  1.00  0.00     0.008 A 
HETATM   16  C   LIG     1       1.848   1.689   0.314  1.00  0.00     0.068 C 
ENDBRANCH   9  10
ENDBRANCH   4   9
TORSDOF 2
