REMARK  0 active torsions:
REMARK  status: ('A' for Active; 'I' for Inactive)
ROOT
HETATM    1  N   LIG     1       1.227  -1.413  -0.018  1.00  0.00    -0.366 N 
ATOM      2  HN  LIG     1       1.234  -2.433  -0.035  1.00  0.00     0.165 HD
HETATM    3  N   LIG     1       1.223   1.415   0.017  1.00  0.00    -0.366 N 
ATOM      4  HN  LIG     1       1.227   2.435   0.035  1.00  0.00     0.165 HD
HETATM    5  C   LIG     1       0.071  -0.701  -0.002  1.00  0.00     0.031 A 
HETATM    6  C   LIG     1       0.069   0.699   0.000  1.00  0.00     0.031 A 
HETATM    7  C   LIG     1       2.367  -0.688  -0.010  1.00  0.00     0.105 A 
HETATM    8  C   LIG     1       2.365   0.694   0.008  1.00  0.00     0.105 A 
HETATM    9  C   LIG     1      -1.212   1.486   0.056  1.00  0.00     0.059 C 
HETATM   10  C   LIG     1      -1.208  -1.491  -0.057  1.00  0.00     0.059 C 
HETATM   11  C   LIG     1      -2.437   0.671  -0.353  1.00  0.00     0.006 C 
HETATM   12  C   LIG     1      -2.435  -0.680   0.354  1.00  0.00     0.006 C 
ENDROOT
TORSDOF 0
