REMARK  0 active torsions:
REMARK  status: ('A' for Active; 'I' for Inactive)
ROOT
HETATM    1  C   LIG     1      -0.612   1.223   0.950  1.00  0.00     0.224 C 
HETATM    2  N   LIG     1       0.606   1.747   0.613  1.00  0.00    -0.355 N 
ATOM      3  HN  LIG     1       1.166   2.527   0.957  1.00  0.00     0.162 HD
HETATM    4  C   LIG     1      -0.752   0.615  -0.458  1.00  0.00     0.104 C 
HETATM    5  C   LIG     1       0.790   0.722  -0.459  1.00  0.00     0.101 C 
HETATM    6  O   LIG     1      -1.278   1.386   1.953  1.00  0.00    -0.273 OA
HETATM    7  C   LIG     1      -0.528  -1.792   0.088  1.00  0.00    -0.030 C 
HETATM    8  C   LIG     1       0.750  -1.636   0.460  1.00  0.00    -0.029 C 
HETATM    9  C   LIG     1      -1.272  -0.779  -0.716  1.00  0.00     0.043 C 
HETATM   10  C   LIG     1       1.608  -0.447   0.117  1.00  0.00     0.053 C 
ENDROOT
TORSDOF 0
