REMARK  2 active torsions:
REMARK  status: ('A' for Active; 'I' for Inactive)
REMARK    1  A    between atoms: S_1  and  C_2 
REMARK    2  A    between atoms: C_5  and  C_6 
ROOT
HETATM    1  C   LIG     1       0.469  -1.622   0.196  1.00  0.00     0.058 A 
HETATM    2  C   LIG     1      -0.422  -4.268   0.361  1.00  0.00     0.009 A 
HETATM    3  C   LIG     1       1.381  -2.666   0.037  1.00  0.00     0.024 A 
HETATM    4  C   LIG     1      -0.883  -1.885   0.431  1.00  0.00     0.024 A 
HETATM    5  C   LIG     1       0.934  -3.987   0.126  1.00  0.00     0.016 A 
HETATM    6  C   LIG     1      -1.327  -3.209   0.517  1.00  0.00     0.016 A 
ENDROOT
BRANCH   1   7
HETATM    7  S   LIG     1       1.023   0.061   0.034  1.00  0.00     0.171 S 
HETATM    8  O   LIG     1      -0.124   0.858  -0.354  1.00  0.00    -0.223 OA
HETATM    9  O   LIG     1       2.229   0.047  -0.774  1.00  0.00    -0.223 OA
HETATM   10  C   LIG     1       1.470   0.506   1.690  1.00  0.00     0.167 C 
ENDBRANCH   1   7
BRANCH   2  11
HETATM   11  C   LIG     1      -0.847  -5.698   0.433  1.00  0.00     0.155 C 
HETATM   12  O   LIG     1      -0.008  -6.590   0.324  1.00  0.00    -0.293 OA
HETATM   13  C   LIG     1      -2.302  -6.020   0.649  1.00  0.00     0.096 C 
ENDBRANCH   2  11
TORSDOF 2
