REMARK  3 active torsions:
REMARK  status: ('A' for Active; 'I' for Inactive)
REMARK    1  A    between atoms: C_1  and  C_2 
REMARK    2  A    between atoms: C_2  and  C_4 
REMARK    3  A    between atoms: C_2  and  O_6 
ROOT
HETATM    1  C   LIG     1      -0.773   1.677   0.608  1.00  0.00    -0.019 A 
HETATM    2  C   LIG     1      -1.961   1.668  -0.143  1.00  0.00     0.010 A 
HETATM    3  C   LIG     1      -0.248   2.914   1.013  1.00  0.00     0.010 A 
HETATM    4  C   LIG     1      -0.913   4.104   0.709  1.00  0.00     0.001 A 
HETATM    5  C   LIG     1      -2.622   2.860  -0.449  1.00  0.00     0.001 A 
HETATM    6  C   LIG     1      -2.100   4.077  -0.019  1.00  0.00     0.000 A 
ENDROOT
BRANCH   1   7
HETATM    7  C   LIG     1      -0.070   0.368   0.896  1.00  0.00     0.252 C 
BRANCH   7   8
HETATM    8  C   LIG     1       0.735   0.315   2.207  1.00  0.00     0.207 C 
HETATM    9  O   LIG     1       0.408   0.790   3.281  1.00  0.00    -0.646 OA
HETATM   10  O   LIG     1       1.896  -0.381   2.038  1.00  0.00    -0.646 OA
ENDBRANCH   7   8
BRANCH   7  11
HETATM   11  O   LIG     1       0.842   0.065  -0.180  1.00  0.00    -0.380 OA
ATOM     12  HO  LIG     1       0.345   0.098  -0.989  1.00  0.00     0.211 HD
ENDBRANCH   7  11
ENDBRANCH   1   7
TORSDOF 3
