REMARK  0 active torsions:
REMARK  status: ('A' for Active; 'I' for Inactive)
ROOT
HETATM    1  C   LIG     1      -0.424  -1.157  -0.003  1.00  0.00     0.117 A 
HETATM    2  N   LIG     1       0.865  -0.678  -0.003  1.00  0.00    -0.281 N 
HETATM    3  N   LIG     1       0.932   0.672   0.002  1.00  0.00    -0.302 N 
ATOM      4  HN  LIG     1       1.766   1.259   0.005  1.00  0.00     0.186 HD
HETATM    5  C   LIG     1      -1.229  -0.044  -0.000  1.00  0.00     0.075 A 
HETATM    6  C   LIG     1      -0.348   1.060   0.002  1.00  0.00     0.025 A 
HETATM    7  N   LIG     1      -0.761  -2.461  -0.008  1.00  0.00    -0.384 N 
ATOM      8  HN1 LIG     1      -1.717  -2.816  -0.008  1.00  0.00     0.157 HD
ATOM      9  HN2 LIG     1      -0.163  -3.287  -0.010  1.00  0.00     0.157 HD
HETATM   10  C   LIG     1       2.103  -1.419  -0.009  1.00  0.00     0.179 C 
HETATM   11  C   LIG     1      -0.691   2.502   0.003  1.00  0.00     0.070 C 
ENDROOT
TORSDOF 0
