REMARK  1 active torsions:
REMARK  status: ('A' for Active; 'I' for Inactive)
REMARK    1  A    between atoms: C_6  and  C_7 
ROOT
HETATM    1  N   LIG     1       0.755  -0.600   0.585  1.00  0.00    -0.301 N 
ATOM      2  HN  LIG     1       1.446  -1.158   1.087  1.00  0.00     0.187 HD
HETATM    3  C   LIG     1      -1.067   0.057  -0.608  1.00  0.00     0.076 A 
HETATM    4  C   LIG     1      -0.313   1.175  -0.351  1.00  0.00     0.117 A 
HETATM    5  N   LIG     1       0.776   0.727   0.354  1.00  0.00    -0.281 N 
HETATM    6  C   LIG     1      -0.379  -1.023   0.006  1.00  0.00     0.037 A 
HETATM    7  N   LIG     1      -0.517   2.464  -0.692  1.00  0.00    -0.384 N 
ATOM      8  HN1 LIG     1       0.043   3.295  -0.501  1.00  0.00     0.157 HD
ATOM      9  HN2 LIG     1      -1.326   2.797  -1.216  1.00  0.00     0.157 HD
HETATM   10  C   LIG     1       1.889   1.510   0.833  1.00  0.00     0.179 C 
ENDROOT
BRANCH   6  11
HETATM   11  C   LIG     1      -0.758  -2.495   0.022  1.00  0.00    -0.007 C 
HETATM   12  C   LIG     1      -0.185  -3.186  -1.231  1.00  0.00     0.021 C 
HETATM   13  C   LIG     1      -0.206  -3.210   1.275  1.00  0.00     0.021 C 
HETATM   14  C   LIG     1      -2.291  -2.674   0.026  1.00  0.00     0.021 C 
ENDBRANCH   6  11
TORSDOF 1
