REMARK  2 active torsions:
REMARK  status: ('A' for Active; 'I' for Inactive)
REMARK    1  A    between atoms: C_1  and  C_2 
REMARK    2  A    between atoms: C_3  and  O_9 
ROOT
HETATM    1  C   LIG     1      -0.911   0.948  -0.028  1.00  0.00     0.081 A 
HETATM    2  C   LIG     1       0.412   0.385  -0.097  1.00  0.00     0.092 A 
HETATM    3  S   LIG     1      -1.191  -1.626   0.008  1.00  0.00    -0.110 SA
HETATM    4  C   LIG     1      -1.863  -0.057   0.045  1.00  0.00     0.070 A 
HETATM    5  C   LIG     1       0.393  -0.995  -0.095  1.00  0.00     0.087 A 
ENDROOT
BRANCH   1   6
HETATM    6  C   LIG     1      -1.249   2.364  -0.029  1.00  0.00     0.212 C 
HETATM    7  O   LIG     1      -0.472   3.302  -0.111  1.00  0.00    -0.644 OA
HETATM    8  O   LIG     1      -2.578   2.620   0.067  1.00  0.00    -0.644 OA
ENDBRANCH   1   6
BRANCH   2   9
HETATM    9  O   LIG     1       1.526   1.164  -0.147  1.00  0.00    -0.354 OA
HETATM   10  C   LIG     1       2.765   0.474  -0.242  1.00  0.00     0.210 C 
ENDBRANCH   2   9
TORSDOF 2
