REMARK  2 active torsions:
REMARK  status: ('A' for Active; 'I' for Inactive)
REMARK    1  A    between atoms: C_3  and  C_7 
REMARK    2  A    between atoms: C_5  and  N_11 
ROOT
HETATM    1  N   LIG     1       0.893  -0.637   0.173  1.00  0.00    -0.296 N 
ATOM      2  HN  LIG     1       1.695  -1.250   0.321  1.00  0.00     0.187 HD
HETATM    3  C   LIG     1      -0.396  -0.981   0.032  1.00  0.00     0.069 A 
HETATM    4  C   LIG     1      -1.221   0.155  -0.144  1.00  0.00     0.081 A 
HETATM    5  C   LIG     1      -0.373   1.235  -0.101  1.00  0.00     0.117 A 
HETATM    6  N   LIG     1       0.883   0.707   0.074  1.00  0.00    -0.281 N 
HETATM    7  C   LIG     1       2.129   1.430   0.156  1.00  0.00     0.179 C 
ENDROOT
BRANCH   3   8
HETATM    8  C   LIG     1      -0.842  -2.414   0.068  1.00  0.00     0.033 A 
HETATM    9  S   LIG     1      -2.462  -2.929  -0.108  1.00  0.00    -0.100 SA
HETATM   10  C   LIG     1      -2.025  -4.575   0.054  1.00  0.00     0.050 A 
HETATM   11  C   LIG     1      -0.670  -4.733   0.241  1.00  0.00     0.008 A 
HETATM   12  C   LIG     1       0.014  -3.482   0.248  1.00  0.00     0.021 A 
ENDBRANCH   3   8
BRANCH   5  13
HETATM   13  N   LIG     1      -0.633   2.554  -0.208  1.00  0.00    -0.384 N 
ATOM     14  HN2 LIG     1      -1.566   2.946  -0.338  1.00  0.00     0.157 HD
ATOM     15  HN1 LIG     1      -0.003   3.356  -0.176  1.00  0.00     0.157 HD
ENDBRANCH   5  13
TORSDOF 2
