REMARK  2 active torsions:
REMARK  status: ('A' for Active; 'I' for Inactive)
REMARK    1  A    between atoms: C_1  and  C_6 
REMARK    2  A    between atoms: C_2  and  O_9 
ROOT
HETATM    1  C   LIG     1      -1.481  -0.825   0.169  1.00  0.00     0.082 A 
HETATM    2  C   LIG     1      -0.220  -0.126   0.050  1.00  0.00     0.114 A 
HETATM    3  C   LIG     1      -2.531   0.070   0.300  1.00  0.00     0.072 A 
HETATM    4  C   LIG     1      -0.406   1.244   0.047  1.00  0.00     0.108 A 
HETATM    5  S   LIG     1      -2.030   1.697   0.260  1.00  0.00    -0.086 SA
HETATM    6 CL   LIG     1       0.718   2.532  -0.170  1.00  0.00    -0.073 Cl
ENDROOT
BRANCH   1   7
HETATM    7  C   LIG     1      -1.675  -2.267   0.162  1.00  0.00     0.212 C 
HETATM    8  O   LIG     1      -0.805  -3.122   0.076  1.00  0.00    -0.644 OA
HETATM    9  O   LIG     1      -2.967  -2.656   0.273  1.00  0.00    -0.644 OA
ENDBRANCH   1   7
BRANCH   2  10
HETATM   10  O   LIG     1       0.947  -0.801  -0.137  1.00  0.00    -0.353 OA
HETATM   11  C   LIG     1       2.107  -0.227   0.449  1.00  0.00     0.210 C 
ENDBRANCH   2  10
TORSDOF 2
