REMARK  1 active torsions:
REMARK  status: ('A' for Active; 'I' for Inactive)
REMARK    1  A    between atoms: C_7  and  N_13 
ROOT
HETATM    1  C   LIG     1      -0.391  -1.034   0.004  1.00  0.00     0.068 A 
HETATM    2  C   LIG     1      -1.146   0.098  -0.228  1.00  0.00     0.081 A 
HETATM    3  N   LIG     1       0.869  -0.563   0.267  1.00  0.00    -0.298 N 
ATOM      4  HN  LIG     1       1.658  -1.175   0.473  1.00  0.00     0.187 HD
HETATM    5  N   LIG     1       0.973   0.776   0.230  1.00  0.00    -0.285 N 
ATOM      6  HN  LIG     1       1.800   1.349   0.399  1.00  0.00     0.188 HD
HETATM    7  C   LIG     1      -0.254   1.177  -0.079  1.00  0.00     0.115 A 
HETATM    8  C   LIG     1      -0.746  -2.424  -0.009  1.00  0.00     0.033 A 
HETATM    9  S   LIG     1       0.395  -3.659   0.340  1.00  0.00    -0.100 SA
HETATM   10  C   LIG     1      -1.988  -2.963  -0.287  1.00  0.00     0.021 A 
HETATM   11  C   LIG     1      -0.765  -4.894   0.121  1.00  0.00     0.050 A 
HETATM   12  C   LIG     1      -2.000  -4.387  -0.212  1.00  0.00     0.008 A 
ENDROOT
BRANCH   7  13
HETATM   13  N   LIG     1      -0.599   2.460  -0.223  1.00  0.00    -0.384 N 
ATOM     14  HN2 LIG     1      -1.542   2.768  -0.460  1.00  0.00     0.157 HD
ATOM     15  HN1 LIG     1       0.047   3.242  -0.115  1.00  0.00     0.157 HD
ENDBRANCH   7  13
TORSDOF 1
