REMARK  0 active torsions:
REMARK  status: ('A' for Active; 'I' for Inactive)
ROOT
HETATM    1  C   LIG     1      -1.265  -0.019  -0.002  1.00  0.00     0.084 A 
HETATM    2  N   LIG     1       0.900   0.682   0.008  1.00  0.00    -0.264 N 
ATOM      3  HN  LIG     1       1.732   1.272   0.016  1.00  0.00     0.194 HD
HETATM    4  C   LIG     1      -0.443  -1.114  -0.009  1.00  0.00     0.165 A 
HETATM    5  O   LIG     1       0.853  -0.704  -0.001  1.00  0.00    -0.220 OA
HETATM    6  C   LIG     1      -0.378   1.083   0.004  1.00  0.00     0.033 A 
HETATM    7  N   LIG     1      -0.682  -2.429  -0.025  1.00  0.00    -0.378 N 
ATOM      8  HN1 LIG     1      -0.070  -3.245  -0.030  1.00  0.00     0.158 HD
ATOM      9  HN2 LIG     1      -1.654  -2.737  -0.031  1.00  0.00     0.158 HD
HETATM   10  C   LIG     1      -0.705   2.525   0.005  1.00  0.00     0.070 C 
ENDROOT
TORSDOF 0
