REMARK  0 active torsions:
REMARK  status: ('A' for Active; 'I' for Inactive)
ROOT
HETATM    1  N   LIG     1       0.928  -0.701   0.007  1.00  0.00    -0.304 N 
ATOM      2  HN  LIG     1       1.760  -1.291   0.011  1.00  0.00     0.186 HD
HETATM    3  C   LIG     1      -1.233   0.030   0.000  1.00  0.00     0.075 A 
HETATM    4  C   LIG     1      -0.416   1.131  -0.002  1.00  0.00     0.115 A 
HETATM    5  N   LIG     1       0.863   0.643   0.002  1.00  0.00    -0.286 N 
ATOM      6  HN  LIG     1       1.689   1.242   0.001  1.00  0.00     0.188 HD
HETATM    7  C   LIG     1      -0.356  -1.082   0.006  1.00  0.00     0.025 A 
HETATM    8  N   LIG     1      -0.691   2.446  -0.006  1.00  0.00    -0.384 N 
ATOM      9  HN1 LIG     1      -0.083   3.265  -0.007  1.00  0.00     0.157 HD
ATOM     10  HN2 LIG     1      -1.644   2.810  -0.009  1.00  0.00     0.157 HD
HETATM   11  C   LIG     1      -0.710  -2.520   0.011  1.00  0.00     0.070 C 
ENDROOT
TORSDOF 0
