REMARK  3 active torsions:
REMARK  status: ('A' for Active; 'I' for Inactive)
REMARK    1  A    between atoms: S_1  and  C_2 
REMARK    2  A    between atoms: S_1  and  C_3 
REMARK    3  A    between atoms: C_2  and  C_6 
ROOT
HETATM    1  C   LIG     1       0.260   1.988  -0.287  1.00  0.00     0.059 A 
HETATM    2  C   LIG     1      -1.136   2.063  -0.228  1.00  0.00     0.025 A 
HETATM    3  C   LIG     1       1.035   3.142  -0.426  1.00  0.00     0.025 A 
HETATM    4  C   LIG     1      -0.988   4.466  -0.429  1.00  0.00     0.034 A 
HETATM    5  C   LIG     1       0.403   4.387  -0.495  1.00  0.00     0.025 A 
HETATM    6  C   LIG     1      -1.759   3.311  -0.294  1.00  0.00     0.025 A 
HETATM    7 CL   LIG     1      -1.761   6.000  -0.528  1.00  0.00    -0.084 Cl
ENDROOT
BRANCH   1   8
HETATM    8  S   LIG     1       1.043   0.397  -0.198  1.00  0.00     0.182 S 
HETATM    9  O   LIG     1       0.410  -0.428  -1.210  1.00  0.00    -0.222 OA
HETATM   10  O   LIG     1       2.482   0.597  -0.215  1.00  0.00    -0.222 OA
BRANCH   8  11
HETATM   11  C   LIG     1       0.614  -0.265   1.374  1.00  0.00     0.223 C 
BRANCH  11  12
HETATM   12  C   LIG     1       1.101   0.616   2.479  1.00  0.00     0.137 C 
HETATM   13  O   LIG     1       0.443   1.590   2.848  1.00  0.00    -0.297 OA
HETATM   14  C   LIG     1       2.426   0.289   3.117  1.00  0.00     0.091 C 
ENDBRANCH  11  12
ENDBRANCH   8  11
ENDBRANCH   1   8
TORSDOF 3
