REMARK  3 active torsions:
REMARK  status: ('A' for Active; 'I' for Inactive)
REMARK    1  A    between atoms: S_1  and  C_3 
REMARK    2  A    between atoms: S_1  and  C_7 
REMARK    3  A    between atoms: C_7  and  C_8 
ROOT
HETATM    1  N   LIG     1      -0.633  -1.276   1.530  1.00  0.00    -0.196 NA
HETATM    2  C   LIG     1       0.273  -1.167  -0.918  1.00  0.00     0.264 C 
HETATM    3  C   LIG     1      -0.244  -1.193   0.442  1.00  0.00     0.074 C 
ENDROOT
BRANCH   2   4
HETATM    4  S   LIG     1       1.557   0.058  -1.000  1.00  0.00     0.160 S 
HETATM    5  O   LIG     1       0.967   1.339  -0.647  1.00  0.00    -0.227 OA
HETATM    6  O   LIG     1       2.189  -0.083  -2.302  1.00  0.00    -0.227 OA
BRANCH   4   7
HETATM    7  C   LIG     1       2.779  -0.332   0.264  1.00  0.00     0.179 C 
BRANCH   7   8
HETATM    8  C   LIG     1       3.330  -1.722   0.076  1.00  0.00    -0.044 A 
HETATM    9  C   LIG     1       4.393  -1.958  -0.812  1.00  0.00     0.010 A 
HETATM   10  C   LIG     1       4.860  -3.257  -1.033  1.00  0.00     0.024 A 
HETATM   11  C   LIG     1       4.269  -4.327  -0.368  1.00  0.00     0.034 A 
HETATM   12  C   LIG     1       3.245  -4.105   0.549  1.00  0.00     0.024 A 
HETATM   13 CL   LIG     1       4.793  -5.933  -0.689  1.00  0.00    -0.084 Cl
HETATM   14  C   LIG     1       2.789  -2.806   0.782  1.00  0.00     0.010 A 
ENDBRANCH   7   8
ENDBRANCH   4   7
ENDBRANCH   2   4
TORSDOF 3
