REMARK  3 active torsions:
REMARK  status: ('A' for Active; 'I' for Inactive)
REMARK    1  A    between atoms: S_1  and  C_2 
REMARK    2  A    between atoms: S_1  and  C_8 
REMARK    3  A    between atoms: C_3  and  N_10 
ROOT
HETATM    1  S   LIG     1       1.292  -0.406  -0.119  1.00  0.00     0.209 S 
HETATM    2  O   LIG     1       1.133  -1.513   0.807  1.00  0.00    -0.217 OA
HETATM    3  O   LIG     1       0.666   0.882   0.111  1.00  0.00    -0.217 OA
ENDROOT
BRANCH   1   4
HETATM    4  C   LIG     1       0.645  -0.962  -1.626  1.00  0.00     0.097 A 
HETATM    5  C   LIG     1       0.623  -2.318  -2.067  1.00  0.00     0.054 A 
HETATM    6  C   LIG     1       0.101  -2.439  -3.334  1.00  0.00     0.080 A 
HETATM    7  S   LIG     1      -0.392  -0.932  -3.979  1.00  0.00    -0.110 SA
HETATM    8  C   LIG     1       0.107  -0.106  -2.567  1.00  0.00     0.075 A 
BRANCH   5   9
HETATM    9  N   LIG     1       1.051  -3.387  -1.358  1.00  0.00    -0.397 N 
ATOM     10  HN2 LIG     1       1.438  -3.297  -0.419  1.00  0.00     0.156 HD
ATOM     11  HN1 LIG     1       1.035  -4.357  -1.673  1.00  0.00     0.156 HD
ENDBRANCH   5   9
ENDBRANCH   1   4
BRANCH   1  12
HETATM   12  C   LIG     1       3.018  -0.156  -0.430  1.00  0.00     0.064 A 
HETATM   13  C   LIG     1       3.916  -1.208  -0.227  1.00  0.00     0.024 A 
HETATM   14  C   LIG     1       5.279  -0.998  -0.442  1.00  0.00     0.002 A 
HETATM   15  C   LIG     1       5.738   0.256  -0.848  1.00  0.00     0.000 A 
HETATM   16  C   LIG     1       4.838   1.306  -1.037  1.00  0.00     0.002 A 
HETATM   17  C   LIG     1       3.474   1.106  -0.823  1.00  0.00     0.024 A 
ENDBRANCH   1  12
TORSDOF 3
