REMARK  2 active torsions:
REMARK  status: ('A' for Active; 'I' for Inactive)
REMARK    1  A    between atoms: C_4  and  N_8 
REMARK    2  A    between atoms: C_6  and  C_7 
ROOT
HETATM    1  N   LIG     1       0.896  -0.662   0.213  1.00  0.00    -0.296 N 
ATOM      2  HN  LIG     1       1.701  -1.254   0.418  1.00  0.00     0.187 HD
HETATM    3  C   LIG     1      -1.200   0.085  -0.242  1.00  0.00     0.081 A 
HETATM    4  C   LIG     1      -0.380   1.183  -0.149  1.00  0.00     0.117 A 
HETATM    5  N   LIG     1       0.869   0.679   0.107  1.00  0.00    -0.281 N 
HETATM    6  C   LIG     1      -0.372  -1.051  -0.011  1.00  0.00     0.062 A 
HETATM    7  C   LIG     1       2.094   1.423   0.268  1.00  0.00     0.179 C 
ENDROOT
BRANCH   6   8
HETATM    8  C   LIG     1      -0.756  -2.469   0.006  1.00  0.00    -0.008 A 
HETATM    9  C   LIG     1       0.173  -3.453   0.383  1.00  0.00     0.014 A 
HETATM   10  C   LIG     1      -0.179  -4.805   0.406  1.00  0.00     0.001 A 
HETATM   11  C   LIG     1      -1.468  -5.195   0.049  1.00  0.00     0.000 A 
HETATM   12  C   LIG     1      -2.402  -4.234  -0.330  1.00  0.00     0.001 A 
HETATM   13  C   LIG     1      -2.049  -2.880  -0.352  1.00  0.00     0.014 A 
ENDBRANCH   6   8
BRANCH   4  14
HETATM   14  N   LIG     1      -0.658   2.496  -0.277  1.00  0.00    -0.384 N 
ATOM     15  HN2 LIG     1      -1.587   2.871  -0.467  1.00  0.00     0.157 HD
ATOM     16  HN1 LIG     1      -0.049   3.311  -0.208  1.00  0.00     0.157 HD
ENDBRANCH   4  14
TORSDOF 2
