REMARK  2 active torsions:
REMARK  status: ('A' for Active; 'I' for Inactive)
REMARK    1  A    between atoms: C_4  and  C_8 
REMARK    2  A    between atoms: C_5  and  N_9 
ROOT
HETATM    1  C   LIG     1       0.939  -0.492   0.090  1.00  0.00     0.081 A 
HETATM    2  N   LIG     1      -1.300  -0.105  -0.025  1.00  0.00    -0.298 N 
ATOM      3  HN  LIG     1      -2.311  -0.219  -0.091  1.00  0.00     0.187 HD
HETATM    4  C   LIG     1      -0.362  -1.070   0.005  1.00  0.00     0.062 A 
HETATM    5  C   LIG     1       0.746   0.865   0.112  1.00  0.00     0.115 A 
HETATM    6  N   LIG     1      -0.606   1.041   0.052  1.00  0.00    -0.285 N 
ATOM      7  HN  LIG     1      -1.049   1.960   0.065  1.00  0.00     0.188 HD
ENDROOT
BRANCH   4   8
HETATM    8  C   LIG     1      -0.725  -2.493  -0.050  1.00  0.00    -0.008 A 
HETATM    9  C   LIG     1       0.233  -3.499   0.155  1.00  0.00     0.015 A 
HETATM   10  C   LIG     1      -0.125  -4.851   0.097  1.00  0.00     0.024 A 
HETATM   11  C   LIG     1      -1.445  -5.209  -0.165  1.00  0.00     0.034 A 
HETATM   12  C   LIG     1      -2.411  -4.229  -0.369  1.00  0.00     0.024 A 
HETATM   13 CL   LIG     1      -1.883  -6.871  -0.236  1.00  0.00    -0.084 Cl
HETATM   14  C   LIG     1      -2.051  -2.878  -0.311  1.00  0.00     0.015 A 
ENDBRANCH   4   8
BRANCH   5  15
HETATM   15  N   LIG     1       1.611   1.892   0.182  1.00  0.00    -0.384 N 
ATOM     16  HN2 LIG     1       2.621   1.760   0.227  1.00  0.00     0.157 HD
ATOM     17  HN1 LIG     1       1.467   2.902   0.198  1.00  0.00     0.157 HD
ENDBRANCH   5  15
TORSDOF 2
