REMARK  2 active torsions:
REMARK  status: ('A' for Active; 'I' for Inactive)
REMARK    1  A    between atoms: S_1  and  C_2 
REMARK    2  A    between atoms: S_1  and  C_4 
ROOT
HETATM    1  S   LIG     1      -0.025  -0.667  -0.655  1.00  0.00     0.207 S 
HETATM    2  O   LIG     1      -0.551   0.627  -0.264  1.00  0.00    -0.217 OA
HETATM    3  O   LIG     1       1.369  -1.020  -0.498  1.00  0.00    -0.217 OA
ENDROOT
BRANCH   1   4
HETATM    4  C   LIG     1      -0.342  -0.750  -2.368  1.00  0.00     0.077 A 
HETATM    5  C   LIG     1      -1.632  -0.585  -2.996  1.00  0.00    -0.033 A 
HETATM    6  C   LIG     1      -1.508  -0.643  -4.374  1.00  0.00     0.057 A 
HETATM    7  C   LIG     1      -2.938  -0.366  -2.305  1.00  0.00     0.050 C 
HETATM    8  S   LIG     1       0.091  -0.935  -4.896  1.00  0.00    -0.112 SA
HETATM    9  C   LIG     1       0.664  -0.970  -3.289  1.00  0.00     0.073 A 
ENDBRANCH   1   4
BRANCH   1  10
HETATM   10  C   LIG     1      -0.997  -1.939   0.100  1.00  0.00     0.064 A 
HETATM   11  C   LIG     1      -0.752  -3.275  -0.232  1.00  0.00     0.025 A 
HETATM   12  C   LIG     1      -1.545  -4.278   0.330  1.00  0.00     0.025 A 
HETATM   13  C   LIG     1      -2.564  -3.941   1.222  1.00  0.00     0.034 A 
HETATM   14  C   LIG     1      -2.790  -2.609   1.573  1.00  0.00     0.025 A 
HETATM   15 CL   LIG     1      -3.554  -5.178   1.893  1.00  0.00    -0.084 Cl
HETATM   16  C   LIG     1      -1.998  -1.601   1.019  1.00  0.00     0.025 A 
ENDBRANCH   1  10
TORSDOF 2
