REMARK  4 active torsions:
REMARK  status: ('A' for Active; 'I' for Inactive)
REMARK    1  A    between atoms: C_1  and  S_5 
REMARK    2  A    between atoms: C_2  and  C_4 
REMARK    3  A    between atoms: S_5  and  C_13 
REMARK    4  A    between atoms: C_12  and  C_13 
ROOT
HETATM    1  C   LIG     1      -3.793   0.249   2.852  1.00  0.00     0.041 A 
HETATM    2  C   LIG     1      -3.382  -0.414   1.686  1.00  0.00     0.026 A 
HETATM    3  C   LIG     1      -3.718  -1.760   1.472  1.00  0.00    -0.048 A 
HETATM    4  C   LIG     1      -4.561  -0.431   3.803  1.00  0.00     0.018 A 
HETATM    5  C   LIG     1      -4.927  -1.759   3.584  1.00  0.00     0.002 A 
HETATM    6  C   LIG     1      -4.511  -2.418   2.424  1.00  0.00     0.008 A 
ENDROOT
BRANCH   3   7
HETATM    7  C   LIG     1      -3.217  -2.494   0.250  1.00  0.00     0.118 C 
BRANCH   7   8
HETATM    8  S   LIG     1      -4.329  -2.305  -1.173  1.00  0.00    -0.118 SA
BRANCH   8   9
HETATM    9  C   LIG     1      -3.483  -3.255  -2.390  1.00  0.00     0.041 A 
HETATM   10  S   LIG     1      -3.173  -4.929  -2.213  1.00  0.00    -0.095 SA
HETATM   11  C   LIG     1      -2.431  -5.024  -3.750  1.00  0.00     0.051 A 
HETATM   12  C   LIG     1      -2.434  -3.809  -4.399  1.00  0.00     0.009 A 
HETATM   13  C   LIG     1      -3.036  -2.784  -3.607  1.00  0.00     0.026 A 
ENDBRANCH   8   9
ENDBRANCH   7   8
ENDBRANCH   3   7
BRANCH   1  14
HETATM   14  C   LIG     1      -3.373   1.659   3.046  1.00  0.00     0.209 C 
HETATM   15  O   LIG     1      -2.709   2.319   2.272  1.00  0.00    -0.644 OA
HETATM   16  O   LIG     1      -3.793   2.171   4.219  1.00  0.00    -0.644 OA
ENDBRANCH   1  14
TORSDOF 4
