REMARK  2 active torsions:
REMARK  status: ('A' for Active; 'I' for Inactive)
REMARK    1  A    between atoms: C_2  and  S_3 
REMARK    2  A    between atoms: C_4  and  C_11 
ROOT
HETATM    1  C   LIG     1       1.072   0.588   0.072  1.00  0.00     0.084 A 
HETATM    2  C   LIG     1       1.020  -0.791  -0.045  1.00  0.00     0.120 A 
HETATM    3  C   LIG     1      -0.235   1.206   0.012  1.00  0.00     0.003 A 
HETATM    4  S   LIG     1      -0.589  -1.352  -0.152  1.00  0.00    -0.088 SA
HETATM    5  C   LIG     1      -1.212   0.234  -0.127  1.00  0.00     0.065 A 
HETATM    6  C   LIG     1       2.314   1.278   0.258  1.00  0.00     0.102 C 
HETATM    7  N   LIG     1       3.309   1.852   0.438  1.00  0.00    -0.191 NA
ENDROOT
BRANCH   2   8
HETATM    8  S   LIG     1       2.291  -2.043  -0.069  1.00  0.00     0.179 S 
HETATM    9  O   LIG     1       1.730  -3.210  -0.716  1.00  0.00    -0.222 OA
HETATM   10  O   LIG     1       3.461  -1.374  -0.594  1.00  0.00    -0.222 OA
HETATM   11  C   LIG     1       2.549  -2.400   1.649  1.00  0.00     0.167 C 
ENDBRANCH   2   8
BRANCH   3  12
HETATM   12  C   LIG     1      -0.600   2.633   0.070  1.00  0.00    -0.024 A 
HETATM   13  C   LIG     1      -1.814   3.043   0.650  1.00  0.00     0.012 A 
HETATM   14  C   LIG     1      -2.175   4.393   0.691  1.00  0.00     0.001 A 
HETATM   15  C   LIG     1      -1.320   5.360   0.172  1.00  0.00     0.000 A 
HETATM   16  C   LIG     1      -0.111   4.975  -0.399  1.00  0.00     0.001 A 
HETATM   17  C   LIG     1       0.241   3.622  -0.461  1.00  0.00     0.012 A 
ENDBRANCH   3  12
TORSDOF 2
