REMARK  2 active torsions:
REMARK  status: ('A' for Active; 'I' for Inactive)
REMARK    1  A    between atoms: C_4  and  S_12 
REMARK    2  A    between atoms: N_10  and  O_13 
ROOT
HETATM    1  C   LIG     1      -1.990   0.865  -0.088  1.00  0.00     0.019 C 
HETATM    2  C   LIG     1      -2.076  -0.581  -0.080  1.00  0.00    -0.037 C 
HETATM    3  C   LIG     1      -0.677   1.492   0.054  1.00  0.00     0.045 C 
HETATM    4  C   LIG     1      -3.250   1.444  -0.104  1.00  0.00     0.053 C 
HETATM    5  S   LIG     1      -4.479   0.267  -0.352  1.00  0.00    -0.093 SA
HETATM    6  C   LIG     1      -3.368  -1.021  -0.274  1.00  0.00     0.059 C 
HETATM    7  C   LIG     1      -0.889  -1.476   0.172  1.00  0.00     0.049 C 
HETATM    8  C   LIG     1       0.477  -0.731   0.201  1.00  0.00    -0.038 C 
HETATM    9  C   LIG     1       0.330   0.673   0.848  1.00  0.00     0.069 C 
HETATM   10  N   LIG     1      -0.245   2.573  -0.526  1.00  0.00    -0.273 N 
ATOM     11  HN  LIG     1       0.660   2.995  -0.317  1.00  0.00     0.194 HD
HETATM   12  C   LIG     1       1.037  -0.610  -1.233  1.00  0.00     0.015 C 
HETATM   13  C   LIG     1       1.479  -1.553   1.032  1.00  0.00     0.015 C 
ENDROOT
BRANCH  10  14
HETATM   14  O   LIG     1      -1.136   3.101  -1.460  1.00  0.00    -0.290 OA
ATOM     15  HO  LIG     1      -0.820   3.891  -1.884  1.00  0.00     0.244 HD
ENDBRANCH  10  14
BRANCH   4  16
HETATM   16  S   LIG     1      -3.692   3.123   0.220  1.00  0.00    -0.126 SA
HETATM   17  C   LIG     1      -4.489   3.564  -1.342  1.00  0.00     0.096 C 
ENDBRANCH   4  16
TORSDOF 2
