REMARK  3 active torsions:
REMARK  status: ('A' for Active; 'I' for Inactive)
REMARK    1  A    between atoms: S_1  and  C_2 
REMARK    2  A    between atoms: S_1  and  C_3 
REMARK    3  A    between atoms: C_3  and  C_5 
ROOT
HETATM    1  S   LIG     1       0.983   0.195  -0.188  1.00  0.00     0.188 S 
HETATM    2  O   LIG     1       0.275   1.148   0.640  1.00  0.00    -0.222 OA
HETATM    3  O   LIG     1       2.434   0.136  -0.217  1.00  0.00    -0.222 OA
ENDROOT
BRANCH   1   4
HETATM    4  C   LIG     1       0.492   0.615  -1.852  1.00  0.00     0.100 A 
HETATM    5  S   LIG     1       1.078  -0.383  -3.113  1.00  0.00    -0.090 SA
HETATM    6  C   LIG     1       0.297   0.557  -4.312  1.00  0.00     0.051 A 
HETATM    7  C   LIG     1      -0.394   1.616  -3.768  1.00  0.00     0.009 A 
HETATM    8  C   LIG     1      -0.281   1.650  -2.348  1.00  0.00     0.031 A 
ENDBRANCH   1   4
BRANCH   1   9
HETATM    9  C   LIG     1       0.340  -1.434   0.093  1.00  0.00     0.215 C 
BRANCH   9  10
HETATM   10  C   LIG     1       0.682  -1.899   1.483  1.00  0.00     0.085 C 
HETATM   11  S   LIG     1      -0.486  -2.281   2.613  1.00  0.00    -0.065 SA
HETATM   12  N   LIG     1       1.995  -2.124   1.778  1.00  0.00    -0.393 N 
ATOM     13  HN2 LIG     1       2.709  -1.891   1.088  1.00  0.00     0.156 HD
ATOM     14  HN1 LIG     1       2.227  -2.439   2.720  1.00  0.00     0.156 HD
ENDBRANCH   9  10
ENDBRANCH   1   9
TORSDOF 3
