REMARK  6 active torsions:
REMARK  status: ('A' for Active; 'I' for Inactive)
REMARK    1  A    between atoms: C_2  and  S_8 
REMARK    2  A    between atoms: C_4  and  C_6 
REMARK    3  A    between atoms: C_6  and  O_12 
REMARK    4  A    between atoms: S_8  and  C_15 
REMARK    5  A    between atoms: O_12  and  C_16 
REMARK    6  A    between atoms: C_15  and  C_17 
ROOT
HETATM    1  C   LIG     1      -0.278   0.668  -0.126  1.00  0.00     0.041 A 
HETATM    2  C   LIG     1       1.041   1.075  -0.105  1.00  0.00     0.056 A 
HETATM    3  C   LIG     1      -0.402  -0.775  -0.161  1.00  0.00    -0.019 A 
HETATM    4  C   LIG     1       0.832  -1.401  -0.263  1.00  0.00     0.088 A 
HETATM    5  S   LIG     1       2.106  -0.253  -0.252  1.00  0.00    -0.076 SA
HETATM    6  C   LIG     1      -1.467   1.520  -0.080  1.00  0.00     0.162 C 
HETATM    7  O   LIG     1      -1.487   2.684  -0.469  1.00  0.00    -0.292 OA
HETATM    8  C   LIG     1      -1.748  -1.456  -0.075  1.00  0.00     0.042 C 
HETATM    9  C   LIG     1      -2.716   0.833   0.444  1.00  0.00     0.084 C 
HETATM   10  C   LIG     1      -2.915  -0.484  -0.304  1.00  0.00     0.012 C 
ENDROOT
BRANCH   4  11
HETATM   11  C   LIG     1       1.093  -2.829  -0.356  1.00  0.00     0.300 C 
HETATM   12  O   LIG     1       0.229  -3.689  -0.354  1.00  0.00    -0.259 OA
BRANCH  11  13
HETATM   13  O   LIG     1       2.432  -3.098  -0.473  1.00  0.00    -0.317 OA
BRANCH  13  14
HETATM   14  C   LIG     1       2.757  -4.487  -0.617  1.00  0.00     0.174 C 
HETATM   15  C   LIG     1       2.579  -4.913  -2.063  1.00  0.00     0.034 C 
ENDBRANCH  13  14
ENDBRANCH  11  13
ENDBRANCH   4  11
BRANCH   2  16
HETATM   16  S   LIG     1       1.686   2.694   0.153  1.00  0.00    -0.122 SA
BRANCH  16  17
HETATM   17  C   LIG     1       1.799   3.292  -1.559  1.00  0.00     0.080 C 
BRANCH  17  18
HETATM   18  C   LIG     1       2.397   4.698  -1.589  1.00  0.00     0.006 C 
HETATM   19  C   LIG     1       2.359   5.279  -2.996  1.00  0.00     0.006 C 
ENDBRANCH  17  18
ENDBRANCH  16  17
ENDBRANCH   2  16
TORSDOF 6
