REMARK  3 active torsions:
REMARK  status: ('A' for Active; 'I' for Inactive)
REMARK    1  A    between atoms: C_3  and  C_9 
REMARK    2  A    between atoms: C_9  and  O_14 
REMARK    3  A    between atoms: O_14  and  C_16 
ROOT
HETATM    1  C   LIG     1       0.630   0.572  -0.069  1.00  0.00     0.059 A 
HETATM    2  C   LIG     1       0.307  -0.728  -0.085  1.00  0.00     0.003 A 
HETATM    3  C   LIG     1      -1.771   0.243  -0.122  1.00  0.00     0.088 A 
HETATM    4  C   LIG     1      -1.089  -0.988  -0.131  1.00  0.00    -0.026 A 
HETATM    5  S   LIG     1      -0.677   1.596  -0.093  1.00  0.00    -0.075 SA
HETATM    6  S   LIG     1       2.267   0.869  -0.027  1.00  0.00    -0.070 SA
HETATM    7  C   LIG     1       2.588  -0.832  -0.031  1.00  0.00     0.093 A 
HETATM    8  C   LIG     1       1.422  -1.607  -0.052  1.00  0.00    -0.022 A 
HETATM    9  C   LIG     1       3.930  -1.325  -0.011  1.00  0.00     0.107 C 
HETATM   10  N   LIG     1       5.015  -1.740   0.003  1.00  0.00    -0.191 NA
HETATM   11  C   LIG     1      -1.745  -2.331  -0.184  1.00  0.00     0.050 C 
HETATM   12  C   LIG     1       1.391  -3.101  -0.045  1.00  0.00     0.051 C 
ENDROOT
BRANCH   3  13
HETATM   13  C   LIG     1      -3.207   0.489  -0.094  1.00  0.00     0.300 C 
HETATM   14  O   LIG     1      -4.052  -0.309   0.294  1.00  0.00    -0.259 OA
BRANCH  13  15
HETATM   15  O   LIG     1      -3.496   1.730  -0.586  1.00  0.00    -0.317 OA
BRANCH  15  16
HETATM   16  C   LIG     1      -4.878   2.104  -0.595  1.00  0.00     0.174 C 
HETATM   17  C   LIG     1      -5.587   1.491  -1.788  1.00  0.00     0.034 C 
ENDBRANCH  15  16
ENDBRANCH  13  15
ENDBRANCH   3  13
TORSDOF 3
