REMARK  2 active torsions:
REMARK  status: ('A' for Active; 'I' for Inactive)
REMARK    1  A    between atoms: C_2  and  C_4 
REMARK    2  A    between atoms: C_3  and  C_7 
REMARK       I    between atoms: C_4  and  N_11 
ROOT
HETATM    1  S   LIG     1       1.267  -1.335   0.141  1.00  0.00    -0.083 SA
HETATM    2  C   LIG     1      -0.438  -1.322   0.029  1.00  0.00     0.073 A 
HETATM    3  C   LIG     1       1.390   0.377   0.097  1.00  0.00     0.032 A 
HETATM    4  C   LIG     1      -0.918  -0.029  -0.036  1.00  0.00     0.026 A 
HETATM    5  C   LIG     1       0.127   0.941   0.008  1.00  0.00     0.023 A 
ENDROOT
BRANCH   3   6
HETATM    6  C   LIG     1       2.697   1.059   0.152  1.00  0.00     0.049 A 
HETATM    7  N   LIG     1       2.619   2.413   0.106  1.00  0.00    -0.365 N 
HETATM    8  C   LIG     1       3.778   3.108   0.147  1.00  0.00     0.088 A 
ATOM      9  HN  LIG     1       1.719   2.889   0.043  1.00  0.00     0.165 HD
HETATM   10  C   LIG     1       5.028   2.522   0.233  1.00  0.00     0.017 A 
HETATM   11  C   LIG     1       5.097   1.138   0.279  1.00  0.00     0.004 A 
HETATM   12  C   LIG     1       3.920   0.394   0.238  1.00  0.00     0.031 A 
ENDBRANCH   3   6
BRANCH   2  13
HETATM   13  C   LIG     1      -1.215  -2.550   0.008  1.00  0.00     0.256 C 
HETATM   14  O   LIG     1      -2.433  -2.595  -0.126  1.00  0.00    -0.267 OA
HETATM   15  N   LIG     1      -0.517  -3.718   0.157  1.00  0.00    -0.366 N 
ATOM     16  HN2 LIG     1       0.496  -3.681   0.268  1.00  0.00     0.159 HD
ATOM     17  HN1 LIG     1      -1.062  -4.580   0.142  1.00  0.00     0.159 HD
ENDBRANCH   2  13
TORSDOF 2
