REMARK  2 active torsions:
REMARK  status: ('A' for Active; 'I' for Inactive)
REMARK    1  A    between atoms: C_1  and  S_3 
REMARK    2  A    between atoms: S_3  and  C_7 
ROOT
HETATM    1  C   LIG     1      -3.724  -3.080  -0.548  1.00  0.00     0.006 A 
HETATM    2  C   LIG     1      -4.325  -4.253  -1.020  1.00  0.00     0.019 A 
HETATM    3  C   LIG     1      -4.532  -2.029  -0.100  1.00  0.00     0.019 A 
HETATM    4  C   LIG     1      -5.923  -2.155  -0.113  1.00  0.00     0.001 A 
HETATM    5  C   LIG     1      -5.716  -4.379  -1.030  1.00  0.00     0.001 A 
HETATM    6  C   LIG     1      -6.514  -3.330  -0.577  1.00  0.00     0.000 A 
ENDROOT
BRANCH   1   7
HETATM    7  S   LIG     1      -1.948  -2.884  -0.556  1.00  0.00    -0.083 SA
BRANCH   7   8
HETATM    8  C   LIG     1      -1.522  -4.216   0.510  1.00  0.00     0.046 A 
HETATM    9  S   LIG     1      -0.461  -5.461   0.010  1.00  0.00    -0.095 SA
HETATM   10  C   LIG     1      -0.596  -6.267   1.513  1.00  0.00     0.051 A 
HETATM   11  C   LIG     1      -1.415  -5.591   2.389  1.00  0.00     0.009 A 
HETATM   12  C   LIG     1      -1.944  -4.399   1.811  1.00  0.00     0.027 A 
ENDBRANCH   7   8
ENDBRANCH   1   7
TORSDOF 2
