REMARK  3 active torsions:
REMARK  status: ('A' for Active; 'I' for Inactive)
REMARK    1  A    between atoms: C_1  and  C_4 
REMARK    2  A    between atoms: S_3  and  C_4 
REMARK    3  A    between atoms: S_3  and  C_8 
ROOT
HETATM    1  S   LIG     1       0.354  -3.011  -0.685  1.00  0.00    -0.123 SA
ENDROOT
BRANCH   1   2
HETATM    2  C   LIG     1       1.632  -1.715  -0.852  1.00  0.00     0.148 C 
BRANCH   2   3
HETATM    3  C   LIG     1       1.984  -1.167   0.517  1.00  0.00     0.080 C 
HETATM    4  S   LIG     1       1.795   0.440   0.924  1.00  0.00    -0.065 SA
HETATM    5  N   LIG     1       2.537  -2.036   1.414  1.00  0.00    -0.393 N 
ATOM      6  HN2 LIG     1       2.774  -1.667   2.335  1.00  0.00     0.156 HD
ATOM      7  HN1 LIG     1       2.653  -3.018   1.165  1.00  0.00     0.156 HD
ENDBRANCH   2   3
ENDBRANCH   1   2
BRANCH   1   8
HETATM    8  C   LIG     1       0.159  -3.450  -2.402  1.00  0.00     0.000 A 
HETATM    9  C   LIG     1       0.394  -4.767  -2.808  1.00  0.00     0.018 A 
HETATM   10  C   LIG     1       0.250  -5.125  -4.151  1.00  0.00     0.001 A 
HETATM   11  C   LIG     1      -0.137  -4.173  -5.092  1.00  0.00     0.000 A 
HETATM   12  C   LIG     1      -0.390  -2.862  -4.691  1.00  0.00     0.001 A 
HETATM   13  C   LIG     1      -0.250  -2.504  -3.348  1.00  0.00     0.018 A 
ENDBRANCH   1   8
TORSDOF 3
