REMARK  4 active torsions:
REMARK  status: ('A' for Active; 'I' for Inactive)
REMARK    1  A    between atoms: C_1  and  C_6 
REMARK    2  A    between atoms: C_2  and  N_7 
REMARK    3  A    between atoms: C_6  and  O_11 
REMARK    4  A    between atoms: O_11  and  C_14 
ROOT
HETATM    1  C   LIG     1       0.097  -0.540  -0.037  1.00  0.00     0.079 A 
HETATM    2  C   LIG     1       1.402  -0.062  -0.014  1.00  0.00     0.085 A 
HETATM    3  S   LIG     1       1.469   1.640  -0.028  1.00  0.00    -0.076 SA
HETATM    4  C   LIG     1      -0.861   0.559  -0.108  1.00  0.00    -0.030 A 
HETATM    5  C   LIG     1      -0.226   1.791  -0.080  1.00  0.00    -0.012 A 
HETATM    6  C   LIG     1      -2.348   0.377  -0.171  1.00  0.00     0.050 C 
HETATM    7  C   LIG     1      -0.838   3.153  -0.088  1.00  0.00     0.057 C 
ENDROOT
BRANCH   1   8
HETATM    8  C   LIG     1      -0.263  -1.965   0.011  1.00  0.00     0.296 C 
HETATM    9  O   LIG     1      -1.414  -2.376  -0.041  1.00  0.00    -0.259 OA
BRANCH   8  10
HETATM   10  O   LIG     1       0.825  -2.785   0.161  1.00  0.00    -0.318 OA
BRANCH  10  11
HETATM   11  C   LIG     1       0.559  -4.187   0.260  1.00  0.00     0.174 C 
HETATM   12  C   LIG     1       0.146  -4.541   1.676  1.00  0.00     0.034 C 
ENDBRANCH  10  11
ENDBRANCH   8  10
ENDBRANCH   1   8
BRANCH   2  13
HETATM   13  N   LIG     1       2.556  -0.765   0.026  1.00  0.00    -0.393 N 
ATOM     14  HN2 LIG     1       2.516  -1.784   0.034  1.00  0.00     0.156 HD
ATOM     15  HN1 LIG     1       3.514  -0.414   0.043  1.00  0.00     0.156 HD
ENDBRANCH   2  13
TORSDOF 4
