REMARK  2 active torsions:
REMARK  status: ('A' for Active; 'I' for Inactive)
REMARK    1  A    between atoms: C_1  and  S_4 
REMARK    2  A    between atoms: S_4  and  C_7 
ROOT
HETATM    1  C   LIG     1      -3.403  -2.861  -0.216  1.00  0.00     0.005 A 
HETATM    2  C   LIG     1      -3.713  -4.089   0.376  1.00  0.00     0.019 A 
HETATM    3  C   LIG     1      -4.434  -2.074  -0.744  1.00  0.00     0.019 A 
HETATM    4  C   LIG     1      -5.760  -2.500  -0.656  1.00  0.00     0.001 A 
HETATM    5  C   LIG     1      -5.040  -4.516   0.460  1.00  0.00     0.001 A 
HETATM    6  C   LIG     1      -6.063  -3.719  -0.052  1.00  0.00     0.000 A 
ENDROOT
BRANCH   1   7
HETATM    7  S   LIG     1      -1.705  -2.323  -0.298  1.00  0.00    -0.090 SA
BRANCH   7   8
HETATM    8  C   LIG     1      -1.705  -0.860   0.683  1.00  0.00     0.012 A 
HETATM    9  C   LIG     1      -0.827   0.227   0.411  1.00  0.00     0.026 A 
HETATM   10  C   LIG     1      -1.001   1.267   1.300  1.00  0.00     0.051 A 
HETATM   11  S   LIG     1      -2.205   0.922   2.465  1.00  0.00    -0.112 SA
HETATM   12  C   LIG     1      -2.494  -0.624   1.787  1.00  0.00     0.068 A 
ENDBRANCH   7   8
ENDBRANCH   1   7
TORSDOF 2
