REMARK  1 active torsions:
REMARK  status: ('A' for Active; 'I' for Inactive)
REMARK    1  A    between atoms: C_1  and  C_2 
ROOT
HETATM    1  C   LIG     1      -0.693  -0.928  -0.384  1.00  0.00     0.347 C 
HETATM    2  N   LIG     1       0.730  -0.696  -0.733  1.00  0.00    -0.051 N 
ATOM      3  HN1 LIG     1       0.875  -0.497  -1.723  1.00  0.00     0.279 HD
ATOM      4  HN2 LIG     1       1.299  -1.541  -0.688  1.00  0.00     0.279 HD
HETATM    5  S   LIG     1      -1.395   0.654   0.173  1.00  0.00    -0.124 SA
HETATM    6  C   LIG     1       1.209   0.374   0.150  1.00  0.00     0.244 C 
HETATM    7  C   LIG     1       0.194   1.506   0.135  1.00  0.00     0.104 C 
ENDROOT
BRANCH   1   8
HETATM    8  C   LIG     1      -1.483  -1.444  -1.597  1.00  0.00     0.215 C 
HETATM    9  O   LIG     1      -2.525  -2.082  -1.572  1.00  0.00    -0.646 OA
HETATM   10  O   LIG     1      -0.957  -1.066  -2.790  1.00  0.00    -0.646 OA
ENDBRANCH   1   8
TORSDOF 1
