REMARK  1 active torsions:
REMARK  status: ('A' for Active; 'I' for Inactive)
REMARK    1  A    between atoms: C_2  and  C_3 
ROOT
HETATM    1  S   LIG     1      -1.026  -1.095  -0.475  1.00  0.00    -0.151 SA
HETATM    2  C   LIG     1       0.707  -1.095   0.083  1.00  0.00     0.094 C 
HETATM    3  C   LIG     1       1.208   0.318  -0.182  1.00  0.00     0.099 C 
HETATM    4  C   LIG     1       0.059   1.253   0.091  1.00  0.00     0.137 C 
HETATM    5  C   LIG     1      -1.312   0.646  -0.071  1.00  0.00     0.152 C 
HETATM    6  O   LIG     1       0.231   2.436   0.376  1.00  0.00    -0.297 OA
ENDROOT
BRANCH   2   7
HETATM    7  C   LIG     1       0.806  -1.523   1.527  1.00  0.00    -0.003 A 
HETATM    8  S   LIG     1       1.188  -3.164   1.882  1.00  0.00    -0.105 SA
HETATM    9  C   LIG     1       1.120  -2.892   3.566  1.00  0.00     0.050 A 
HETATM   10  C   LIG     1       0.820  -1.585   3.866  1.00  0.00     0.008 A 
HETATM   11  C   LIG     1       0.639  -0.794   2.693  1.00  0.00     0.016 A 
ENDBRANCH   2   7
TORSDOF 1
