REMARK  6 active torsions:
REMARK  status: ('A' for Active; 'I' for Inactive)
REMARK    1  A    between atoms: C_1  and  C_6 
REMARK    2  A    between atoms: S_4  and  C_6 
REMARK    3  A    between atoms: S_4  and  C_8 
REMARK    4  A    between atoms: C_5  and  O_7 
REMARK    5  A    between atoms: O_7  and  C_9 
REMARK    6  A    between atoms: C_8  and  C_9 
ROOT
HETATM    1  O   LIG     1       1.422   0.231  -2.718  1.00  0.00    -0.350 OA
ENDROOT
BRANCH   1   2
HETATM    2  C   LIG     1       0.850  -0.517  -3.709  1.00  0.00     0.068 A 
HETATM    3  C   LIG     1      -0.524  -0.745  -3.578  1.00  0.00     0.037 A 
HETATM    4  C   LIG     1      -1.207  -1.526  -4.515  1.00  0.00     0.003 A 
HETATM    5  C   LIG     1      -0.513  -2.096  -5.579  1.00  0.00     0.000 A 
HETATM    6  C   LIG     1       0.858  -1.875  -5.710  1.00  0.00     0.003 A 
HETATM    7  C   LIG     1       1.540  -1.089  -4.776  1.00  0.00     0.037 A 
ENDBRANCH   1   2
BRANCH   1   8
HETATM    8  C   LIG     1       2.625   0.944  -3.049  1.00  0.00     0.186 C 
BRANCH   8   9
HETATM    9  C   LIG     1       2.728   2.098  -2.047  1.00  0.00     0.101 C 
BRANCH   9  10
HETATM   10  S   LIG     1       4.153   3.190  -2.360  1.00  0.00    -0.156 SA
BRANCH  10  11
HETATM   11  C   LIG     1       3.877   4.420  -1.034  1.00  0.00     0.186 C 
BRANCH  11  12
HETATM   12  C   LIG     1       3.984   3.816   0.341  1.00  0.00     0.182 C 
HETATM   13  O   LIG     1       3.079   3.754   1.170  1.00  0.00    -0.647 OA
HETATM   14  O   LIG     1       5.207   3.339   0.637  1.00  0.00    -0.647 OA
ENDBRANCH  11  12
ENDBRANCH  10  11
ENDBRANCH   9  10
ENDBRANCH   8   9
ENDBRANCH   1   8
TORSDOF 6
