REMARK  0 active torsions:
REMARK  status: ('A' for Active; 'I' for Inactive)
ROOT
HETATM    1  O   LIG     1       1.138   1.358   0.038  1.00  0.00    -0.336 OA
HETATM    2  C   LIG     1      -0.010   0.621   0.017  1.00  0.00     0.080 A 
HETATM    3  C   LIG     1      -0.038  -0.775   0.014  1.00  0.00    -0.002 A 
HETATM    4  C   LIG     1       1.205  -1.526   0.032  1.00  0.00     0.013 A 
HETATM    5  N   LIG     1      -4.731  -1.977   0.005  1.00  0.00    -0.191 NA
HETATM    6  C   LIG     1       2.408   0.674  -0.027  1.00  0.00     0.078 A 
HETATM    7  C   LIG     1       2.348  -0.836   0.015  1.00  0.00     0.011 A 
HETATM    8  C   LIG     1      -3.719  -1.407   0.002  1.00  0.00     0.099 C 
HETATM    9  C   LIG     1      -1.269  -1.442   0.005  1.00  0.00     0.037 A 
HETATM   10  C   LIG     1      -1.202   1.348   0.011  1.00  0.00     0.039 A 
HETATM   11  C   LIG     1      -2.465  -0.715   0.002  1.00  0.00     0.045 A 
HETATM   12  C   LIG     1      -2.430   0.683   0.002  1.00  0.00     0.025 A 
HETATM   13  C   LIG     1       3.071   1.109  -1.339  1.00  0.00     0.051 C 
HETATM   14  C   LIG     1       3.224   1.175   1.170  1.00  0.00     0.051 C 
ENDROOT
TORSDOF 0
