REMARK  2 active torsions:
REMARK  status: ('A' for Active; 'I' for Inactive)
REMARK    1  A    between atoms: C_2  and  C_8 
REMARK    2  A    between atoms: C_8  and  O_10 
ROOT
HETATM    1  N   LIG     1       0.755   1.280  -0.320  1.00  0.00     0.094 N 
HETATM    2  C   LIG     1       1.425   0.022   0.112  1.00  0.00     0.274 C 
HETATM    3  N   LIG     1      -0.800  -1.253   0.273  1.00  0.00     0.088 N 
HETATM    4  C   LIG     1       0.603  -1.270  -0.198  1.00  0.00     0.309 C 
HETATM    5  C   LIG     1      -0.632   1.288   0.194  1.00  0.00     0.302 C 
HETATM    6  C   LIG     1      -1.449   0.011  -0.119  1.00  0.00     0.302 C 
HETATM    7  C   LIG     1       0.769   1.477  -1.771  1.00  0.00     0.310 C 
HETATM    8  C   LIG     1      -0.880  -1.471   1.717  1.00  0.00     0.310 C 
ENDROOT
BRANCH   2   9
HETATM    9  C   LIG     1       2.870  -0.122  -0.419  1.00  0.00     0.201 C 
BRANCH   9  10
HETATM   10  O   LIG     1       3.578  -1.144   0.280  1.00  0.00    -0.399 OA
ATOM     11  HO  LIG     1       4.466  -1.232  -0.046  1.00  0.00     0.209 HD
ENDBRANCH   9  10
ENDBRANCH   2   9
TORSDOF 2
