REMARK  2 active torsions:
REMARK  status: ('A' for Active; 'I' for Inactive)
REMARK    1  A    between atoms: O_4  and  C_9 
REMARK    2  A    between atoms: C_8  and  C_9 
ROOT
HETATM    1  N   LIG     1       0.710   1.266  -0.236  1.00  0.00    -0.075 N 
ATOM      2  HN1 LIG     1       0.746   1.358  -1.251  1.00  0.00     0.277 HD
ATOM      3  HN2 LIG     1       1.202   2.123   0.014  1.00  0.00     0.277 HD
HETATM    4  C   LIG     1       1.427   0.076   0.225  1.00  0.00     0.232 C 
HETATM    5  C   LIG     1      -0.668   1.269   0.259  1.00  0.00     0.232 C 
HETATM    6  C   LIG     1      -0.723  -1.260   0.211  1.00  0.00     0.012 C 
HETATM    7  C   LIG     1      -1.437   0.034  -0.205  1.00  0.00     0.034 C 
HETATM    8  C   LIG     1       0.747  -1.213  -0.236  1.00  0.00     0.034 C 
ENDROOT
BRANCH   6   9
HETATM    9  C   LIG     1      -1.456  -2.480  -0.350  1.00  0.00     0.168 C 
BRANCH   9  10
HETATM   10  O   LIG     1      -0.889  -3.685   0.146  1.00  0.00    -0.400 OA
ATOM     11  HO  LIG     1      -1.344  -4.443  -0.202  1.00  0.00     0.209 HD
ENDBRANCH   9  10
ENDBRANCH   6   9
TORSDOF 2
