REMARK  0 active torsions:
REMARK  status: ('A' for Active; 'I' for Inactive)
ROOT
HETATM    1  S   LIG     1      -1.749  -1.475  -0.005  1.00  0.00     0.198 S 
HETATM    2  C   LIG     1      -0.163  -0.742  -0.002  1.00  0.00     0.074 A 
HETATM    3  C   LIG     1      -2.549   0.065  -0.002  1.00  0.00     0.122 A 
HETATM    4  C   LIG     1      -0.282   0.649   0.001  1.00  0.00    -0.006 A 
HETATM    5  C   LIG     1      -1.683   1.096   0.002  1.00  0.00    -0.039 A 
HETATM    6  O   LIG     1      -1.935  -2.142   1.265  1.00  0.00    -0.218 OA
HETATM    7  O   LIG     1      -1.931  -2.135  -1.280  1.00  0.00    -0.218 OA
HETATM    8  C   LIG     1       1.045  -1.419  -0.002  1.00  0.00     0.026 A 
HETATM    9  C   LIG     1       0.878   1.413   0.002  1.00  0.00     0.037 A 
HETATM   10  C   LIG     1       2.117   0.757   0.001  1.00  0.00     0.035 A 
HETATM   11  C   LIG     1       2.204  -0.645  -0.000  1.00  0.00     0.025 A 
HETATM   12 CL   LIG     1       3.565   1.690   0.002  1.00  0.00    -0.084 Cl
HETATM   13  C   LIG     1      -2.058   2.537   0.007  1.00  0.00     0.050 C 
ENDROOT
TORSDOF 0
