REMARK  2 active torsions:
REMARK  status: ('A' for Active; 'I' for Inactive)
REMARK    1  A    between atoms: C_1  and  N_9 
REMARK    2  A    between atoms: C_3  and  C_6 
ROOT
HETATM    1  C   LIG     1       1.167  -1.406   0.031  1.00  0.00     0.025 A 
HETATM    2  C   LIG     1      -0.069  -0.706  -0.048  1.00  0.00     0.013 A 
HETATM    3  C   LIG     1       2.290   0.734  -0.013  1.00  0.00     0.118 A 
HETATM    4  N   LIG     1       1.109   1.405  -0.056  1.00  0.00    -0.352 N 
ATOM      5  HN  LIG     1       1.092   2.425  -0.073  1.00  0.00     0.166 HD
HETATM    6  C   LIG     1       2.347  -0.657   0.037  1.00  0.00     0.059 A 
HETATM    7  C   LIG     1      -0.034   0.704  -0.076  1.00  0.00     0.044 A 
HETATM    8  C   LIG     1      -1.330  -1.350  -0.119  1.00  0.00     0.022 A 
HETATM    9  C   LIG     1      -1.229   1.407  -0.129  1.00  0.00     0.031 A 
HETATM   10  C   LIG     1      -2.528  -0.629  -0.184  1.00  0.00    -0.061 A 
HETATM   11  C   LIG     1      -2.468   0.762  -0.173  1.00  0.00     0.009 A 
HETATM   12  C   LIG     1      -3.842  -1.348  -0.222  1.00  0.00     0.048 C 
ENDROOT
BRANCH   1  13
HETATM   13  N   LIG     1       1.184  -2.815   0.125  1.00  0.00    -0.279 NA
HETATM   14  C   LIG     1       2.305  -3.536  -0.511  1.00  0.00     0.123 C 
HETATM   15  C   LIG     1       2.039  -5.060  -0.481  1.00  0.00     0.247 C 
HETATM   16  N   LIG     1       1.794  -5.587   0.880  1.00  0.00    -0.073 N 
HETATM   17  C   LIG     1       0.680  -4.828   1.487  1.00  0.00     0.247 C 
ATOM     18  HN2 LIG     1       2.634  -5.579   1.459  1.00  0.00     0.277 HD
ATOM     19  HN1 LIG     1       1.630  -6.594   0.885  1.00  0.00     0.277 HD
HETATM   20  C   LIG     1       0.904  -3.297   1.500  1.00  0.00     0.123 C 
ENDBRANCH   1  13
BRANCH   3  21
HETATM   21  C   LIG     1       3.596   1.514  -0.009  1.00  0.00     0.432 C 
HETATM   22  F   LIG     1       3.450   2.869  -0.050  1.00  0.00    -0.165 F 
HETATM   23  F   LIG     1       4.351   1.256   1.101  1.00  0.00    -0.165 F 
HETATM   24  F   LIG     1       4.395   1.194  -1.069  1.00  0.00    -0.165 F 
ENDBRANCH   3  21
TORSDOF 2
