REMARK  5 active torsions:
REMARK  status: ('A' for Active; 'I' for Inactive)
REMARK    1  A    between atoms: N_2  and  C_4 
REMARK    2  A    between atoms: C_4  and  C_11 
REMARK    3  A    between atoms: C_9  and  C_13 
REMARK    4  A    between atoms: C_10  and  O_12 
REMARK    5  A    between atoms: O_12  and  C_13 
ROOT
HETATM    1  N   LIG     1       6.933   6.014   6.577  1.00  0.00    -0.197 NA
HETATM    2  C   LIG     1       5.849   5.939   6.189  1.00  0.00     0.061 C 
HETATM    3  C   LIG     1       4.455   5.856   5.704  1.00  0.00     0.150 C 
ENDROOT
BRANCH   3   4
HETATM    4  C   LIG     1       4.238   4.605   4.841  1.00  0.00     0.182 C 
BRANCH   4   5
HETATM    5  O   LIG     1       2.879   4.523   4.394  1.00  0.00    -0.385 OA
BRANCH   5   6
HETATM    6  C   LIG     1       2.584   3.386   3.553  1.00  0.00     0.124 C 
HETATM    7  C   LIG     1       2.557   2.051   4.319  1.00  0.00     0.062 C 
HETATM    8  C   LIG     1       1.384   1.977   5.306  1.00  0.00     0.275 C 
HETATM    9  N   LIG     1       0.072   2.247   4.700  1.00  0.00     0.092 N 
HETATM   10  C   LIG     1       0.115   3.545   4.003  1.00  0.00     0.275 C 
HETATM   11  C   LIG     1       1.201   3.605   2.924  1.00  0.00     0.062 C 
BRANCH   9  12
HETATM   12  C   LIG     1      -0.376   1.142   3.833  1.00  0.00     0.311 C 
BRANCH  12  13
HETATM   13  C   LIG     1      -1.761   1.354   3.258  1.00  0.00    -0.030 A 
HETATM   14  C   LIG     1      -1.937   1.444   1.869  1.00  0.00     0.009 A 
HETATM   15  C   LIG     1      -3.203   1.663   1.328  1.00  0.00     0.001 A 
HETATM   16  C   LIG     1      -4.305   1.795   2.169  1.00  0.00     0.000 A 
HETATM   17  C   LIG     1      -4.143   1.712   3.551  1.00  0.00     0.001 A 
HETATM   18  C   LIG     1      -2.877   1.492   4.095  1.00  0.00     0.009 A 
ENDBRANCH  12  13
ENDBRANCH   9  12
ENDBRANCH   5   6
ENDBRANCH   4   5
ENDBRANCH   3   4
TORSDOF 5
