REMARK  5 active torsions:
REMARK  status: ('A' for Active; 'I' for Inactive)
REMARK    1  A    between atoms: C_1  and  N_9 
REMARK    2  A    between atoms: C_2  and  C_5 
REMARK    3  A    between atoms: N_9  and  C_17 
REMARK    4  A    between atoms: O_14  and  C_19 
REMARK    5  A    between atoms: C_17  and  C_19 
ROOT
HETATM    1  C   LIG     1       0.942   1.348  -0.268  1.00  0.00     0.044 A 
HETATM    2  C   LIG     1       2.305  -0.641  -0.070  1.00  0.00     0.119 A 
HETATM    3  N   LIG     1       1.209  -1.437   0.019  1.00  0.00    -0.352 N 
ATOM      4  HN  LIG     1       1.309  -2.440   0.174  1.00  0.00     0.166 HD
HETATM    5  C   LIG     1       2.200   0.740  -0.204  1.00  0.00     0.064 A 
HETATM    6  C   LIG     1      -0.203   0.504  -0.289  1.00  0.00     0.017 A 
HETATM    7  C   LIG     1      -0.004  -0.885  -0.100  1.00  0.00     0.045 A 
HETATM    8  C   LIG     1      -1.521   0.964  -0.520  1.00  0.00     0.016 A 
HETATM    9  C   LIG     1      -1.109  -1.722  -0.049  1.00  0.00     0.030 A 
HETATM   10  C   LIG     1      -2.614   0.098  -0.497  1.00  0.00     0.001 A 
HETATM   11  C   LIG     1      -2.408  -1.249  -0.236  1.00  0.00     0.002 A 
ENDROOT
BRANCH   1  12
HETATM   12  N   LIG     1       0.825   2.749  -0.274  1.00  0.00    -0.382 N 
HETATM   13  C   LIG     1       1.850   3.536  -0.957  1.00  0.00     0.150 C 
BRANCH  12  14
HETATM   14  C   LIG     1       0.190   3.364   0.922  1.00  0.00     0.148 C 
BRANCH  14  15
HETATM   15  C   LIG     1       1.197   3.850   1.982  1.00  0.00     0.183 C 
BRANCH  15  16
HETATM   16  O   LIG     1       1.988   2.797   2.522  1.00  0.00    -0.399 OA
ATOM     17  HO  LIG     1       2.609   3.097   3.176  1.00  0.00     0.209 HD
ENDBRANCH  15  16
ENDBRANCH  14  15
ENDBRANCH  12  14
ENDBRANCH   1  12
BRANCH   2  18
HETATM   18  C   LIG     1       3.695  -1.257  -0.020  1.00  0.00     0.432 C 
HETATM   19  F   LIG     1       3.713  -2.613   0.109  1.00  0.00    -0.165 F 
HETATM   20  F   LIG     1       4.419  -0.981  -1.146  1.00  0.00    -0.165 F 
HETATM   21  F   LIG     1       4.443  -0.772   1.014  1.00  0.00    -0.165 F 
ENDBRANCH   2  18
TORSDOF 5
