REMARK  0 active torsions:
REMARK  status: ('A' for Active; 'I' for Inactive)
ROOT
HETATM    1  C   LIG     1      -1.387  -1.396  -0.001  1.00  0.00     0.294 A 
HETATM    2  C   LIG     1      -0.113  -0.692  -0.009  1.00  0.00     0.049 A 
HETATM    3  O   LIG     1      -2.362  -0.437  -0.000  1.00  0.00    -0.313 OA
HETATM    4  C   LIG     1      -0.354   0.664  -0.016  1.00  0.00    -0.018 A 
HETATM    5  C   LIG     1       1.164  -1.227   0.015  1.00  0.00     0.044 A 
HETATM    6  C   LIG     1      -1.811   0.898   0.002  1.00  0.00     0.218 A 
HETATM    7  O   LIG     1      -1.551  -2.598  -0.001  1.00  0.00    -0.259 OA
HETATM    8  C   LIG     1       0.699   1.558  -0.002  1.00  0.00     0.012 A 
HETATM    9  C   LIG     1       2.247  -0.346  -0.010  1.00  0.00     0.047 A 
HETATM   10  N   LIG     1       3.548  -0.828   0.175  1.00  0.00    -0.102 NA
HETATM   11  C   LIG     1       2.002   1.042   0.020  1.00  0.00     0.027 A 
ENDROOT
TORSDOF 0
