REMARK  1 active torsions:
REMARK  status: ('A' for Active; 'I' for Inactive)
REMARK    1  A    between atoms: C_1  and  O_9 
ROOT
HETATM    1  C   LIG     1       0.765   1.410  -0.305  1.00  0.00     0.176 C 
HETATM    2  C   LIG     1       1.246   1.826  -1.601  1.00  0.00     0.100 C 
HETATM    3  N   LIG     1      -1.308  -0.023   0.038  1.00  0.00     0.092 N 
HETATM    4  N   LIG     1       1.630   2.158  -2.635  1.00  0.00    -0.194 NA
HETATM    5  C   LIG     1      -0.793   1.338  -0.288  1.00  0.00     0.326 C 
HETATM    6  C   LIG     1       1.295  -0.014   0.036  1.00  0.00     0.040 C 
HETATM    7  C   LIG     1       0.738  -1.037  -0.979  1.00  0.00     0.039 C 
HETATM    8  C   LIG     1       0.741  -0.435   1.412  1.00  0.00     0.039 C 
HETATM    9  C   LIG     1      -0.799  -0.977  -0.974  1.00  0.00     0.273 C 
HETATM   10  C   LIG     1      -0.795  -0.419   1.370  1.00  0.00     0.273 C 
ENDROOT
BRANCH   1  11
HETATM   11  O   LIG     1       1.223   2.311   0.720  1.00  0.00    -0.373 OA
ATOM     12  HO  LIG     1       0.906   2.037   1.573  1.00  0.00     0.212 HD
ENDBRANCH   1  11
TORSDOF 1
