REMARK  3 active torsions:
REMARK  status: ('A' for Active; 'I' for Inactive)
REMARK    1  A    between atoms: C_3  and  C_9 
REMARK    2  A    between atoms: O_5  and  C_8 
REMARK    3  A    between atoms: C_8  and  C_9 
ROOT
HETATM    1  N   LIG     1       0.939   1.307   0.003  1.00  0.00    -0.375 N 
ATOM      2  HN  LIG     1       1.326   2.251  -0.004  1.00  0.00     0.164 HD
HETATM    3  C   LIG     1      -0.976  -0.177  -0.104  1.00  0.00    -0.041 A 
HETATM    4  C   LIG     1      -0.388   1.084  -0.121  1.00  0.00     0.094 A 
HETATM    5  C   LIG     1       1.727   0.219   0.136  1.00  0.00     0.087 A 
HETATM    6  C   LIG     1      -0.127  -1.278   0.055  1.00  0.00     0.010 A 
HETATM    7  C   LIG     1       1.246  -1.077   0.169  1.00  0.00     0.018 A 
ENDROOT
BRANCH   3   8
HETATM    8  C   LIG     1      -2.464  -0.346  -0.261  1.00  0.00     0.066 C 
BRANCH   8   9
HETATM    9  C   LIG     1      -3.224  -0.294   1.063  1.00  0.00     0.168 C 
BRANCH   9  10
HETATM   10  O   LIG     1      -3.274   1.034   1.573  1.00  0.00    -0.401 OA
ATOM     11  HO  LIG     1      -3.747   1.066   2.396  1.00  0.00     0.209 HD
ENDBRANCH   9  10
ENDBRANCH   8   9
ENDBRANCH   3   8
TORSDOF 3
