REMARK  4 active torsions:
REMARK  status: ('A' for Active; 'I' for Inactive)
REMARK    1  A    between atoms: C_4  and  C_9 
REMARK    2  A    between atoms: N_5  and  C_9 
REMARK    3  A    between atoms: N_5  and  C_11 
REMARK    4  A    between atoms: C_8  and  C_11 
ROOT
HETATM    1  N   LIG     1       3.611  -3.769  -3.017  1.00  0.00    -0.197 NA
HETATM    2  C   LIG     1       3.248  -3.175  -2.085  1.00  0.00     0.060 C 
HETATM    3  C   LIG     1       2.797  -2.423  -0.909  1.00  0.00     0.151 C 
ENDROOT
BRANCH   3   4
HETATM    4  C   LIG     1       3.331  -3.062   0.377  1.00  0.00     0.246 C 
BRANCH   4   5
HETATM    5  N   LIG     1       2.878  -2.330   1.564  1.00  0.00    -0.072 N 
ATOM      6  HN2 LIG     1       3.116  -1.340   1.506  1.00  0.00     0.277 HD
ATOM      7  HN1 LIG     1       1.862  -2.246   1.587  1.00  0.00     0.277 HD
BRANCH   5   8
HETATM    8  C   LIG     1       3.398  -2.940   2.801  1.00  0.00     0.264 C 
BRANCH   8   9
HETATM    9  C   LIG     1       2.929  -2.165   4.050  1.00  0.00     0.147 C 
HETATM   10  O   LIG     1       3.426  -0.808   3.988  1.00  0.00    -0.384 OA
HETATM   11  C   LIG     1       4.167  -0.541   5.185  1.00  0.00     0.168 C 
HETATM   12  C   LIG     1       4.640  -1.885   5.682  1.00  0.00     0.029 C 
HETATM   13  C   LIG     1       3.462  -2.767   5.348  1.00  0.00     0.036 C 
ENDBRANCH   8   9
ENDBRANCH   5   8
ENDBRANCH   4   5
ENDBRANCH   3   4
TORSDOF 4
