REMARK  1 active torsions:
REMARK  status: ('A' for Active; 'I' for Inactive)
REMARK    1  A    between atoms: N_3  and  O_6 
ROOT
HETATM    1  C   LIG     1       0.030   0.709   0.049  1.00  0.00    -0.005 A 
HETATM    2  C   LIG     1      -1.259   1.465   0.066  1.00  0.00     0.042 C 
HETATM    3  N   LIG     1      -1.257   2.728   0.375  1.00  0.00    -0.273 N 
ATOM      4  HN  LIG     1      -0.416   3.253   0.616  1.00  0.00     0.194 HD
HETATM    5  C   LIG     1       0.024  -0.694  -0.017  1.00  0.00    -0.046 A 
HETATM    6  C   LIG     1      -2.501   0.674  -0.314  1.00  0.00     0.060 C 
HETATM    7  C   LIG     1      -2.467  -0.682   0.373  1.00  0.00     0.011 C 
HETATM    8  C   LIG     1       1.244   1.407   0.093  1.00  0.00     0.014 A 
HETATM    9  C   LIG     1      -1.256  -1.486  -0.085  1.00  0.00     0.040 C 
HETATM   10  C   LIG     1       1.250  -1.377  -0.062  1.00  0.00     0.008 A 
HETATM   11  C   LIG     1       2.454   0.714   0.054  1.00  0.00     0.001 A 
HETATM   12  C   LIG     1       2.456  -0.677  -0.025  1.00  0.00     0.001 A 
ENDROOT
BRANCH   3  13
HETATM   13  O   LIG     1      -2.538   3.284   0.339  1.00  0.00    -0.290 OA
ATOM     14  HO  LIG     1      -2.537   4.207   0.565  1.00  0.00     0.244 HD
ENDBRANCH   3  13
TORSDOF 1
