REMARK  4 active torsions:
REMARK  status: ('A' for Active; 'I' for Inactive)
REMARK    1  A    between atoms: N_1  and  C_2 
REMARK    2  A    between atoms: C_2  and  C_5 
REMARK    3  A    between atoms: C_8  and  C_11 
REMARK    4  A    between atoms: O_9  and  C_11 
ROOT
HETATM    1  N   LIG     1       0.511   1.194  -0.125  1.00  0.00     0.092 N 
HETATM    2  C   LIG     1       1.294   0.055   0.373  1.00  0.00     0.273 C 
HETATM    3  C   LIG     1      -0.839   1.167   0.457  1.00  0.00     0.273 C 
HETATM    4  C   LIG     1       0.637  -1.309   0.133  1.00  0.00     0.037 C 
HETATM    5  C   LIG     1      -1.602  -0.131   0.185  1.00  0.00     0.037 C 
HETATM    6  C   LIG     1      -0.807  -1.360   0.652  1.00  0.00     0.012 C 
ENDROOT
BRANCH   1   7
HETATM    7  C   LIG     1       0.518   1.259  -1.599  1.00  0.00     0.311 C 
BRANCH   7   8
HETATM    8  C   LIG     1      -0.057   2.544  -2.161  1.00  0.00    -0.030 A 
HETATM    9  C   LIG     1      -1.170   2.517  -3.013  1.00  0.00     0.009 A 
HETATM   10  C   LIG     1      -1.695   3.698  -3.540  1.00  0.00     0.001 A 
HETATM   11  C   LIG     1      -1.105   4.922  -3.226  1.00  0.00     0.000 A 
HETATM   12  C   LIG     1       0.007   4.963  -2.390  1.00  0.00     0.001 A 
HETATM   13  C   LIG     1       0.530   3.783  -1.858  1.00  0.00     0.009 A 
ENDBRANCH   7   8
ENDBRANCH   1   7
BRANCH   6  14
HETATM   14  C   LIG     1      -1.486  -2.663   0.217  1.00  0.00     0.168 C 
BRANCH  14  15
HETATM   15  O   LIG     1      -2.820  -2.733   0.702  1.00  0.00    -0.400 OA
ATOM     16  HO  LIG     1      -3.241  -3.541   0.432  1.00  0.00     0.209 HD
ENDBRANCH  14  15
ENDBRANCH   6  14
TORSDOF 4
