REMARK  4 active torsions:
REMARK  status: ('A' for Active; 'I' for Inactive)
REMARK    1  A    between atoms: C_3  and  C_12 
REMARK    2  A    between atoms: C_8  and  C_13 
REMARK    3  A    between atoms: N_9  and  C_13 
REMARK    4  A    between atoms: N_9  and  C_12 
ROOT
HETATM    1  N   LIG     1       4.701   3.078   3.054  1.00  0.00    -0.197 NA
HETATM    2  C   LIG     1       4.218   2.597   2.116  1.00  0.00     0.060 C 
HETATM    3  C   LIG     1       3.609   1.983   0.925  1.00  0.00     0.151 C 
ENDROOT
BRANCH   3   4
HETATM    4  C   LIG     1       4.158   2.626  -0.354  1.00  0.00     0.246 C 
BRANCH   4   5
HETATM    5  N   LIG     1       3.562   2.033  -1.559  1.00  0.00    -0.069 N 
ATOM      6  HN2 LIG     1       3.693   1.022  -1.585  1.00  0.00     0.277 HD
ATOM      7  HN1 LIG     1       2.543   2.056  -1.525  1.00  0.00     0.277 HD
BRANCH   5   8
HETATM    8  C   LIG     1       4.079   2.678  -2.775  1.00  0.00     0.296 C 
BRANCH   8   9
HETATM    9  C   LIG     1       3.492   2.047  -3.991  1.00  0.00     0.078 A 
HETATM   10  O   LIG     1       4.172   0.991  -4.530  1.00  0.00    -0.325 OA
HETATM   11  C   LIG     1       3.458   0.568  -5.606  1.00  0.00     0.142 A 
HETATM   12  C   LIG     1       2.330   1.337  -5.770  1.00  0.00     0.027 A 
HETATM   13  C   LIG     1       2.357   2.301  -4.734  1.00  0.00     0.036 A 
ENDBRANCH   8   9
ENDBRANCH   5   8
ENDBRANCH   4   5
ENDBRANCH   3   4
TORSDOF 4
