REMARK  5 active torsions:
REMARK  status: ('A' for Active; 'I' for Inactive)
REMARK    1  A    between atoms: C_1  and  C_3 
REMARK    2  A    between atoms: C_4  and  C_6 
REMARK    3  A    between atoms: C_7  and  C_11 
REMARK    4  A    between atoms: C_11  and  C_12 
REMARK    5  A    between atoms: C_12  and  C_13 
ROOT
HETATM    1  C   LIG     1      -0.201  -1.252  -0.043  1.00  0.00     0.153 A 
HETATM    2  O   LIG     1       1.050  -0.690  -0.066  1.00  0.00    -0.295 OA
HETATM    3  C   LIG     1       0.884   0.653   0.012  1.00  0.00     0.129 A 
HETATM    4  C   LIG     1      -1.150  -0.246   0.055  1.00  0.00     0.048 A 
HETATM    5  C   LIG     1      -0.446   0.983   0.090  1.00  0.00     0.050 A 
ENDROOT
BRANCH   3   6
HETATM    6  C   LIG     1       2.050   1.453   0.004  1.00  0.00    -0.041 C 
HETATM    7  C   LIG     1       3.023   2.138   0.006  1.00  0.00    -0.099 C 
BRANCH   7   8
HETATM    8  C   LIG     1       4.204   2.970   0.009  1.00  0.00     0.094 C 
BRANCH   8   9
HETATM    9  C   LIG     1       5.474   2.116   0.041  1.00  0.00     0.012 C 
BRANCH   9  10
HETATM   10  C   LIG     1       6.735   2.979   0.039  1.00  0.00    -0.004 C 
HETATM   11  C   LIG     1       7.996   2.129   0.069  1.00  0.00     0.005 C 
ENDBRANCH   9  10
ENDBRANCH   8   9
ENDBRANCH   7   8
ENDBRANCH   3   6
BRANCH   1  12
HETATM   12  C   LIG     1      -0.311  -2.683  -0.122  1.00  0.00     0.234 C 
HETATM   13  O   LIG     1       0.579  -3.516  -0.203  1.00  0.00    -0.642 OA
HETATM   14  O   LIG     1      -1.605  -3.083  -0.101  1.00  0.00    -0.642 OA
ENDBRANCH   1  12
TORSDOF 5
