REMARK  2 active torsions:
REMARK  status: ('A' for Active; 'I' for Inactive)
REMARK    1  A    between atoms: C_1  and  C_2 
REMARK    2  A    between atoms: C_1  and  O_9 
ROOT
HETATM    1  C   LIG     1       0.079  -1.248   1.124  1.00  0.00     0.040 A 
HETATM    2  C   LIG     1       0.386  -2.615   1.080  1.00  0.00     0.025 A 
HETATM    3  C   LIG     1      -0.250  -3.523   1.947  1.00  0.00    -0.055 A 
HETATM    4  C   LIG     1      -1.211  -3.047   2.864  1.00  0.00    -0.056 A 
HETATM    5  C   LIG     1      -0.865  -0.787   2.047  1.00  0.00     0.018 A 
HETATM    6  C   LIG     1      -1.502  -1.677   2.908  1.00  0.00     0.008 A 
HETATM    7  C   LIG     1       0.090  -4.987   1.866  1.00  0.00     0.049 C 
HETATM    8  C   LIG     1      -1.940  -3.974   3.798  1.00  0.00     0.049 C 
ENDROOT
BRANCH   1   9
HETATM    9  C   LIG     1       0.761  -0.317   0.181  1.00  0.00     0.292 C 
HETATM   10  O   LIG     1       1.596  -0.653  -0.639  1.00  0.00    -0.259 OA
BRANCH   9  11
HETATM   11  O   LIG     1       0.299   0.944   0.384  1.00  0.00    -0.323 OA
HETATM   12  C   LIG     1       0.860   1.944  -0.461  1.00  0.00     0.213 C 
ENDBRANCH   9  11
ENDBRANCH   1   9
TORSDOF 2
