REMARK  1 active torsions:
REMARK  status: ('A' for Active; 'I' for Inactive)
REMARK    1  A    between atoms: C_7  and  O_10 
ROOT
HETATM    1  N   LIG     1       0.904  -0.044   0.199  1.00  0.00    -0.191 NA
HETATM    2  C   LIG     1       3.491  -0.069   0.063  1.00  0.00     0.083 A 
HETATM    3  C   LIG     1       2.065  -0.038   0.146  1.00  0.00     0.102 C 
HETATM    4  C   LIG     1       4.219   1.119  -0.002  1.00  0.00     0.139 A 
HETATM    5  C   LIG     1       5.607   1.109  -0.128  1.00  0.00     0.080 A 
HETATM    6  C   LIG     1       4.171  -1.291   0.022  1.00  0.00     0.028 A 
HETATM    7  C   LIG     1       6.267  -0.112  -0.193  1.00  0.00     0.068 A 
HETATM    8  F   LIG     1       3.590   2.303   0.047  1.00  0.00    -0.204 F 
HETATM    9  C   LIG     1       5.563  -1.310  -0.108  1.00  0.00     0.038 A 
ENDROOT
BRANCH   7  10
HETATM   10  O   LIG     1       7.618  -0.184  -0.350  1.00  0.00    -0.361 OA
ATOM     11  HO  LIG     1       8.069  -1.019  -0.394  1.00  0.00     0.217 HD
ENDBRANCH   7  10
TORSDOF 1
