REMARK  2 active torsions:
REMARK  status: ('A' for Active; 'I' for Inactive)
REMARK    1  A    between atoms: C_1  and  C_2 
REMARK    2  A    between atoms: C_1  and  O_11 
ROOT
HETATM    1  C   LIG     1       0.164   1.067  -1.143  1.00  0.00     0.040 A 
HETATM    2  C   LIG     1       0.348   2.455  -1.164  1.00  0.00     0.031 A 
HETATM    3  C   LIG     1      -0.071   3.209  -2.278  1.00  0.00    -0.008 A 
HETATM    4  N   LIG     1      -1.095   3.247  -4.468  1.00  0.00    -0.365 N 
ATOM      5  HN  LIG     1      -1.527   2.762  -5.254  1.00  0.00     0.165 HD
HETATM    6  C   LIG     1      -0.677   2.574  -3.384  1.00  0.00     0.042 A 
HETATM    7  C   LIG     1      -0.437   0.445  -2.241  1.00  0.00     0.020 A 
HETATM    8  C   LIG     1      -0.846   1.200  -3.342  1.00  0.00     0.031 A 
HETATM    9  C   LIG     1      -0.925   4.586  -4.484  1.00  0.00     0.088 A 
HETATM   10  C   LIG     1       0.089   4.600  -2.335  1.00  0.00     0.015 A 
HETATM   11  C   LIG     1      -0.346   5.301  -3.454  1.00  0.00     0.018 A 
ENDROOT
BRANCH   1  12
HETATM   12  C   LIG     1       0.613   0.290   0.047  1.00  0.00     0.292 C 
HETATM   13  O   LIG     1       1.153   0.782   1.021  1.00  0.00    -0.259 OA
BRANCH  12  14
HETATM   14  O   LIG     1       0.326  -1.020  -0.148  1.00  0.00    -0.323 OA
HETATM   15  C   LIG     1       0.694  -1.932   0.886  1.00  0.00     0.213 C 
ENDBRANCH  12  14
ENDBRANCH   1  12
TORSDOF 2
