REMARK  5 active torsions:
REMARK  status: ('A' for Active; 'I' for Inactive)
REMARK    1  A    between atoms: N_1  and  C_3 
REMARK    2  A    between atoms: N_2  and  C_13 
REMARK    3  A    between atoms: C_3  and  C_8 
REMARK    4  A    between atoms: N_9  and  C_14 
REMARK    5  A    between atoms: C_13  and  C_14 
ROOT
HETATM    1  N   LIG     1      -0.062   0.712  -1.110  1.00  0.00     0.096 N 
HETATM    2  N   LIG     1      -0.036   1.840   1.678  1.00  0.00     0.093 N 
HETATM    3  C   LIG     1       1.177   1.095  -0.401  1.00  0.00     0.303 C 
HETATM    4  C   LIG     1      -1.166   1.523  -0.554  1.00  0.00     0.303 C 
HETATM    5  C   LIG     1       1.087   1.045   1.146  1.00  0.00     0.302 C 
HETATM    6  C   LIG     1      -1.292   1.475   0.986  1.00  0.00     0.302 C 
ENDROOT
BRANCH   1   7
HETATM    7  C   LIG     1      -0.303  -0.739  -1.004  1.00  0.00     0.311 C 
BRANCH   7   8
HETATM    8  C   LIG     1      -1.549  -1.202  -1.732  1.00  0.00    -0.030 A 
HETATM    9  C   LIG     1      -2.588  -1.828  -1.020  1.00  0.00     0.009 A 
HETATM   10  C   LIG     1      -3.755  -2.224  -1.674  1.00  0.00     0.001 A 
HETATM   11  C   LIG     1      -3.897  -2.008  -3.039  1.00  0.00     0.000 A 
HETATM   12  C   LIG     1      -2.868  -1.396  -3.760  1.00  0.00     0.001 A 
HETATM   13  C   LIG     1      -1.699  -0.999  -3.108  1.00  0.00     0.009 A 
ENDBRANCH   7   8
ENDBRANCH   1   7
BRANCH   2  14
HETATM   14  C   LIG     1      -0.206   1.697   3.137  1.00  0.00     0.299 C 
BRANCH  14  15
HETATM   15  C   LIG     1       1.041   2.057   3.972  1.00  0.00     0.259 C 
BRANCH  15  16
HETATM   16  N   LIG     1       0.789   1.935   5.410  1.00  0.00    -0.078 N 
ATOM     17  HN3 LIG     1      -0.019   2.489   5.693  1.00  0.00     0.274 HD
ATOM     18  HN2 LIG     1       0.439   1.007   5.648  1.00  0.00     0.274 HD
ATOM     19  HN1 LIG     1       1.613   2.173   5.962  1.00  0.00     0.274 HD
ENDBRANCH  15  16
ENDBRANCH  14  15
ENDBRANCH   2  14
TORSDOF 5
