REMARK  1 active torsions:
REMARK  status: ('A' for Active; 'I' for Inactive)
REMARK    1  A    between atoms: C_2  and  N_3 
ROOT
HETATM    1  C   LIG     1      -0.081   0.676  -0.105  1.00  0.00     0.017 A 
HETATM    2  C   LIG     1       1.034   1.495   0.225  1.00  0.00     0.044 A 
HETATM    3  C   LIG     1      -0.035  -0.681   0.304  1.00  0.00     0.046 A 
HETATM    4  C   LIG     1      -1.222   1.110  -0.826  1.00  0.00     0.018 A 
HETATM    5  C   LIG     1      -1.111  -1.516   0.044  1.00  0.00     0.054 A 
HETATM    6  N   LIG     1       1.013  -1.224   0.940  1.00  0.00    -0.365 N 
ATOM      7  HN  LIG     1       1.008  -2.205   1.219  1.00  0.00     0.165 HD
HETATM    8  C   LIG     1      -2.236  -1.056  -0.631  1.00  0.00     0.036 A 
HETATM    9  C   LIG     1       2.125   0.901   0.867  1.00  0.00     0.047 A 
HETATM   10  C   LIG     1      -2.294   0.255  -1.080  1.00  0.00     0.025 A 
HETATM   11  C   LIG     1       2.071  -0.435   1.198  1.00  0.00     0.090 A 
HETATM   12 CL   LIG     1      -3.555  -2.120  -0.927  1.00  0.00    -0.084 Cl
ENDROOT
BRANCH   2  13
HETATM   13  N   LIG     1       1.152   2.865  -0.021  1.00  0.00    -0.377 N 
HETATM   14  C   LIG     1       1.663   3.244  -1.346  1.00  0.00     0.150 C 
HETATM   15  C   LIG     1       2.167   4.708  -1.305  1.00  0.00     0.252 C 
HETATM   16  N   LIG     1       1.164   5.671  -0.799  1.00  0.00    -0.072 N 
HETATM   17  C   LIG     1       0.708   5.226   0.537  1.00  0.00     0.252 C 
ATOM     18  HN2 LIG     1       0.390   5.806  -1.450  1.00  0.00     0.277 HD
ATOM     19  HN1 LIG     1       1.513   6.630  -0.793  1.00  0.00     0.277 HD
HETATM   20  C   LIG     1       0.154   3.780   0.552  1.00  0.00     0.150 C 
ENDBRANCH   2  13
TORSDOF 1
