REMARK  4 active torsions:
REMARK  status: ('A' for Active; 'I' for Inactive)
REMARK    1  A    between atoms: N_1  and  C_6 
REMARK    2  A    between atoms: C_2  and  C_5 
REMARK    3  A    between atoms: C_6  and  C_8 
REMARK    4  A    between atoms: C_6  and  C_9 
ROOT
HETATM    1  C   LIG     1       1.010   1.803   0.774  1.00  0.00     0.289 C 
ENDROOT
BRANCH   1   2
HETATM    2  N   LIG     1       0.491   0.800  -0.198  1.00  0.00     0.103 N 
HETATM    3  C   LIG     1       0.863   1.131  -1.592  1.00  0.00     0.291 C 
HETATM    4  C   LIG     1      -0.571   0.776  -2.016  1.00  0.00     0.143 C 
HETATM    5  C   LIG     1      -0.929   1.089  -0.550  1.00  0.00     0.291 C 
BRANCH   4   6
HETATM    6  C   LIG     1      -1.200   1.631  -3.109  1.00  0.00     0.180 C 
HETATM    7  O   LIG     1      -2.397   1.787  -3.331  1.00  0.00    -0.648 OA
HETATM    8  O   LIG     1      -0.323   2.280  -3.916  1.00  0.00    -0.648 OA
ENDBRANCH   4   6
ENDBRANCH   1   2
BRANCH   1   9
HETATM    9  C   LIG     1       0.568   1.435   2.195  1.00  0.00    -0.021 A 
HETATM   10  C   LIG     1      -0.223   2.318   2.950  1.00  0.00     0.010 A 
HETATM   11  C   LIG     1      -0.644   1.974   4.238  1.00  0.00     0.001 A 
HETATM   12  C   LIG     1      -0.278   0.750   4.793  1.00  0.00     0.000 A 
HETATM   13  C   LIG     1       0.513  -0.134   4.062  1.00  0.00     0.001 A 
HETATM   14  C   LIG     1       0.932   0.206   2.773  1.00  0.00     0.010 A 
ENDBRANCH   1   9
BRANCH   1  15
HETATM   15  C   LIG     1       2.531   2.014   0.703  1.00  0.00    -0.021 A 
HETATM   16  C   LIG     1       3.411   0.999   0.289  1.00  0.00     0.010 A 
HETATM   17  C   LIG     1       4.785   1.230   0.204  1.00  0.00     0.001 A 
HETATM   18  C   LIG     1       5.308   2.469   0.563  1.00  0.00     0.000 A 
HETATM   19  C   LIG     1       4.455   3.484   0.991  1.00  0.00     0.001 A 
HETATM   20  C   LIG     1       3.078   3.261   1.058  1.00  0.00     0.010 A 
ENDBRANCH   1  15
TORSDOF 4
