REMARK  1 active torsions:
REMARK  status: ('A' for Active; 'I' for Inactive)
REMARK    1  A    between atoms: C_1  and  C_2 
ROOT
HETATM    1  C   LIG     1       0.383  -1.044   0.856  1.00  0.00     0.041 A 
HETATM    2  C   LIG     1       0.721  -2.395   0.724  1.00  0.00     0.027 A 
HETATM    3  C   LIG     1       0.135  -3.353   1.567  1.00  0.00    -0.031 A 
HETATM    4  C   LIG     1      -0.822  -2.961   2.522  1.00  0.00     0.034 A 
HETATM    5  N   LIG     1      -1.378  -3.878   3.424  1.00  0.00    -0.389 N 
ATOM      6  HN  LIG     1      -1.815  -3.576   4.295  1.00  0.00     0.159 HD
HETATM    7  C   LIG     1      -0.511  -0.642   1.849  1.00  0.00     0.020 A 
HETATM    8  C   LIG     1      -1.102  -1.597   2.679  1.00  0.00     0.031 A 
HETATM    9  C   LIG     1      -1.299  -5.284   3.054  1.00  0.00     0.120 C 
HETATM   10  C   LIG     1       0.503  -4.808   1.405  1.00  0.00     0.042 C 
HETATM   11  C   LIG     1       0.118  -5.633   2.628  1.00  0.00     0.024 C 
ENDROOT
BRANCH   1  12
HETATM   12  C   LIG     1       0.986  -0.009  -0.014  1.00  0.00     0.209 C 
HETATM   13  O   LIG     1       1.324   1.090   0.387  1.00  0.00    -0.644 OA
HETATM   14  O   LIG     1       1.062  -0.389  -1.307  1.00  0.00    -0.644 OA
ENDBRANCH   1  12
TORSDOF 1
