REMARK  3 active torsions:
REMARK  status: ('A' for Active; 'I' for Inactive)
REMARK    1  A    between atoms: C_1  and  C_2 
REMARK    2  A    between atoms: C_5  and  C_14 
REMARK    3  A    between atoms: N_10  and  C_14 
ROOT
HETATM    1  C   LIG     1      -0.439  -1.043   0.006  1.00  0.00     0.159 A 
HETATM    2  O   LIG     1       0.857  -0.602  -0.012  1.00  0.00    -0.308 OA
HETATM    3  C   LIG     1      -1.297   0.042   0.020  1.00  0.00     0.045 A 
HETATM    4  C   LIG     1       0.822   0.763  -0.009  1.00  0.00     0.079 A 
HETATM    5  C   LIG     1      -0.485   1.201   0.008  1.00  0.00     0.037 A 
ENDROOT
BRANCH   4   6
HETATM    6  C   LIG     1       2.131   1.464  -0.026  1.00  0.00     0.294 C 
BRANCH   6   7
HETATM    7  N   LIG     1       2.550   1.735  -1.397  1.00  0.00    -0.074 N 
ATOM      8  HN3 LIG     1       2.568   0.886  -1.962  1.00  0.00     0.274 HD
ATOM      9  HN2 LIG     1       1.838   2.249  -1.916  1.00  0.00     0.274 HD
ATOM     10  HN1 LIG     1       3.449   2.217  -1.409  1.00  0.00     0.274 HD
ENDBRANCH   6   7
ENDBRANCH   4   6
BRANCH   1  11
HETATM   11  C   LIG     1      -0.672  -2.509   0.007  1.00  0.00     0.439 C 
HETATM   12  F   LIG     1       0.475  -3.236  -0.003  1.00  0.00    -0.164 F 
HETATM   13  F   LIG     1      -1.375  -2.902   1.102  1.00  0.00    -0.164 F 
HETATM   14  F   LIG     1      -1.395  -2.903  -1.076  1.00  0.00    -0.164 F 
ENDBRANCH   1  11
TORSDOF 3
