REMARK  1 active torsions:
REMARK  status: ('A' for Active; 'I' for Inactive)
REMARK    1  A    between atoms: C_1  and  C_3 
ROOT
HETATM    1  C   LIG     1       1.048  -0.762   0.053  1.00  0.00     0.104 A 
HETATM    2  C   LIG     1       0.958   0.622  -0.031  1.00  0.00     0.029 A 
HETATM    3  N   LIG     1      -0.334   1.117  -0.169  1.00  0.00    -0.362 N 
ATOM      4  HN  LIG     1      -0.578   2.104  -0.244  1.00  0.00     0.165 HD
HETATM    5  S   LIG     1      -0.531  -1.443  -0.046  1.00  0.00    -0.076 SA
HETATM    6  C   LIG     1      -1.192   0.125  -0.188  1.00  0.00     0.139 A 
HETATM    7  C   LIG     1       2.068   1.613   0.010  1.00  0.00     0.070 C 
ENDROOT
BRANCH   1   8
HETATM    8  C   LIG     1       2.178  -1.643   0.199  1.00  0.00     0.218 C 
HETATM    9  O   LIG     1       2.188  -2.864   0.263  1.00  0.00    -0.643 OA
HETATM   10  O   LIG     1       3.349  -0.972   0.269  1.00  0.00    -0.643 OA
ENDBRANCH   1   8
TORSDOF 1
