REMARK  1 active torsions:
REMARK  status: ('A' for Active; 'I' for Inactive)
REMARK    1  A    between atoms: C_1  and  C_2 
ROOT
HETATM    1  C   LIG     1      -0.372   1.147   0.007  1.00  0.00     0.008 A 
HETATM    2  S   LIG     1      -0.450  -1.452   0.028  1.00  0.00    -0.113 SA
HETATM    3  C   LIG     1      -1.241   0.064   0.025  1.00  0.00     0.064 A 
HETATM    4  C   LIG     1       0.989   0.664  -0.017  1.00  0.00     0.022 A 
HETATM    5  C   LIG     1       1.083  -0.710  -0.005  1.00  0.00     0.050 A 
ENDROOT
BRANCH   1   6
HETATM    6  C   LIG     1      -0.823   2.535   0.007  1.00  0.00     0.105 C 
HETATM    7  S   LIG     1       0.138   3.746  -0.599  1.00  0.00    -0.060 SA
HETATM    8  N   LIG     1      -2.056   2.815   0.522  1.00  0.00    -0.390 N 
ATOM      9  HN2 LIG     1      -2.646   2.071   0.894  1.00  0.00     0.157 HD
ATOM     10  HN1 LIG     1      -2.371   3.785   0.522  1.00  0.00     0.157 HD
ENDBRANCH   1   6
TORSDOF 1
