REMARK  2 active torsions:
REMARK  status: ('A' for Active; 'I' for Inactive)
REMARK    1  A    between atoms: N_3  and  C_9 
REMARK    2  A    between atoms: C_6  and  C_9 
ROOT
HETATM    1  N   LIG     1      -1.896  -0.532   0.184  1.00  0.00    -0.375 N 
ATOM      2  HN  LIG     1      -2.891  -0.733   0.281  1.00  0.00     0.164 HD
HETATM    3  C   LIG     1       0.848   0.024  -0.086  1.00  0.00    -0.030 A 
HETATM    4  C   LIG     1      -1.416   0.727   0.252  1.00  0.00     0.088 A 
HETATM    5  C   LIG     1      -0.990  -1.513  -0.019  1.00  0.00     0.088 A 
HETATM    6  C   LIG     1      -0.073   1.053   0.126  1.00  0.00     0.026 A 
HETATM    7  C   LIG     1       0.370  -1.288  -0.160  1.00  0.00     0.026 A 
ENDROOT
BRANCH   3   8
HETATM    8  C   LIG     1       2.320   0.315  -0.245  1.00  0.00     0.270 C 
BRANCH   8   9
HETATM    9  N   LIG     1       3.101  -0.348   0.798  1.00  0.00    -0.075 N 
HETATM   10  C   LIG     1       4.521  -0.066   0.648  1.00  0.00     0.267 C 
ATOM     11  HN2 LIG     1       2.766  -0.105   1.730  1.00  0.00     0.277 HD
ATOM     12  HN1 LIG     1       2.918  -1.351   0.824  1.00  0.00     0.277 HD
ENDBRANCH   8   9
ENDBRANCH   3   8
TORSDOF 2
