REMARK  2 active torsions:
REMARK  status: ('A' for Active; 'I' for Inactive)
REMARK    1  A    between atoms: C_1  and  C_6 
REMARK    2  A    between atoms: C_6  and  O_11 
ROOT
HETATM    1  C   LIG     1      -2.006  -0.636   0.294  1.00  0.00     0.081 A 
HETATM    2  S   LIG     1      -0.942  -1.968   0.194  1.00  0.00    -0.084 SA
HETATM    3  C   LIG     1      -1.319   0.557   0.187  1.00  0.00     0.038 A 
HETATM    4  C   LIG     1       0.098   0.389   0.052  1.00  0.00    -0.016 A 
HETATM    5  C   LIG     1       0.446  -0.962   0.038  1.00  0.00     0.016 A 
HETATM    6  C   LIG     1       1.132   1.350  -0.068  1.00  0.00     0.039 A 
HETATM    7  C   LIG     1       1.784  -1.370  -0.104  1.00  0.00     0.021 A 
HETATM    8  C   LIG     1       2.475   0.963  -0.140  1.00  0.00     0.047 A 
HETATM    9  N   LIG     1       3.469   1.922  -0.369  1.00  0.00    -0.102 NA
HETATM   10  C   LIG     1       2.779  -0.393  -0.213  1.00  0.00     0.028 A 
ENDROOT
BRANCH   1  11
HETATM   11  C   LIG     1      -3.428  -0.862   0.472  1.00  0.00     0.299 C 
HETATM   12  O   LIG     1      -3.993  -1.945   0.556  1.00  0.00    -0.259 OA
BRANCH  11  13
HETATM   13  O   LIG     1      -4.071   0.343   0.550  1.00  0.00    -0.322 OA
HETATM   14  C   LIG     1      -5.479   0.245   0.758  1.00  0.00     0.213 C 
ENDBRANCH  11  13
ENDBRANCH   1  11
TORSDOF 2
