REMARK  3 active torsions:
REMARK  status: ('A' for Active; 'I' for Inactive)
REMARK    1  A    between atoms: N_1  and  C_10 
REMARK    2  A    between atoms: C_4  and  C_10 
REMARK    3  A    between atoms: C_5  and  C_12 
ROOT
HETATM    1  C   LIG     1       0.889   0.179   2.583  1.00  0.00    -0.033 A 
HETATM    2  C   LIG     1       1.908   1.680   4.746  1.00  0.00    -0.059 A 
HETATM    3  C   LIG     1       0.402   1.466   2.855  1.00  0.00     0.009 A 
HETATM    4  C   LIG     1       2.404   0.400   4.471  1.00  0.00     0.007 A 
HETATM    5  C   LIG     1       1.899  -0.344   3.401  1.00  0.00     0.009 A 
HETATM    6  C   LIG     1       0.906   2.209   3.925  1.00  0.00     0.007 A 
ENDROOT
BRANCH   1   7
HETATM    7  C   LIG     1       0.350  -0.613   1.415  1.00  0.00     0.270 C 
BRANCH   7   8
HETATM    8  N   LIG     1      -1.091  -0.833   1.544  1.00  0.00    -0.075 N 
HETATM    9  C   LIG     1      -1.605  -1.610   0.427  1.00  0.00     0.267 C 
ATOM     10  HN2 LIG     1      -1.327  -1.261   2.439  1.00  0.00     0.277 HD
ATOM     11  HN1 LIG     1      -1.597   0.046   1.654  1.00  0.00     0.277 HD
ENDBRANCH   7   8
ENDBRANCH   1   7
BRANCH   2  12
HETATM   12  C   LIG     1       2.463   2.486   5.892  1.00  0.00     0.034 C 
HETATM   13  C   LIG     1       3.646   3.342   5.465  1.00  0.00     0.010 C 
ENDBRANCH   2  12
TORSDOF 3
