REMARK  4 active torsions:
REMARK  status: ('A' for Active; 'I' for Inactive)
REMARK    1  A    between atoms: C_3  and  C_8 
REMARK    2  A    between atoms: C_5  and  C_17 
REMARK    3  A    between atoms: C_7  and  C_9 
REMARK    4  A    between atoms: C_17  and  O_19 
ROOT
HETATM    1  N   LIG     1       0.022  -0.865   0.214  1.00  0.00    -0.353 N 
ATOM      2  HN  LIG     1      -0.165  -1.868   0.203  1.00  0.00     0.166 HD
HETATM    3  C   LIG     1       1.224  -0.329   0.107  1.00  0.00     0.085 A 
HETATM    4  S   LIG     1       1.227   1.394   0.156  1.00  0.00    -0.072 SA
HETATM    5  C   LIG     1      -0.474   1.410   0.343  1.00  0.00     0.030 A 
HETATM    6  C   LIG     1      -0.952   0.113   0.344  1.00  0.00     0.021 A 
HETATM    7  C   LIG     1      -2.374  -0.305   0.465  1.00  0.00     0.069 C 
ENDROOT
BRANCH   3   8
HETATM    8  C   LIG     1       2.472  -1.112  -0.041  1.00  0.00    -0.002 A 
HETATM    9  C   LIG     1       3.743  -0.526  -0.155  1.00  0.00     0.015 A 
HETATM   10  C   LIG     1       4.895  -1.311  -0.290  1.00  0.00     0.017 A 
HETATM   11  C   LIG     1       4.812  -2.709  -0.316  1.00  0.00     0.048 A 
HETATM   12  C   LIG     1       3.550  -3.305  -0.203  1.00  0.00     0.017 A 
HETATM   13  C   LIG     1       2.400  -2.516  -0.068  1.00  0.00     0.015 A 
BRANCH  11  14
HETATM   14  C   LIG     1       6.067  -3.533  -0.463  1.00  0.00     0.417 C 
HETATM   15  F   LIG     1       5.842  -4.876  -0.491  1.00  0.00    -0.166 F 
HETATM   16  F   LIG     1       6.748  -3.244  -1.607  1.00  0.00    -0.166 F 
HETATM   17  F   LIG     1       6.947  -3.323   0.556  1.00  0.00    -0.166 F 
ENDBRANCH  11  14
ENDBRANCH   3   8
BRANCH   5  18
HETATM   18  C   LIG     1      -1.213   2.694   0.470  1.00  0.00     0.212 C 
BRANCH  18  19
HETATM   19  O   LIG     1      -1.618   3.086  -0.834  1.00  0.00    -0.396 OA
ATOM     20  HO  LIG     1      -2.090   3.906  -0.753  1.00  0.00     0.209 HD
ENDBRANCH  18  19
ENDBRANCH   5  18
TORSDOF 4
