REMARK  1 active torsions:
REMARK  status: ('A' for Active; 'I' for Inactive)
REMARK    1  A    between atoms: N_1  and  C_4 
ROOT
HETATM    1  C   LIG     1      -0.820  -2.341  -0.160  1.00  0.00     0.080 C 
HETATM    2  C   LIG     1      -2.105  -2.786  -0.532  1.00  0.00     0.075 C 
HETATM    3  N   LIG     1      -3.160  -1.943  -0.929  1.00  0.00    -0.100 NA
HETATM    4  C   LIG     1       0.171  -3.292   0.168  1.00  0.00     0.033 C 
HETATM    5  C   LIG     1      -2.400  -4.156  -0.394  1.00  0.00     0.029 C 
HETATM    6  C   LIG     1      -0.128  -4.653   0.226  1.00  0.00     0.002 C 
HETATM    7  C   LIG     1      -1.421  -5.083  -0.033  1.00  0.00     0.002 C 
ENDROOT
BRANCH   1   8
HETATM    8  N   LIG     1      -0.448  -0.965  -0.076  1.00  0.00    -0.266 N 
HETATM    9  N   LIG     1       0.870  -0.605  -0.053  1.00  0.00    -0.305 N 
HETATM   10  C   LIG     1       0.863   0.726  -0.004  1.00  0.00     0.109 A 
ATOM     11  HN  LIG     1       1.682  -1.221  -0.070  1.00  0.00     0.186 HD
HETATM   12  C   LIG     1      -0.431   1.256   0.053  1.00  0.00     0.038 A 
HETATM   13  C   LIG     1      -1.251   0.154   0.035  1.00  0.00     0.118 A 
ENDBRANCH   1   8
TORSDOF 1
