REMARK  1 active torsions:
REMARK  status: ('A' for Active; 'I' for Inactive)
REMARK    1  A    between atoms: C_1  and  C_2 
ROOT
HETATM    1  C   LIG     1       0.715   1.183   0.868  1.00  0.00     0.113 C 
HETATM    2  N   LIG     1       1.168   2.340   0.514  1.00  0.00    -0.384 N 
ATOM      3  HN  LIG     1       1.986   2.398  -0.092  1.00  0.00     0.159 HD
HETATM    4  C   LIG     1      -0.469   0.881   1.742  1.00  0.00     0.050 C 
HETATM    5  N   LIG     1      -0.529   2.912   3.107  1.00  0.00    -0.397 N 
ATOM      6  HN  LIG     1      -1.027   3.335   3.890  1.00  0.00     0.158 HD
HETATM    7  C   LIG     1      -0.923   1.661   2.725  1.00  0.00     0.085 C 
HETATM    8  C   LIG     1       0.518   3.569   0.975  1.00  0.00     0.139 C 
HETATM    9  C   LIG     1       0.535   3.698   2.501  1.00  0.00     0.138 C 
ENDROOT
BRANCH   1  10
HETATM   10  C   LIG     1       1.413  -0.080   0.336  1.00  0.00     0.432 C 
HETATM   11  F   LIG     1       1.717  -0.952   1.339  1.00  0.00    -0.165 F 
HETATM   12  F   LIG     1       2.574   0.161  -0.330  1.00  0.00    -0.165 F 
HETATM   13  F   LIG     1       0.608  -0.769  -0.524  1.00  0.00    -0.165 F 
ENDBRANCH   1  10
TORSDOF 1
