REMARK  3 active torsions:
REMARK  status: ('A' for Active; 'I' for Inactive)
REMARK    1  A    between atoms: N_1  and  C_7 
REMARK    2  A    between atoms: C_5  and  C_10 
REMARK    3  A    between atoms: C_10  and  O_16 
ROOT
HETATM    1  N   LIG     1       1.341  -0.320  -0.155  1.00  0.00    -0.261 N 
HETATM    2  N   LIG     1       0.203  -1.069  -0.205  1.00  0.00    -0.304 N 
ATOM      3  HN  LIG     1       0.133  -2.080  -0.323  1.00  0.00     0.186 HD
HETATM    4  C   LIG     1       1.029   1.039  -0.103  1.00  0.00     0.040 A 
HETATM    5  C   LIG     1      -0.355   1.126  -0.003  1.00  0.00     0.006 A 
HETATM    6  C   LIG     1      -0.793  -0.205  -0.067  1.00  0.00     0.119 A 
HETATM    7  C   LIG     1       2.002   2.157  -0.224  1.00  0.00     0.071 C 
ENDROOT
BRANCH   1   8
HETATM    8  C   LIG     1       2.602  -0.995  -0.163  1.00  0.00     0.056 A 
HETATM    9  C   LIG     1       3.785  -0.388   0.279  1.00  0.00     0.034 A 
HETATM   10  C   LIG     1       4.990  -1.102   0.267  1.00  0.00     0.044 A 
HETATM   11  C   LIG     1       5.014  -2.416  -0.184  1.00  0.00     0.116 A 
HETATM   12  C   LIG     1       3.852  -3.040  -0.615  1.00  0.00     0.044 A 
HETATM   13  F   LIG     1       6.170  -3.091  -0.191  1.00  0.00    -0.206 F 
HETATM   14  C   LIG     1       2.646  -2.335  -0.596  1.00  0.00     0.034 A 
ENDBRANCH   1   8
BRANCH   5  15
HETATM   15  C   LIG     1      -1.208   2.339   0.087  1.00  0.00     0.206 C 
BRANCH  15  16
HETATM   16  O   LIG     1      -0.885   3.124   1.228  1.00  0.00    -0.396 OA
ATOM     17  HO  LIG     1      -1.430   3.900   1.286  1.00  0.00     0.209 HD
ENDBRANCH  15  16
ENDBRANCH   5  15
TORSDOF 3
