REMARK  2 active torsions:
REMARK  status: ('A' for Active; 'I' for Inactive)
REMARK    1  A    between atoms: C_3  and  C_4 
REMARK    2  A    between atoms: C_4  and  O_9 
ROOT
HETATM    1  N   LIG     1      -1.734   0.777  -0.366  1.00  0.00    -0.376 N 
ATOM      2  HN  LIG     1      -2.182   1.638  -0.680  1.00  0.00     0.160 HD
HETATM    3  C   LIG     1      -2.378  -0.533  -0.061  1.00  0.00     0.186 C 
HETATM    4  C   LIG     1      -0.368   0.552  -0.122  1.00  0.00     0.035 A 
HETATM    5  C   LIG     1      -1.283  -1.622  -0.131  1.00  0.00     0.076 C 
HETATM    6  C   LIG     1      -0.044  -0.799  -0.019  1.00  0.00    -0.029 A 
HETATM    7  C   LIG     1       0.619   1.519  -0.114  1.00  0.00     0.029 A 
HETATM    8  C   LIG     1       1.266  -1.219   0.127  1.00  0.00     0.009 A 
HETATM    9  C   LIG     1       1.946   1.114   0.040  1.00  0.00     0.002 A 
HETATM   10  C   LIG     1       2.268  -0.247   0.162  1.00  0.00     0.001 A 
ENDROOT
BRANCH   3  11
HETATM   11  C   LIG     1      -3.533  -0.839  -1.014  1.00  0.00     0.281 C 
HETATM   12  O   LIG     1      -3.898  -1.970  -1.325  1.00  0.00    -0.263 OA
BRANCH  11  13
HETATM   13  O   LIG     1      -4.170   0.307  -1.396  1.00  0.00    -0.325 OA
HETATM   14  C   LIG     1      -5.272   0.108  -2.279  1.00  0.00     0.213 C 
ENDBRANCH  11  13
ENDBRANCH   3  11
TORSDOF 2
