REMARK  5 active torsions:
REMARK  status: ('A' for Active; 'I' for Inactive)
REMARK    1  A    between atoms: N_1  and  C_13 
REMARK    2  A    between atoms: C_4  and  C_5 
REMARK    3  A    between atoms: C_4  and  C_10 
REMARK    4  A    between atoms: N_6  and  C_14 
REMARK    5  A    between atoms: C_13  and  C_14 
ROOT
HETATM    1  N   LIG     1       0.461   1.701   0.102  1.00  0.00     0.090 N 
HETATM    2  C   LIG     1       1.524   0.829   0.619  1.00  0.00     0.273 C 
HETATM    3  C   LIG     1      -0.781   1.414   0.840  1.00  0.00     0.273 C 
HETATM    4  C   LIG     1      -0.134  -1.060   1.074  1.00  0.00    -0.007 C 
HETATM    5  C   LIG     1       1.219  -0.661   0.453  1.00  0.00     0.035 C 
HETATM    6  C   LIG     1      -1.241  -0.043   0.736  1.00  0.00     0.035 C 
ENDROOT
BRANCH   4   7
HETATM    7  C   LIG     1      -0.526  -2.483   0.608  1.00  0.00     0.043 C 
BRANCH   7   8
HETATM    8  C   LIG     1      -1.784  -3.033   1.243  1.00  0.00    -0.058 A 
HETATM    9  C   LIG     1      -2.904  -3.338   0.452  1.00  0.00     0.007 A 
HETATM   10  C   LIG     1      -4.071  -3.836   1.037  1.00  0.00     0.001 A 
HETATM   11  C   LIG     1      -4.135  -4.032   2.412  1.00  0.00     0.000 A 
HETATM   12  C   LIG     1      -3.025  -3.747   3.207  1.00  0.00     0.001 A 
HETATM   13  C   LIG     1      -1.854  -3.259   2.622  1.00  0.00     0.007 A 
ENDBRANCH   7   8
ENDBRANCH   4   7
BRANCH   1  14
HETATM   14  C   LIG     1       0.252   1.599  -1.358  1.00  0.00     0.299 C 
BRANCH  14  15
HETATM   15  C   LIG     1       1.473   1.985  -2.223  1.00  0.00     0.259 C 
BRANCH  15  16
HETATM   16  N   LIG     1       1.178   1.855  -3.654  1.00  0.00    -0.078 N 
ATOM     17  HN3 LIG     1       0.839   0.921  -3.882  1.00  0.00     0.274 HD
ATOM     18  HN2 LIG     1       0.350   2.391  -3.915  1.00  0.00     0.274 HD
ATOM     19  HN1 LIG     1       1.984   2.110  -4.225  1.00  0.00     0.274 HD
ENDBRANCH  15  16
ENDBRANCH  14  15
ENDBRANCH   1  14
TORSDOF 5
