REMARK  2 active torsions:
REMARK  status: ('A' for Active; 'I' for Inactive)
REMARK    1  A    between atoms: C_1  and  C_7 
REMARK    2  A    between atoms: N_4  and  C_7 
ROOT
HETATM    1  C   LIG     1      -1.191  -0.240  -0.117  1.00  0.00    -0.011 A 
HETATM    2  C   LIG     1      -0.352  -1.355   0.036  1.00  0.00     0.042 A 
HETATM    3 CL   LIG     1      -0.979  -2.961   0.160  1.00  0.00    -0.084 Cl
HETATM    4  C   LIG     1      -0.599   1.035  -0.179  1.00  0.00     0.010 A 
HETATM    5  C   LIG     1       1.038  -1.199   0.104  1.00  0.00     0.024 A 
HETATM    6  C   LIG     1       0.788   1.189  -0.109  1.00  0.00     0.001 A 
HETATM    7  C   LIG     1       1.606   0.072   0.031  1.00  0.00     0.002 A 
ENDROOT
BRANCH   1   8
HETATM    8  C   LIG     1      -2.698  -0.346  -0.177  1.00  0.00     0.272 C 
BRANCH   8   9
HETATM    9  N   LIG     1      -3.282  -0.272   1.163  1.00  0.00    -0.075 N 
HETATM   10  C   LIG     1      -4.734  -0.374   1.107  1.00  0.00     0.267 C 
ATOM     11  HN2 LIG     1      -2.880  -0.971   1.788  1.00  0.00     0.277 HD
ATOM     12  HN1 LIG     1      -2.983   0.568   1.658  1.00  0.00     0.277 HD
ENDBRANCH   8   9
ENDBRANCH   1   8
TORSDOF 2
