REMARK  3 active torsions:
REMARK  status: ('A' for Active; 'I' for Inactive)
REMARK    1  A    between atoms: C_1  and  O_10 
REMARK    2  A    between atoms: N_2  and  C_11 
REMARK    3  A    between atoms: C_5  and  C_11 
ROOT
HETATM    1  C   LIG     1      -1.270  -0.081   0.110  1.00  0.00     0.068 A 
HETATM    2  C   LIG     1       1.525   0.247  -0.064  1.00  0.00    -0.033 A 
HETATM    3  C   LIG     1      -0.705   1.195   0.157  1.00  0.00     0.037 A 
HETATM    4  C   LIG     1      -0.433  -1.189  -0.035  1.00  0.00     0.037 A 
HETATM    5  C   LIG     1       0.681   1.355   0.066  1.00  0.00     0.011 A 
HETATM    6  C   LIG     1       0.953  -1.032  -0.124  1.00  0.00     0.011 A 
ENDROOT
BRANCH   2   7
HETATM    7  C   LIG     1       3.020   0.434  -0.167  1.00  0.00     0.270 C 
BRANCH   7   8
HETATM    8  N   LIG     1       3.427   0.632  -1.557  1.00  0.00    -0.075 N 
HETATM    9  C   LIG     1       4.870   0.795  -1.661  1.00  0.00     0.267 C 
ATOM     10  HN2 LIG     1       3.089  -0.119  -2.158  1.00  0.00     0.277 HD
ATOM     11  HN1 LIG     1       2.929   1.411  -1.987  1.00  0.00     0.277 HD
ENDBRANCH   7   8
ENDBRANCH   2   7
BRANCH   1  12
HETATM   12  O   LIG     1      -2.605  -0.367   0.193  1.00  0.00    -0.356 OA
HETATM   13  C   LIG     1      -3.487   0.743   0.314  1.00  0.00     0.210 C 
ENDBRANCH   1  12
TORSDOF 3
