REMARK  2 active torsions:
REMARK  status: ('A' for Active; 'I' for Inactive)
REMARK    1  A    between atoms: N_2  and  C_11 
REMARK    2  A    between atoms: C_5  and  C_11 
ROOT
HETATM    1  C   LIG     1      -1.937  -0.096   0.095  1.00  0.00     0.034 A 
HETATM    2  C   LIG     1       0.858   0.093  -0.035  1.00  0.00    -0.033 A 
HETATM    3 CL   LIG     1      -3.652  -0.209   0.181  1.00  0.00    -0.084 Cl
HETATM    4  C   LIG     1      -1.330   1.155   0.014  1.00  0.00     0.024 A 
HETATM    5  C   LIG     1      -1.164  -1.255   0.108  1.00  0.00     0.024 A 
HETATM    6  C   LIG     1       0.063   1.249  -0.051  1.00  0.00     0.010 A 
HETATM    7  C   LIG     1       0.228  -1.160   0.041  1.00  0.00     0.010 A 
ENDROOT
BRANCH   2   8
HETATM    8  C   LIG     1       2.365   0.195  -0.112  1.00  0.00     0.270 C 
BRANCH   8   9
HETATM    9  N   LIG     1       2.996  -0.388   1.072  1.00  0.00    -0.075 N 
HETATM   10  C   LIG     1       4.445  -0.259   1.010  1.00  0.00     0.267 C 
ATOM     11  HN2 LIG     1       2.620   0.010   1.933  1.00  0.00     0.277 HD
ATOM     12  HN1 LIG     1       2.711  -1.357   1.211  1.00  0.00     0.277 HD
ENDBRANCH   8   9
ENDBRANCH   2   8
TORSDOF 2
