REMARK  1 active torsions:
REMARK  status: ('A' for Active; 'I' for Inactive)
REMARK    1  A    between atoms: C_3  and  N_7 
ROOT
HETATM    1  N   LIG     1       2.400   0.024   0.000  1.00  0.00    -0.244 N 
ATOM      2  HN  LIG     1       3.419   0.069  -0.001  1.00  0.00     0.196 HD
HETATM    3  C   LIG     1       1.642  -1.076   0.001  1.00  0.00     0.132 A 
HETATM    4  C   LIG     1       0.259  -0.759   0.000  1.00  0.00     0.045 A 
HETATM    5  O   LIG     1       1.517   1.092  -0.000  1.00  0.00    -0.235 OA
HETATM    6  C   LIG     1       0.240   0.625  -0.000  1.00  0.00     0.112 A 
HETATM    7  C   LIG     1      -0.966  -1.451   0.000  1.00  0.00     0.018 A 
HETATM    8  C   LIG     1      -0.919   1.396  -0.000  1.00  0.00     0.040 A 
HETATM    9  C   LIG     1      -2.155  -0.705  -0.000  1.00  0.00     0.001 A 
HETATM   10  C   LIG     1      -2.129   0.693  -0.000  1.00  0.00     0.003 A 
ENDROOT
BRANCH   3  11
HETATM   11  N   LIG     1       2.125  -2.328   0.002  1.00  0.00    -0.383 N 
ATOM     12  HN2 LIG     1       3.119  -2.556   0.003  1.00  0.00     0.157 HD
ATOM     13  HN1 LIG     1       1.546  -3.168   0.003  1.00  0.00     0.157 HD
ENDBRANCH   3  11
TORSDOF 1
