REMARK  2 active torsions:
REMARK  status: ('A' for Active; 'I' for Inactive)
REMARK    1  A    between atoms: C_1  and  C_4 
REMARK    2  A    between atoms: C_5  and  N_10 
ROOT
HETATM    1  C   LIG     1       0.606   1.387  -0.086  1.00  0.00     0.011 A 
HETATM    2  C   LIG     1      -1.395   0.008  -0.190  1.00  0.00     0.073 A 
HETATM    3  C   LIG     1      -0.784   1.268  -0.143  1.00  0.00     0.044 A 
HETATM    4  C   LIG     1      -0.607  -1.170  -0.124  1.00  0.00     0.052 A 
HETATM    5  C   LIG     1       1.388   0.232  -0.029  1.00  0.00     0.017 A 
HETATM    6  C   LIG     1       0.784  -1.030  -0.025  1.00  0.00     0.032 A 
HETATM    7  N   LIG     1      -2.799  -0.050  -0.091  1.00  0.00    -0.100 NA
ENDROOT
BRANCH   1   8
HETATM    8  C   LIG     1       1.281   2.718  -0.063  1.00  0.00     0.155 C 
HETATM    9  O   LIG     1       2.506   2.787  -0.061  1.00  0.00    -0.293 OA
HETATM   10  C   LIG     1       0.425   3.959  -0.054  1.00  0.00     0.096 C 
ENDBRANCH   1   8
BRANCH   4  11
HETATM   11  N   LIG     1      -1.258  -2.420  -0.099  1.00  0.00    -0.393 N 
HETATM   12  C   LIG     1      -0.473  -3.641  -0.096  1.00  0.00     0.146 C 
ATOM     13  HN  LIG     1      -2.277  -2.466  -0.083  1.00  0.00     0.159 HD
ENDBRANCH   4  11
TORSDOF 2
