REMARK  3 active torsions:
REMARK  status: ('A' for Active; 'I' for Inactive)
REMARK    1  A    between atoms: C_1  and  C_2 
REMARK    2  A    between atoms: C_1  and  C_3 
REMARK    3  A    between atoms: C_3  and  C_7 
ROOT
HETATM    1  C   LIG     1       1.231   1.265   0.955  1.00  0.00     0.165 C 
HETATM    2  O   LIG     1       2.215   0.714   1.457  1.00  0.00    -0.292 OA
ENDROOT
BRANCH   1   3
HETATM    3  C   LIG     1      -0.040   1.305   1.729  1.00  0.00     0.025 A 
HETATM    4  C   LIG     1      -1.200   1.911   1.264  1.00  0.00     0.102 A 
HETATM    5  N   LIG     1      -2.365   1.958   1.957  1.00  0.00    -0.374 N 
HETATM    6  C   LIG     1      -2.373   1.381   3.178  1.00  0.00     0.087 A 
ATOM      7  HN  LIG     1      -3.196   2.408   1.574  1.00  0.00     0.164 HD
HETATM    8  C   LIG     1      -1.274   0.749   3.733  1.00  0.00     0.018 A 
HETATM    9  C   LIG     1      -0.093   0.709   2.994  1.00  0.00     0.018 A 
ENDBRANCH   1   3
BRANCH   1  10
HETATM   10  C   LIG     1       1.311   1.898  -0.422  1.00  0.00     0.122 C 
BRANCH  10  11
HETATM   11  C   LIG     1       1.777   3.332  -0.398  1.00  0.00    -0.051 A 
HETATM   12  C   LIG     1       3.053   3.655   0.084  1.00  0.00     0.008 A 
HETATM   13  C   LIG     1       3.516   4.973   0.054  1.00  0.00     0.007 A 
HETATM   14  C   LIG     1       2.718   5.993  -0.472  1.00  0.00    -0.062 A 
HETATM   15  C   LIG     1       1.434   5.679  -0.931  1.00  0.00     0.007 A 
HETATM   16  C   LIG     1       3.212   7.409  -0.519  1.00  0.00     0.048 C 
HETATM   17  C   LIG     1       0.967   4.361  -0.896  1.00  0.00     0.008 A 
ENDBRANCH  10  11
ENDBRANCH   1  10
TORSDOF 3
