REMARK  2 active torsions:
REMARK  status: ('A' for Active; 'I' for Inactive)
REMARK       I    between atoms: C_1  and  N_2 
REMARK    1  A    between atoms: C_1  and  C_4 
REMARK    2  A    between atoms: N_2  and  C_8 
ROOT
HETATM    1  C   LIG     1      -0.369  -1.299  -0.972  1.00  0.00     0.229 C 
HETATM    2  N   LIG     1      -0.378  -0.370  -2.003  1.00  0.00    -0.326 N 
ATOM      3  HN  LIG     1      -0.629  -0.722  -2.927  1.00  0.00     0.169 HD
HETATM    4  O   LIG     1      -0.165  -1.033   0.213  1.00  0.00    -0.272 OA
ENDROOT
BRANCH   2   5
HETATM    5  C   LIG     1      -0.078   1.012  -1.916  1.00  0.00     0.037 A 
HETATM    6  C   LIG     1       0.275   1.657  -0.732  1.00  0.00     0.046 A 
HETATM    7  C   LIG     1       0.563   3.012  -0.776  1.00  0.00     0.090 A 
HETATM    8  N   LIG     1       0.519   3.757  -1.900  1.00  0.00    -0.375 N 
HETATM    9  C   LIG     1       0.167   3.115  -3.031  1.00  0.00     0.090 A 
ATOM     10  HN  LIG     1       0.740   4.753  -1.894  1.00  0.00     0.164 HD
HETATM   11  C   LIG     1      -0.136   1.762  -3.088  1.00  0.00     0.046 A 
ENDBRANCH   2   5
BRANCH   1  12
HETATM   12  C   LIG     1      -0.627  -2.754  -1.430  1.00  0.00     0.030 C 
HETATM   13  C   LIG     1      -0.649  -3.683  -0.200  1.00  0.00     0.025 C 
HETATM   14  C   LIG     1      -1.981  -2.875  -2.147  1.00  0.00     0.025 C 
HETATM   15  C   LIG     1       0.507  -3.206  -2.363  1.00  0.00     0.025 C 
ENDBRANCH   1  12
TORSDOF 2
