REMARK  3 active torsions:
REMARK  status: ('A' for Active; 'I' for Inactive)
REMARK    1  A    between atoms: C_1  and  N_2 
REMARK    2  A    between atoms: C_3  and  C_6 
REMARK    3  A    between atoms: C_6  and  O_10 
ROOT
HETATM    1  C   LIG     1       1.403  -0.833   0.700  1.00  0.00     0.090 A 
HETATM    2  C   LIG     1       0.053  -1.177   0.516  1.00  0.00     0.004 A 
HETATM    3  N   LIG     1       1.776   0.179   1.518  1.00  0.00    -0.356 N 
ATOM      4  HN  LIG     1       2.760   0.417   1.641  1.00  0.00     0.166 HD
HETATM    5  C   LIG     1      -0.919  -0.447   1.218  1.00  0.00     0.014 A 
HETATM    6  C   LIG     1       0.810   0.866   2.167  1.00  0.00     0.089 A 
HETATM    7  C   LIG     1      -0.536   0.593   2.053  1.00  0.00     0.018 A 
ENDROOT
BRANCH   1   8
HETATM    8  N   LIG     1       2.402  -1.540  -0.025  1.00  0.00    -0.269 NA
HETATM    9  C   LIG     1       3.554  -0.667  -0.328  1.00  0.00     0.097 C 
HETATM   10  C   LIG     1       4.537  -1.432  -1.216  1.00  0.00     0.015 C 
HETATM   11  C   LIG     1       4.978  -2.737  -0.553  1.00  0.00     0.002 C 
HETATM   12  C   LIG     1       3.770  -3.564  -0.117  1.00  0.00     0.015 C 
HETATM   13  C   LIG     1       2.813  -2.734   0.742  1.00  0.00     0.097 C 
ENDBRANCH   1   8
BRANCH   2  14
HETATM   14  C   LIG     1      -0.382  -2.279  -0.414  1.00  0.00     0.206 C 
BRANCH  14  15
HETATM   15  O   LIG     1       0.130  -2.094  -1.727  1.00  0.00    -0.396 OA
ATOM     16  HO  LIG     1      -0.144  -2.789  -2.314  1.00  0.00     0.209 HD
ENDBRANCH  14  15
ENDBRANCH   2  14
TORSDOF 3
