REMARK  0 active torsions:
REMARK  status: ('A' for Active; 'I' for Inactive)
ROOT
HETATM    1  N   LIG     1       1.147   0.697   0.100  1.00  0.00    -0.347 N 
ATOM      2  HN  LIG     1       2.028   1.211   0.119  1.00  0.00     0.167 HD
HETATM    3  N   LIG     1      -0.098  -3.991   0.159  1.00  0.00    -0.191 NA
HETATM    4  C   LIG     1      -0.048  -1.402   0.100  1.00  0.00     0.067 A 
HETATM    5  C   LIG     1       1.136  -0.665   0.144  1.00  0.00     0.027 A 
HETATM    6  C   LIG     1      -0.071  -2.832   0.136  1.00  0.00     0.101 C 
HETATM    7  C   LIG     1      -0.026   1.350   0.031  1.00  0.00     0.116 A 
HETATM    8  C   LIG     1      -1.255  -0.700   0.031  1.00  0.00     0.028 A 
HETATM    9  N   LIG     1       0.028   2.739   0.058  1.00  0.00    -0.083 NA
HETATM   10  C   LIG     1      -1.244   0.693   0.008  1.00  0.00     0.047 A 
HETATM   11  C   LIG     1       2.493  -1.299   0.265  1.00  0.00     0.070 C 
ENDROOT
TORSDOF 0
