REMARK  1 active torsions:
REMARK  status: ('A' for Active; 'I' for Inactive)
REMARK       I    between atoms: C_1  and  N_2 
REMARK    1  A    between atoms: C_1  and  C_3 
ROOT
HETATM    1  C   LIG     1       0.177  -0.110   0.498  1.00  0.00     0.243 C 
HETATM    2  N   LIG     1       1.361  -0.528  -0.073  1.00  0.00    -0.329 N 
HETATM    3  O   LIG     1      -0.347  -0.847   1.325  1.00  0.00    -0.271 OA
HETATM    4  C   LIG     1       2.153   0.167  -1.065  1.00  0.00     0.213 A 
HETATM    5  C   LIG     1       1.921  -1.829   0.247  1.00  0.00     0.133 C 
HETATM    6  C   LIG     1       3.304  -1.787  -0.390  1.00  0.00     0.069 C 
HETATM    7  C   LIG     1       3.053  -0.935  -1.617  1.00  0.00     0.014 A 
HETATM    8 CL   LIG     2       2.987  -0.660  -2.124  1.00  0.00    -0.158 Cl
ENDROOT
BRANCH   1   9
HETATM    9  C   LIG     1      -0.637   1.146   0.121  1.00  0.00     0.169 C 
HETATM   10  N   LIG     1      -1.673   1.012  -0.927  1.00  0.00    -0.409 N 
HETATM   11  C   LIG     1      -1.202   1.250  -2.307  1.00  0.00     0.114 C 
ATOM     12  HN  LIG     1      -2.641   0.773  -0.712  1.00  0.00     0.154 HD
HETATM   13  C   LIG     1      -0.477   2.585  -2.447  1.00  0.00     0.019 C 
HETATM   14  C   LIG     1       0.725   2.586  -1.506  1.00  0.00     0.004 C 
HETATM   15  C   LIG     1       0.215   2.430  -0.076  1.00  0.00     0.034 C 
ENDBRANCH   1   9
TORSDOF 1
