REMARK  1 active torsions:
REMARK  status: ('A' for Active; 'I' for Inactive)
REMARK       I    between atoms: C_1  and  N_2 
REMARK    1  A    between atoms: C_1  and  C_7 
ROOT
HETATM    1  N   LIG     1       3.899   0.246   2.918  1.00  0.00    -0.075 N 
ATOM      2  HN1 LIG     1       4.834   0.576   2.679  1.00  0.00     0.277 HD
ATOM      3  HN2 LIG     1       3.994   0.247   3.934  1.00  0.00     0.277 HD
HETATM    4  C   LIG     1       2.717  -0.099   0.243  1.00  0.00     0.081 C 
HETATM    5  C   LIG     1       2.861   1.172   2.465  1.00  0.00     0.233 C 
HETATM    6  C   LIG     1       3.643  -1.095   2.395  1.00  0.00     0.233 C 
HETATM    7  C   LIG     1       2.816   1.267   0.940  1.00  0.00     0.041 C 
HETATM    8  C   LIG     1       3.681  -1.115   0.868  1.00  0.00     0.041 C 
ENDROOT
BRANCH   4   9
HETATM    9  C   LIG     1       1.280  -0.628   0.232  1.00  0.00     0.224 C 
HETATM   10  N   LIG     1       0.943  -1.529  -0.757  1.00  0.00    -0.352 N 
HETATM   11  C   LIG     1       1.767  -1.999  -1.863  1.00  0.00     0.126 C 
HETATM   12  C   LIG     1      -0.401  -2.076  -0.840  1.00  0.00     0.126 C 
HETATM   13  C   LIG     1       0.806  -2.758  -2.770  1.00  0.00     0.021 C 
HETATM   14  C   LIG     1      -0.270  -3.242  -1.807  1.00  0.00     0.021 C 
HETATM   15  O   LIG     1       0.459  -0.284   1.086  1.00  0.00    -0.273 OA
ENDBRANCH   4   9
TORSDOF 1
