REMARK  1 active torsions:
REMARK  status: ('A' for Active; 'I' for Inactive)
REMARK       I    between atoms: C_1  and  N_2 
REMARK    1  A    between atoms: C_1  and  C_3 
ROOT
HETATM    1  C   LIG     1       0.555  -0.633   0.112  1.00  0.00     0.225 C 
HETATM    2  N   LIG     1      -0.313  -1.734   0.131  1.00  0.00    -0.352 N 
HETATM    3  O   LIG     1       1.442  -0.538  -0.737  1.00  0.00    -0.273 OA
HETATM    4  C   LIG     1      -0.138  -2.757  -0.904  1.00  0.00     0.125 C 
HETATM    5  C   LIG     1      -1.256  -2.054   1.203  1.00  0.00     0.125 C 
HETATM    6  C   LIG     1      -0.841  -3.263   2.042  1.00  0.00     0.020 C 
HETATM    7  C   LIG     1       0.758  -3.896  -0.425  1.00  0.00     0.020 C 
HETATM    8  C   LIG     1       0.035  -5.001   0.346  1.00  0.00     0.002 C 
HETATM    9  C   LIG     1      -1.070  -4.583   1.315  1.00  0.00     0.002 C 
ENDROOT
BRANCH   1  10
HETATM   10  C   LIG     1       0.403   0.436   1.207  1.00  0.00     0.103 C 
HETATM   11  C   LIG     1      -0.910   1.233   1.092  1.00  0.00     0.246 C 
HETATM   12  N   LIG     1      -0.882   2.363   0.163  1.00  0.00    -0.074 N 
HETATM   13  C   LIG     1       0.217   3.276   0.453  1.00  0.00     0.232 C 
ATOM     14  HN2 LIG     1      -0.855   2.046  -0.806  1.00  0.00     0.277 HD
ATOM     15  HN1 LIG     1      -1.777   2.852   0.147  1.00  0.00     0.277 HD
HETATM   16  C   LIG     1       1.551   2.552   0.333  1.00  0.00     0.028 C 
HETATM   17  C   LIG     1       1.625   1.370   1.296  1.00  0.00     0.017 C 
ENDBRANCH   1  10
TORSDOF 1
