REMARK  3 active torsions:
REMARK  status: ('A' for Active; 'I' for Inactive)
REMARK    1  A    between atoms: N_1  and  C_3 
REMARK    2  A    between atoms: C_2  and  C_3 
REMARK    3  A    between atoms: C_2  and  N_6 
ROOT
HETATM    1  C   LIG     1       0.159   0.906  -1.694  1.00  0.00     0.309 C 
ENDROOT
BRANCH   1   2
HETATM    2  N   LIG     1       0.421   1.084  -0.247  1.00  0.00     0.090 N 
HETATM    3  C   LIG     1       1.287  -0.001   0.265  1.00  0.00     0.273 C 
HETATM    4  C   LIG     1       0.600  -1.374   0.305  1.00  0.00     0.034 C 
HETATM    5  C   LIG     1      -0.758  -1.338   1.024  1.00  0.00    -0.015 C 
HETATM    6  C   LIG     1      -1.595  -0.120   0.613  1.00  0.00     0.034 C 
HETATM    7  C   LIG     1      -1.541  -2.625   0.762  1.00  0.00     0.010 C 
HETATM    8  C   LIG     1      -0.763   1.161   0.614  1.00  0.00     0.273 C 
ENDBRANCH   1   2
BRANCH   1   9
HETATM    9  C   LIG     1      -0.647   1.969  -2.525  1.00  0.00     0.142 C 
HETATM   10  C   LIG     1      -2.153   1.989  -2.225  1.00  0.00     0.047 C 
HETATM   11  C   LIG     1      -0.059   3.375  -2.367  1.00  0.00     0.047 C 
BRANCH   9  12
HETATM   12  N   LIG     1      -0.551   1.604  -3.961  1.00  0.00    -0.069 N 
ATOM     13  HN3 LIG     1       0.413   1.505  -4.278  1.00  0.00     0.275 HD
ATOM     14  HN2 LIG     1      -0.855   0.648  -4.145  1.00  0.00     0.275 HD
ATOM     15  HN1 LIG     1      -1.074   2.294  -4.500  1.00  0.00     0.275 HD
ENDBRANCH   9  12
ENDBRANCH   1   9
TORSDOF 3
