REMARK  2 active torsions:
REMARK  status: ('A' for Active; 'I' for Inactive)
REMARK    1  A    between atoms: N_1  and  C_5 
REMARK    2  A    between atoms: C_10  and  C_11 
ROOT
HETATM    1  C   LIG     1       0.449   0.721   1.125  1.00  0.00     0.183 C 
HETATM    2  C   LIG     1      -1.037   0.923   0.810  1.00  0.00     0.033 C 
HETATM    3  C   LIG     1       1.180   2.069   1.150  1.00  0.00     0.033 C 
HETATM    4  C   LIG     1       0.948   2.900  -0.112  1.00  0.00     0.006 C 
HETATM    5  C   LIG     1      -1.284   1.755  -0.450  1.00  0.00     0.006 C 
HETATM    6  C   LIG     1      -0.549   3.105  -0.402  1.00  0.00    -0.015 C 
ENDROOT
BRANCH   1   7
HETATM    7  N   LIG     1       1.058  -0.200   0.163  1.00  0.00    -0.075 N 
ATOM      8  HN3 LIG     1       0.556  -1.087   0.118  1.00  0.00     0.274 HD
ATOM      9  HN2 LIG     1       0.913   0.106  -0.799  1.00  0.00     0.274 HD
ATOM     10  HN1 LIG     1       2.047  -0.334   0.373  1.00  0.00     0.274 HD
ENDBRANCH   1   7
BRANCH   6  11
HETATM   11  C   LIG     1      -0.718   3.910  -1.704  1.00  0.00     0.000 C 
HETATM   12  C   LIG     1      -2.160   4.299  -1.999  1.00  0.00     0.005 C 
ENDBRANCH   6  11
TORSDOF 2
