REMARK  3 active torsions:
REMARK  status: ('A' for Active; 'I' for Inactive)
REMARK    1  A    between atoms: C_4  and  C_14 
REMARK    2  A    between atoms: N_6  and  C_15 
REMARK    3  A    between atoms: C_14  and  C_15 
ROOT
HETATM    1  C   LIG     1      -0.300  -0.380  -0.139  1.00  0.00     0.081 A 
HETATM    2  O   LIG     1      -1.476  -1.068  -0.313  1.00  0.00    -0.350 OA
HETATM    3  C   LIG     1      -0.478   0.996  -0.077  1.00  0.00    -0.022 A 
HETATM    4  C   LIG     1       0.953  -0.968  -0.062  1.00  0.00    -0.023 A 
HETATM    5  C   LIG     1      -2.498  -0.074  -0.068  1.00  0.00     0.180 C 
HETATM    6  C   LIG     1       1.872   1.285   0.189  1.00  0.00     0.001 A 
HETATM    7  C   LIG     1      -1.906   1.317  -0.286  1.00  0.00     0.068 C 
HETATM    8  C   LIG     1       0.600   1.849   0.079  1.00  0.00     0.010 A 
HETATM    9  C   LIG     1       2.049  -0.109   0.121  1.00  0.00     0.010 A 
ENDROOT
BRANCH   4  10
HETATM   10  C   LIG     1       1.139  -2.458  -0.161  1.00  0.00     0.068 C 
BRANCH  10  11
HETATM   11  C   LIG     1       1.044  -3.151   1.202  1.00  0.00     0.234 C 
BRANCH  11  12
HETATM   12  N   LIG     1       1.205  -4.600   1.066  1.00  0.00    -0.079 N 
ATOM     13  HN3 LIG     1       0.541  -4.991   0.398  1.00  0.00     0.274 HD
ATOM     14  HN2 LIG     1       2.071  -4.839   0.582  1.00  0.00     0.274 HD
ATOM     15  HN1 LIG     1       1.142  -5.061   1.973  1.00  0.00     0.274 HD
ENDBRANCH  11  12
ENDBRANCH  10  11
ENDBRANCH   4  10
TORSDOF 3
