REMARK  3 active torsions:
REMARK  status: ('A' for Active; 'I' for Inactive)
REMARK    1  A    between atoms: C_3  and  C_7 
REMARK    2  A    between atoms: C_5  and  C_11 
REMARK    3  A    between atoms: C_11  and  N_12 
ROOT
HETATM    1 CL   LIG     2       2.878  -1.921  -2.177  1.00  0.00     0.000 Cl
ENDROOT
TORSDOF 3
