REMARK  4 active torsions:
REMARK  status: ('A' for Active; 'I' for Inactive)
REMARK    1  A    between atoms: N_1  and  C_3 
REMARK    2  A    between atoms: C_2  and  C_3 
REMARK    3  A    between atoms: C_2  and  C_8 
REMARK    4  A    between atoms: N_4  and  C_8 
ROOT
HETATM    1  C   LIG     1      -2.177  -1.385  -0.380  1.00  0.00     0.002 C 
HETATM    2  C   LIG     1      -2.728  -0.987  -1.777  1.00  0.00     0.018 C 
HETATM    3  C   LIG     1      -1.832  -2.886  -0.485  1.00  0.00     0.018 C 
ENDROOT
BRANCH   1   4
HETATM    4  C   LIG     1      -0.920  -0.475  -0.109  1.00  0.00     0.282 C 
BRANCH   4   5
HETATM    5  N   LIG     1      -0.167  -0.507   1.185  1.00  0.00     0.089 N 
HETATM    6  C   LIG     1       0.892   0.525   1.120  1.00  0.00     0.272 C 
HETATM    7  C   LIG     1       1.748   0.716   2.376  1.00  0.00     0.030 C 
HETATM    8  C   LIG     1       2.985  -0.178   2.426  1.00  0.00     0.002 C 
HETATM    9  C   LIG     1       2.734  -1.644   2.109  1.00  0.00     0.002 C 
HETATM   10  C   LIG     1       1.365  -2.120   2.563  1.00  0.00     0.030 C 
HETATM   11  C   LIG     1       0.276  -1.863   1.517  1.00  0.00     0.272 C 
ENDBRANCH   4   5
ENDBRANCH   1   4
BRANCH   1  12
HETATM   12  C   LIG     1      -3.260  -1.114   0.694  1.00  0.00     0.239 C 
BRANCH  12  13
HETATM   13  N   LIG     1      -4.480  -1.907   0.512  1.00  0.00    -0.079 N 
ATOM     14  HN3 LIG     1      -4.860  -1.773  -0.425  1.00  0.00     0.274 HD
ATOM     15  HN2 LIG     1      -4.259  -2.902   0.466  1.00  0.00     0.274 HD
ATOM     16  HN1 LIG     1      -5.193  -1.729   1.219  1.00  0.00     0.274 HD
ENDBRANCH  12  13
ENDBRANCH   1  12
TORSDOF 4
