REMARK  3 active torsions:
REMARK  status: ('A' for Active; 'I' for Inactive)
REMARK    1  A    between atoms: N_1  and  C_3 
REMARK    2  A    between atoms: C_2  and  C_3 
REMARK    3  A    between atoms: C_2  and  N_4 
ROOT
HETATM    1  C   LIG     1       0.068  -1.625   3.453  1.00  0.00     0.142 C 
HETATM    2  C   LIG     1       1.576  -1.838   3.632  1.00  0.00     0.047 C 
HETATM    3  C   LIG     1      -0.433  -0.591   4.473  1.00  0.00     0.047 C 
ENDROOT
BRANCH   1   4
HETATM    4  C   LIG     1      -0.335  -1.214   1.994  1.00  0.00     0.309 C 
BRANCH   4   5
HETATM    5  N   LIG     1       0.140   0.085   1.475  1.00  0.00     0.090 N 
HETATM    6  C   LIG     1      -0.591   0.469   0.250  1.00  0.00     0.272 C 
HETATM    7  C   LIG     1       0.428   0.509  -0.874  1.00  0.00     0.032 C 
HETATM    8  C   LIG     1       1.703   0.871  -0.152  1.00  0.00     0.032 C 
HETATM    9  C   LIG     1       1.575   0.083   1.140  1.00  0.00     0.272 C 
ENDBRANCH   4   5
ENDBRANCH   1   4
BRANCH   1  10
HETATM   10  N   LIG     1      -0.580  -2.923   3.757  1.00  0.00    -0.069 N 
ATOM     11  HN3 LIG     1      -1.590  -2.902   3.617  1.00  0.00     0.275 HD
ATOM     12  HN2 LIG     1      -0.362  -3.644   3.069  1.00  0.00     0.275 HD
ATOM     13  HN1 LIG     1      -0.318  -3.190   4.706  1.00  0.00     0.275 HD
ENDBRANCH   1  10
TORSDOF 3
