REMARK  1 active torsions:
REMARK  status: ('A' for Active; 'I' for Inactive)
REMARK    1  A    between atoms: C_1  and  C_3 
ROOT
HETATM    1  C   LIG     1      -0.732  -2.530  -0.045  1.00  0.00    -0.017 A 
HETATM    2  C   LIG     1       0.139  -3.548   0.382  1.00  0.00     0.039 A 
HETATM    3  C   LIG     1      -0.205  -4.900   0.267  1.00  0.00     0.047 A 
HETATM    4  N   LIG     1       0.624  -5.888   0.814  1.00  0.00    -0.102 NA
HETATM    5  C   LIG     1      -1.982  -2.894  -0.561  1.00  0.00     0.013 A 
HETATM    6  C   LIG     1      -2.361  -4.236  -0.621  1.00  0.00     0.003 A 
HETATM    7  C   LIG     1      -1.482  -5.229  -0.187  1.00  0.00     0.026 A 
ENDROOT
BRANCH   1   8
HETATM    8  C   LIG     1      -0.315  -1.123   0.048  1.00  0.00     0.015 A 
HETATM    9  S   LIG     1      -1.397   0.075   0.638  1.00  0.00    -0.101 SA
HETATM   10  C   LIG     1      -0.236   1.316   0.463  1.00  0.00     0.050 A 
HETATM   11  C   LIG     1       0.958   0.840  -0.026  1.00  0.00     0.008 A 
HETATM   12  C   LIG     1       0.914  -0.565  -0.261  1.00  0.00     0.020 A 
ENDBRANCH   1   8
TORSDOF 1
