REMARK  3 active torsions:
REMARK  status: ('A' for Active; 'I' for Inactive)
REMARK    1  A    between atoms: C_1  and  N_2 
REMARK    2  A    between atoms: C_3  and  C_6 
REMARK    3  A    between atoms: C_6  and  O_10 
ROOT
HETATM    1  C   LIG     1       0.339  -1.878  -0.404  1.00  0.00     0.090 A 
HETATM    2  C   LIG     1      -0.963  -1.458  -0.080  1.00  0.00     0.004 A 
HETATM    3  N   LIG     1       1.400  -1.047  -0.286  1.00  0.00    -0.356 N 
ATOM      4  HN  LIG     1       2.340  -1.363  -0.526  1.00  0.00     0.166 HD
HETATM    5  C   LIG     1      -1.145  -0.146   0.379  1.00  0.00     0.014 A 
HETATM    6  C   LIG     1       1.187   0.209   0.156  1.00  0.00     0.089 A 
HETATM    7  C   LIG     1      -0.056   0.704   0.500  1.00  0.00     0.018 A 
ENDROOT
BRANCH   1   8
HETATM    8  N   LIG     1       0.540  -3.188  -0.878  1.00  0.00    -0.269 NA
HETATM    9  C   LIG     1       1.680  -3.342  -1.793  1.00  0.00     0.097 C 
HETATM   10  C   LIG     1       2.023  -4.820  -1.660  1.00  0.00     0.016 C 
HETATM   11  C   LIG     1       1.893  -5.030  -0.162  1.00  0.00     0.016 C 
HETATM   12  C   LIG     1       0.694  -4.161   0.223  1.00  0.00     0.097 C 
ENDBRANCH   1   8
BRANCH   2  13
HETATM   13  C   LIG     1      -2.157  -2.362  -0.234  1.00  0.00     0.206 C 
BRANCH  13  14
HETATM   14  O   LIG     1      -2.289  -2.832  -1.570  1.00  0.00    -0.396 OA
ATOM     15  HO  LIG     1      -3.042  -3.402  -1.667  1.00  0.00     0.209 HD
ENDBRANCH  13  14
ENDBRANCH   2  13
TORSDOF 3
