REMARK  2 active torsions:
REMARK  status: ('A' for Active; 'I' for Inactive)
REMARK    1  A    between atoms: C_1  and  C_6 
REMARK    2  A    between atoms: C_3  and  C_7 
ROOT
HETATM    1  C   LIG     1       0.322  -1.108   0.414  1.00  0.00     0.072 A 
HETATM    2  C   LIG     1       0.628   0.285   0.476  1.00  0.00     0.059 A 
HETATM    3  C   LIG     1      -0.510   0.975   0.111  1.00  0.00     0.087 A 
HETATM    4  C   LIG     1      -1.003  -1.174   0.021  1.00  0.00     0.067 A 
HETATM    5  O   LIG     1      -1.503   0.080  -0.165  1.00  0.00    -0.314 OA
HETATM    6  C   LIG     1      -1.956  -2.274  -0.240  1.00  0.00     0.078 C 
ENDROOT
BRANCH   3   7
HETATM    7  C   LIG     1      -0.852   2.388  -0.035  1.00  0.00    -0.002 A 
HETATM    8  C   LIG     1      -2.134   2.788  -0.438  1.00  0.00     0.015 A 
HETATM    9  C   LIG     1      -2.458   4.141  -0.579  1.00  0.00     0.007 A 
HETATM   10  C   LIG     1      -1.506   5.129  -0.312  1.00  0.00    -0.062 A 
HETATM   11  C   LIG     1      -0.221   4.741   0.079  1.00  0.00     0.007 A 
HETATM   12  C   LIG     1      -1.853   6.577  -0.492  1.00  0.00     0.048 C 
HETATM   13  C   LIG     1       0.100   3.386   0.220  1.00  0.00     0.015 A 
ENDBRANCH   3   7
BRANCH   1  14
HETATM   14  C   LIG     1       1.188  -2.230   0.692  1.00  0.00     0.212 C 
HETATM   15  O   LIG     1       0.888  -3.413   0.619  1.00  0.00    -0.644 OA
HETATM   16  O   LIG     1       2.440  -1.878   1.061  1.00  0.00    -0.644 OA
ENDBRANCH   1  14
TORSDOF 2
