REMARK  4 active torsions:
REMARK  status: ('A' for Active; 'I' for Inactive)
REMARK    1  A    between atoms: N_1  and  C_2 
REMARK    2  A    between atoms: C_2  and  C_3 
REMARK    3  A    between atoms: C_7  and  C_17 
REMARK    4  A    between atoms: N_8  and  C_17 
ROOT
HETATM    1  C   LIG     1      -0.324  -0.560  -3.134  1.00  0.00    -0.030 A 
HETATM    2  C   LIG     1       0.018  -1.750  -3.799  1.00  0.00     0.017 A 
HETATM    3  C   LIG     1      -0.511  -2.044  -5.070  1.00  0.00    -0.033 A 
HETATM    4  C   LIG     1      -1.703   0.071  -5.036  1.00  0.00     0.001 A 
HETATM    5  C   LIG     1      -1.188   0.343  -3.767  1.00  0.00     0.009 A 
HETATM    6  C   LIG     1      -1.366  -1.118  -5.681  1.00  0.00     0.009 A 
ENDROOT
BRANCH   1   7
HETATM    7  C   LIG     1       0.214  -0.257  -1.746  1.00  0.00     0.311 C 
BRANCH   7   8
HETATM    8  N   LIG     1      -0.267  -1.173  -0.693  1.00  0.00     0.092 N 
HETATM    9  C   LIG     1      -1.730  -1.168  -0.536  1.00  0.00     0.273 C 
HETATM   10  C   LIG     1      -2.289   0.130   0.055  1.00  0.00     0.034 C 
HETATM   11  C   LIG     1      -1.607   0.490   1.382  1.00  0.00    -0.015 C 
HETATM   12  C   LIG     1      -0.081   0.436   1.238  1.00  0.00     0.034 C 
HETATM   13  C   LIG     1      -2.065   1.861   1.875  1.00  0.00     0.010 C 
HETATM   14  C   LIG     1       0.365  -0.889   0.608  1.00  0.00     0.273 C 
ENDBRANCH   7   8
ENDBRANCH   1   7
BRANCH   3  15
HETATM   15  C   LIG     1      -0.174  -3.342  -5.760  1.00  0.00     0.268 C 
BRANCH  15  16
HETATM   16  N   LIG     1      -1.371  -4.145  -6.003  1.00  0.00    -0.075 N 
ATOM     17  HN3 LIG     1      -1.895  -4.305  -5.142  1.00  0.00     0.274 HD
ATOM     18  HN2 LIG     1      -2.075  -3.619  -6.521  1.00  0.00     0.274 HD
ATOM     19  HN1 LIG     1      -1.143  -5.023  -6.470  1.00  0.00     0.274 HD
ENDBRANCH  15  16
ENDBRANCH   3  15
TORSDOF 4
