REMARK  2 active torsions:
REMARK  status: ('A' for Active; 'I' for Inactive)
REMARK    1  A    between atoms: C_1  and  C_7 
REMARK    2  A    between atoms: C_4  and  C_8 
ROOT
HETATM    1  C   UNK     1      -1.347  -0.246   0.460  1.00  0.00     0.117 A 
HETATM    2  N   UNK     1      -0.348  -1.211   0.323  1.00  0.00    -0.344 N 
ATOM      3  HN  UNK     1      -0.511  -2.217   0.355  1.00  0.00     0.167 HD
HETATM    4  C   UNK     1       0.835  -0.653   0.146  1.00  0.00     0.085 A 
HETATM    5  S   UNK     1       0.801   1.072   0.114  1.00  0.00    -0.081 SA
HETATM    6  C   UNK     1      -0.887   1.054   0.372  1.00  0.00     0.088 A 
ENDROOT
BRANCH   4   7
HETATM    7  C   UNK     1       2.092  -1.419  -0.005  1.00  0.00    -0.001 A 
HETATM    8  C   UNK     1       3.347  -0.816  -0.193  1.00  0.00     0.038 A 
HETATM    9  C   UNK     1       4.500  -1.595  -0.317  1.00  0.00     0.035 A 
HETATM   10 CL   UNK     1       6.025  -0.827  -0.541  1.00  0.00    -0.084 Cl
HETATM   11  C   UNK     1       4.432  -2.984  -0.260  1.00  0.00     0.024 A 
HETATM   12  C   UNK     1       3.198  -3.601  -0.077  1.00  0.00     0.003 A 
HETATM   13  C   UNK     1       2.042  -2.825   0.049  1.00  0.00     0.014 A 
ENDBRANCH   4   7
BRANCH   1  14
HETATM   14  C   UNK     1      -2.749  -0.583   0.683  1.00  0.00     0.227 C 
HETATM   15  O   UNK     1      -3.655   0.227   0.832  1.00  0.00    -0.643 OA
HETATM   16  O   UNK     1      -3.017  -1.909   0.720  1.00  0.00    -0.643 OA
ENDBRANCH   1  14
TORSDOF 2
