REMARK  1 active torsions:
REMARK  status: ('A' for Active; 'I' for Inactive)
REMARK       I    between atoms: C_1  and  N_2 
REMARK    1  A    between atoms: C_1  and  C_7 
ROOT
HETATM    1  N   LIG     1       4.177  -2.771   0.250  1.00  0.00    -0.075 N 
ATOM      2  HN1 LIG     1       5.121  -2.552   0.569  1.00  0.00     0.277 HD
ATOM      3  HN2 LIG     1       4.229  -3.788   0.310  1.00  0.00     0.277 HD
HETATM    4  C   LIG     1       3.046  -0.097  -0.273  1.00  0.00     0.081 C 
HETATM    5  C   LIG     1       3.158  -2.224   1.147  1.00  0.00     0.233 C 
HETATM    6  C   LIG     1       3.948  -2.318  -1.120  1.00  0.00     0.233 C 
HETATM    7  C   LIG     1       3.162  -0.695   1.141  1.00  0.00     0.041 C 
HETATM    8  C   LIG     1       4.028  -0.796  -1.225  1.00  0.00     0.041 C 
ENDROOT
BRANCH   4   9
HETATM    9  C   LIG     1       1.608  -0.162  -0.810  1.00  0.00     0.224 C 
HETATM   10  N   LIG     1       1.326   0.513  -2.003  1.00  0.00    -0.352 N 
HETATM   11  C   LIG     1      -0.053   0.424  -2.488  1.00  0.00     0.125 C 
HETATM   12  C   LIG     1       2.064   1.704  -2.433  1.00  0.00     0.125 C 
HETATM   13  C   LIG     1      -0.155   0.634  -3.995  1.00  0.00     0.020 C 
HETATM   14  C   LIG     1       0.539   1.920  -4.425  1.00  0.00     0.003 C 
HETATM   15  C   LIG     1       1.984   1.923  -3.940  1.00  0.00     0.020 C 
HETATM   16  O   LIG     1       0.744  -0.814  -0.221  1.00  0.00    -0.273 OA
ENDBRANCH   4   9
TORSDOF 1
