REMARK  1 active torsions:
REMARK  status: ('A' for Active; 'I' for Inactive)
REMARK       I    between atoms: C_1  and  N_2 
REMARK    1  A    between atoms: C_1  and  C_3 
ROOT
HETATM    1  C   LIG     1       0.745   0.271  -2.223  1.00  0.00     0.103 C 
HETATM    2  N   LIG     1       1.517   0.345  -4.620  1.00  0.00    -0.074 N 
ATOM      3  HN1 LIG     1       1.811  -0.212  -5.422  1.00  0.00     0.277 HD
ATOM      4  HN2 LIG     1       2.394   0.832  -4.437  1.00  0.00     0.277 HD
HETATM    5  C   LIG     1       1.127  -0.502  -3.493  1.00  0.00     0.246 C 
HETATM    6  C   LIG     1      -0.301   1.351  -2.567  1.00  0.00     0.017 C 
HETATM    7  C   LIG     1       0.451   1.277  -4.976  1.00  0.00     0.232 C 
HETATM    8  C   LIG     1       0.090   2.172  -3.797  1.00  0.00     0.028 C 
ENDROOT
BRANCH   1   9
HETATM    9  C   LIG     1       1.934   0.851  -1.442  1.00  0.00     0.225 C 
HETATM   10  N   LIG     1       2.857  -0.020  -0.898  1.00  0.00    -0.352 N 
HETATM   11  C   LIG     1       2.888  -1.474  -0.953  1.00  0.00     0.126 C 
HETATM   12  C   LIG     1       3.948   0.487  -0.080  1.00  0.00     0.126 C 
HETATM   13  C   LIG     1       3.855  -1.880   0.148  1.00  0.00     0.021 C 
HETATM   14  C   LIG     1       4.842  -0.720   0.165  1.00  0.00     0.021 C 
HETATM   15  O   LIG     1       2.027   2.065  -1.225  1.00  0.00    -0.273 OA
ENDBRANCH   1   9
TORSDOF 1
