REMARK  1 active torsions:
REMARK  status: ('A' for Active; 'I' for Inactive)
REMARK    1  A    between atoms: C_1  and  C_6 
ROOT
HETATM    1  C   LIG     1       1.175  -1.446   0.011  1.00  0.00     0.055 A 
HETATM    2  C   LIG     1      -0.071  -0.772   0.007  1.00  0.00     0.011 A 
HETATM    3  N   LIG     1       1.143   1.319  -0.136  1.00  0.00    -0.359 N 
ATOM      4  HN  LIG     1       1.135   2.337  -0.205  1.00  0.00     0.166 HD
HETATM    5  C   LIG     1      -0.011   0.636  -0.079  1.00  0.00     0.043 A 
HETATM    6  C   LIG     1       2.373  -0.729  -0.024  1.00  0.00     0.043 A 
HETATM    7  C   LIG     1       2.315   0.649  -0.101  1.00  0.00     0.006 A 
HETATM    8  C   LIG     1      -1.347  -1.386   0.103  1.00  0.00     0.057 A 
HETATM    9  C   LIG     1      -1.192   1.368  -0.095  1.00  0.00     0.033 A 
HETATM   10  C   LIG     1      -2.507  -0.622   0.087  1.00  0.00     0.117 A 
HETATM   11  C   LIG     1      -2.442   0.755  -0.017  1.00  0.00     0.044 A 
HETATM   12  F   LIG     1      -3.699  -1.225   0.175  1.00  0.00    -0.206 F 
HETATM   13  C   LIG     1       3.575   1.460  -0.142  1.00  0.00     0.068 C 
ENDROOT
BRANCH   1  14
HETATM   14  C   LIG     1       1.325  -2.916   0.065  1.00  0.00     0.210 C 
HETATM   15  O   LIG     1       2.214  -3.512   0.644  1.00  0.00    -0.644 OA
HETATM   16  O   LIG     1       0.447  -3.560  -0.721  1.00  0.00    -0.644 OA
ENDBRANCH   1  14
TORSDOF 1
