REMARK  4 active torsions:
REMARK  status: ('A' for Active; 'I' for Inactive)
REMARK    1  A    between atoms: N_1  and  C_2 
REMARK    2  A    between atoms: C_2  and  C_3 
REMARK    3  A    between atoms: C_5  and  C_14 
REMARK    4  A    between atoms: N_6  and  C_14 
ROOT
HETATM    1  C   LIG     1       0.158  -0.301  -2.909  1.00  0.00    -0.030 A 
HETATM    2  C   LIG     1       1.053  -1.103  -3.639  1.00  0.00     0.017 A 
HETATM    3  C   LIG     1       0.705  -1.618  -4.900  1.00  0.00    -0.033 A 
HETATM    4  C   LIG     1      -1.475  -0.571  -4.684  1.00  0.00     0.001 A 
HETATM    5  C   LIG     1      -1.110  -0.050  -3.441  1.00  0.00     0.009 A 
HETATM    6  C   LIG     1      -0.567  -1.344  -5.412  1.00  0.00     0.009 A 
ENDROOT
BRANCH   1   7
HETATM    7  C   LIG     1       0.581   0.297  -1.581  1.00  0.00     0.311 C 
BRANCH   7   8
HETATM    8  N   LIG     1      -0.247  -0.109  -0.432  1.00  0.00     0.092 N 
HETATM    9  C   LIG     1       0.208   0.527   0.817  1.00  0.00     0.272 C 
HETATM   10  C   LIG     1       1.510  -0.047   1.389  1.00  0.00     0.030 C 
HETATM   11  C   LIG     1       1.462  -1.568   1.511  1.00  0.00     0.003 C 
HETATM   12  C   LIG     1       0.957  -2.216   0.227  1.00  0.00     0.030 C 
HETATM   13  C   LIG     1      -0.340  -1.565  -0.251  1.00  0.00     0.272 C 
ENDBRANCH   7   8
ENDBRANCH   1   7
BRANCH   3  14
HETATM   14  C   LIG     1       1.693  -2.444  -5.685  1.00  0.00     0.268 C 
BRANCH  14  15
HETATM   15  N   LIG     1       2.910  -1.691  -5.969  1.00  0.00    -0.075 N 
ATOM     16  HN3 LIG     1       2.703  -0.810  -6.439  1.00  0.00     0.274 HD
ATOM     17  HN2 LIG     1       3.328  -1.320  -5.116  1.00  0.00     0.274 HD
ATOM     18  HN1 LIG     1       3.578  -2.250  -6.500  1.00  0.00     0.274 HD
ENDBRANCH  14  15
ENDBRANCH   3  14
TORSDOF 4
