REMARK  1 active torsions:
REMARK  status: ('A' for Active; 'I' for Inactive)
REMARK    1  A    between atoms: N_1  and  C_4 
ROOT
HETATM    1  N   LIG     1       2.726   5.666  -4.802  1.00  0.00    -0.191 NA
HETATM    2  C   LIG     1       2.406   4.927  -3.966  1.00  0.00     0.099 C 
HETATM    3  C   LIG     1       1.222   2.193  -0.896  1.00  0.00     0.030 A 
HETATM    4  C   LIG     1       0.844   3.547  -0.868  1.00  0.00     0.031 A 
HETATM    5  C   LIG     1       2.030   1.788  -1.969  1.00  0.00     0.031 A 
HETATM    6  C   LIG     1       2.010   4.013  -2.935  1.00  0.00     0.044 A 
HETATM    7  C   LIG     1       2.415   2.680  -2.981  1.00  0.00     0.025 A 
HETATM    8  C   LIG     1       1.224   4.448  -1.871  1.00  0.00     0.025 A 
ENDROOT
BRANCH   3   9
HETATM    9  N   LIG     1       0.829   1.343   0.138  1.00  0.00    -0.378 N 
HETATM   10  C   LIG     1       1.494   0.039   0.339  1.00  0.00     0.150 C 
HETATM   11  C   LIG     1       0.759  -1.102  -0.404  1.00  0.00     0.252 C 
HETATM   12  N   LIG     1      -0.682  -1.187  -0.081  1.00  0.00    -0.072 N 
HETATM   13  C   LIG     1      -1.303   0.132  -0.334  1.00  0.00     0.252 C 
ATOM     14  HN2 LIG     1      -1.151  -1.942  -0.582  1.00  0.00     0.277 HD
ATOM     15  HN1 LIG     1      -0.850  -1.522   0.868  1.00  0.00     0.277 HD
HETATM   16  C   LIG     1      -0.623   1.291   0.435  1.00  0.00     0.150 C 
ENDBRANCH   3   9
TORSDOF 1
