REMARK  1 active torsions:
REMARK  status: ('A' for Active; 'I' for Inactive)
REMARK    1  A    between atoms: C_3  and  C_8 
ROOT
HETATM    1  N   LIG     1      -0.145  -0.879   0.492  1.00  0.00    -0.183 N 
ATOM      2  HN  LIG     1      -0.322  -1.873   0.639  1.00  0.00     0.185 HD
HETATM    3  C   LIG     1       1.025  -0.345   0.190  1.00  0.00     0.117 A 
HETATM    4  C   LIG     1      -1.087   0.121   0.576  1.00  0.00     0.683 A 
HETATM    5  N   LIG     1      -0.742   1.379   0.329  1.00  0.00    -0.159 N 
ATOM      6  HN  LIG     1      -1.355   2.194   0.338  1.00  0.00     0.193 HD
HETATM    7  S   LIG     1       0.891   1.363   0.002  1.00  0.00     0.021 SA
HETATM    8  N   LIG     1      -2.327  -0.272   0.880  1.00  0.00    -0.234 N 
ATOM      9  HN1 LIG     1      -3.025   0.469   0.942  1.00  0.00     0.174 HD
ATOM     10  HN2 LIG     1      -2.592  -1.239   1.070  1.00  0.00     0.174 HD
ENDROOT
BRANCH   3  11
HETATM   11  C   LIG     1       2.284  -1.091   0.027  1.00  0.00    -0.000 A 
HETATM   12  C   LIG     1       3.508  -0.487  -0.309  1.00  0.00     0.016 A 
HETATM   13  C   LIG     1       4.674  -1.251  -0.450  1.00  0.00     0.024 A 
HETATM   14  C   LIG     1       4.631  -2.629  -0.257  1.00  0.00     0.034 A 
HETATM   15  C   LIG     1       3.433  -3.251   0.075  1.00  0.00     0.024 A 
HETATM   16 CL   LIG     1       6.064  -3.563  -0.432  1.00  0.00    -0.084 Cl
HETATM   17  C   LIG     1       2.270  -2.486   0.216  1.00  0.00     0.016 A 
ENDBRANCH   3  11
TORSDOF 1
