REMARK  3 active torsions:
REMARK  status: ('A' for Active; 'I' for Inactive)
REMARK    1  A    between atoms: C_1  and  N_2 
REMARK    2  A    between atoms: C_6  and  C_13 
REMARK    3  A    between atoms: O_11  and  C_13 
ROOT
HETATM    1  C   LIG     1      -1.374   0.849  -0.234  1.00  0.00     0.102 A 
HETATM    2  N   LIG     1      -1.038  -0.412  -0.586  1.00  0.00    -0.352 N 
ATOM      3  HN  LIG     1      -1.753  -1.074  -0.888  1.00  0.00     0.166 HD
HETATM    4  C   LIG     1      -0.379   1.756   0.140  1.00  0.00     0.049 A 
HETATM    5  C   LIG     1       1.302   0.056  -0.150  1.00  0.00    -0.019 A 
HETATM    6  C   LIG     1       0.265  -0.782  -0.531  1.00  0.00     0.099 A 
HETATM    7  C   LIG     1       0.957   1.360   0.187  1.00  0.00     0.014 A 
ENDROOT
BRANCH   1   8
HETATM    8  N   LIG     1      -2.697   1.226  -0.282  1.00  0.00    -0.367 N 
HETATM    9  C   LIG     1      -3.712   0.240  -0.640  1.00  0.00     0.124 C 
HETATM   10  C   LIG     1      -5.020   0.980  -0.370  1.00  0.00     0.021 C 
HETATM   11  C   LIG     1      -4.682   1.810   0.858  1.00  0.00     0.021 C 
HETATM   12  C   LIG     1      -3.242   2.252   0.603  1.00  0.00     0.124 C 
ENDBRANCH   1   8
BRANCH   5  13
HETATM   13  C   LIG     1       2.721  -0.417  -0.090  1.00  0.00     0.204 C 
BRANCH  13  14
HETATM   14  O   LIG     1       3.538   0.318  -0.991  1.00  0.00    -0.396 OA
ATOM     15  HO  LIG     1       4.439   0.018  -0.953  1.00  0.00     0.209 HD
ENDBRANCH  13  14
ENDBRANCH   5  13
TORSDOF 3
