REMARK  3 active torsions:
REMARK  status: ('A' for Active; 'I' for Inactive)
REMARK    1  A    between atoms: C_1  and  N_2 
REMARK    2  A    between atoms: C_6  and  C_13 
REMARK    3  A    between atoms: O_11  and  C_13 
ROOT
HETATM    1  C   LIG     1      -1.673  -0.238  -0.846  1.00  0.00     0.102 A 
HETATM    2  N   LIG     1      -1.352  -1.281  -1.645  1.00  0.00    -0.352 N 
ATOM      3  HN  LIG     1      -1.995  -2.066  -1.752  1.00  0.00     0.166 HD
HETATM    4  C   LIG     1      -0.770   0.815  -0.691  1.00  0.00     0.049 A 
HETATM    5  C   LIG     1       0.768  -0.256  -2.204  1.00  0.00    -0.019 A 
HETATM    6  C   LIG     1      -0.168  -1.272  -2.301  1.00  0.00     0.099 A 
HETATM    7  C   LIG     1       0.446   0.815  -1.379  1.00  0.00     0.014 A 
ENDROOT
BRANCH   1   8
HETATM    8  N   LIG     1      -2.883  -0.258  -0.145  1.00  0.00    -0.367 N 
HETATM    9  C   LIG     1      -3.684  -1.485  -0.289  1.00  0.00     0.124 C 
HETATM   10  C   LIG     1      -4.550  -1.438  -1.551  1.00  0.00     0.020 C 
HETATM   11  C   LIG     1      -5.394  -0.165  -1.598  1.00  0.00     0.003 C 
HETATM   12  C   LIG     1      -4.530   1.080  -1.400  1.00  0.00     0.020 C 
HETATM   13  C   LIG     1      -3.689   0.969  -0.128  1.00  0.00     0.124 C 
ENDBRANCH   1   8
BRANCH   5  14
HETATM   14  C   LIG     1       2.045  -0.300  -2.983  1.00  0.00     0.204 C 
BRANCH  14  15
HETATM   15  O   LIG     1       1.882   0.290  -4.265  1.00  0.00    -0.396 OA
ATOM     16  HO  LIG     1       2.693   0.262  -4.760  1.00  0.00     0.209 HD
ENDBRANCH  14  15
ENDBRANCH   5  14
TORSDOF 3
