REMARK  1 active torsions:
REMARK  status: ('A' for Active; 'I' for Inactive)
REMARK    1  A    between atoms: C_8  and  C_9 
ROOT
HETATM    1  N   LIG     1      -1.591   1.029   0.039  1.00  0.00    -0.359 N 
ATOM      2  HN  LIG     1      -1.900   2.001   0.069  1.00  0.00     0.166 HD
HETATM    3  C   LIG     1      -0.277  -0.767  -0.024  1.00  0.00    -0.001 A 
HETATM    4  C   LIG     1      -1.644  -1.198  -0.022  1.00  0.00    -0.027 A 
HETATM    5  C   LIG     1      -2.430  -0.057   0.016  1.00  0.00     0.012 A 
HETATM    6  C   LIG     1      -0.277   0.626   0.016  1.00  0.00     0.043 A 
HETATM    7  C   LIG     1       0.965  -1.438  -0.055  1.00  0.00     0.032 A 
HETATM    8  C   LIG     1       2.156  -0.693  -0.046  1.00  0.00     0.041 A 
HETATM    9  C   LIG     1       0.896   1.390   0.026  1.00  0.00     0.031 A 
HETATM   10  C   LIG     1       2.114   0.704  -0.006  1.00  0.00     0.021 A 
HETATM   11  C   LIG     1      -2.134  -2.603  -0.057  1.00  0.00     0.051 C 
HETATM   12  C   LIG     1      -3.905   0.118   0.033  1.00  0.00     0.068 C 
ENDROOT
BRANCH   8  13
HETATM   13  C   LIG     1       3.485  -1.350  -0.079  1.00  0.00     0.209 C 
HETATM   14  O   LIG     1       4.562  -0.783  -0.070  1.00  0.00    -0.644 OA
HETATM   15  O   LIG     1       3.407  -2.692  -0.124  1.00  0.00    -0.644 OA
ENDBRANCH   8  13
TORSDOF 1
