REMARK  2 active torsions:
REMARK  status: ('A' for Active; 'I' for Inactive)
REMARK    1  A    between atoms: C_1  and  C_7 
REMARK    2  A    between atoms: C_4  and  C_8 
ROOT
HETATM    1  C   UNK     1      -0.436   1.055   0.671  1.00  0.00     0.117 A 
HETATM    2  N   UNK     1       0.853   0.521   0.645  1.00  0.00    -0.344 N 
ATOM      3  HN  UNK     1       1.688   1.011   0.966  1.00  0.00     0.167 HD
HETATM    4  C   UNK     1       0.848  -0.702   0.150  1.00  0.00     0.085 A 
HETATM    5  S   UNK     1      -0.704  -1.261  -0.353  1.00  0.00    -0.081 SA
HETATM    6  C   UNK     1      -1.404   0.214   0.154  1.00  0.00     0.088 A 
ENDROOT
BRANCH   4   7
HETATM    7  C   UNK     1       2.057  -1.527  -0.024  1.00  0.00    -0.002 A 
HETATM    8  C   UNK     1       3.296  -0.891  -0.198  1.00  0.00     0.015 A 
HETATM    9  C   UNK     1       4.470  -1.631  -0.369  1.00  0.00     0.007 A 
HETATM   10  C   UNK     1       4.434  -3.029  -0.356  1.00  0.00    -0.062 A 
HETATM   11  C   UNK     1       3.207  -3.672  -0.171  1.00  0.00     0.007 A 
HETATM   12  C   UNK     1       5.698  -3.813  -0.550  1.00  0.00     0.048 C 
HETATM   13  C   UNK     1       2.032  -2.930  -0.004  1.00  0.00     0.015 A 
ENDBRANCH   4   7
BRANCH   1  14
HETATM   14  C   UNK     1      -0.730   2.385   1.196  1.00  0.00     0.227 C 
HETATM   15  O   UNK     1      -1.840   2.897   1.241  1.00  0.00    -0.643 OA
HETATM   16  O   UNK     1       0.345   3.063   1.661  1.00  0.00    -0.643 OA
ENDBRANCH   1  14
TORSDOF 2
