REMARK  2 active torsions:
REMARK  status: ('A' for Active; 'I' for Inactive)
REMARK    1  A    between atoms: C_4  and  C_11 
REMARK    2  A    between atoms: O_9  and  C_11 
ROOT
HETATM    1  N   LIG     1       0.735   1.204   0.188  1.00  0.00    -0.354 N 
ATOM      2  HN  LIG     1       1.231   2.082   0.344  1.00  0.00     0.166 HD
HETATM    3  C   LIG     1       1.397   0.047   0.034  1.00  0.00     0.116 A 
HETATM    4  C   LIG     1      -1.352   0.001  -0.087  1.00  0.00    -0.019 A 
HETATM    5  C   LIG     1      -0.617   1.160   0.128  1.00  0.00     0.098 A 
HETATM    6  N   LIG     1       2.785   0.108   0.124  1.00  0.00    -0.083 NA
HETATM    7  C   LIG     1       0.755  -1.165  -0.170  1.00  0.00     0.046 A 
HETATM    8  C   LIG     1      -0.636  -1.188  -0.234  1.00  0.00     0.014 A 
ENDROOT
BRANCH   4   9
HETATM    9  C   LIG     1      -2.849   0.022  -0.138  1.00  0.00     0.204 C 
BRANCH   9  10
HETATM   10  O   LIG     1      -3.320  -0.449  -1.395  1.00  0.00    -0.396 OA
ATOM     11  HO  LIG     1      -4.269  -0.436  -1.427  1.00  0.00     0.209 HD
ENDBRANCH   9  10
ENDBRANCH   4   9
TORSDOF 2
