REMARK  4 active torsions:
REMARK  status: ('A' for Active; 'I' for Inactive)
REMARK    1  A    between atoms: C_1  and  O_4 
REMARK    2  A    between atoms: C_1  and  O_6 
REMARK    3  A    between atoms: C_7  and  C_14 
REMARK    4  A    between atoms: N_8  and  C_14 
ROOT
HETATM    1 CL   LIG     2       2.397  -2.895  -1.061  1.00  0.00     0.000 Cl
ENDROOT
TORSDOF 4
