REMARK  2 active torsions:
REMARK  status: ('A' for Active; 'I' for Inactive)
REMARK       I    between atoms: C_1  and  N_2 
REMARK    1  A    between atoms: C_9  and  C_12 
REMARK    2  A    between atoms: C_9  and  C_13 
ROOT
HETATM    1  I   LIG     2       2.195  -2.811  -1.352  1.00  0.00     0.000 I 
ENDROOT
TORSDOF 2
