REMARK  2 active torsions:
REMARK  status: ('A' for Active; 'I' for Inactive)
REMARK    1  A    between atoms: C_1  and  C_5 
REMARK    2  A    between atoms: C_2  and  C_4 
ROOT
HETATM    1  C   LIG     1      -1.549   5.131  -0.261  1.00  0.00     0.040 A 
HETATM    2  C   LIG     1      -0.832   2.411  -0.035  1.00  0.00    -0.025 A 
HETATM    3  C   LIG     1      -0.303   4.773   0.261  1.00  0.00     0.019 A 
HETATM    4  C   LIG     1      -2.437   4.131  -0.670  1.00  0.00     0.019 A 
HETATM    5  C   LIG     1       0.052   3.422   0.370  1.00  0.00     0.013 A 
HETATM    6  C   LIG     1      -2.082   2.782  -0.554  1.00  0.00     0.013 A 
ENDROOT
BRANCH   2   7
HETATM    7  C   LIG     1      -0.449   1.003   0.100  1.00  0.00    -0.019 A 
HETATM    8  C   LIG     1      -0.889   0.026  -0.776  1.00  0.00     0.061 A 
HETATM    9  S   LIG     1      -0.291  -1.533  -0.395  1.00  0.00    -0.113 SA
HETATM   10  C   LIG     1       0.583  -0.929   0.941  1.00  0.00     0.050 A 
HETATM   11  C   LIG     1       0.415   0.430   1.094  1.00  0.00     0.020 A 
ENDBRANCH   2   7
BRANCH   1  12
HETATM   12  C   LIG     1      -1.972   6.546  -0.395  1.00  0.00     0.209 C 
HETATM   13  O   LIG     1      -3.037   6.933  -0.842  1.00  0.00    -0.644 OA
HETATM   14  O   LIG     1      -1.042   7.413   0.042  1.00  0.00    -0.644 OA
ENDBRANCH   1  12
TORSDOF 2
