REMARK  3 active torsions:
REMARK  status: ('A' for Active; 'I' for Inactive)
REMARK    1  A    between atoms: C_1  and  C_7 
REMARK    2  A    between atoms: C_7  and  O_10 
REMARK    3  A    between atoms: O_10  and  C_12 
ROOT
HETATM    1  C   LIG     1      -0.006  -0.287  -0.057  1.00  0.00     0.105 A 
HETATM    2  N   LIG     1       1.411   1.574  -0.225  1.00  0.00    -0.343 N 
ATOM      3  HN  LIG     1       2.286   2.094  -0.290  1.00  0.00     0.167 HD
HETATM    4  C   LIG     1       1.297   0.192  -0.146  1.00  0.00     0.030 A 
HETATM    5  S   LIG     1      -1.103   1.039  -0.118  1.00  0.00    -0.052 SA
HETATM    6  C   LIG     1       0.213   2.099  -0.203  1.00  0.00     0.146 A 
HETATM    7 CL   LIG     1      -0.051   3.793  -0.242  1.00  0.00    -0.056 Cl
HETATM    8  C   LIG     1       2.551  -0.613  -0.138  1.00  0.00     0.070 C 
ENDROOT
BRANCH   1   9
HETATM    9  C   LIG     1      -0.438  -1.661   0.085  1.00  0.00     0.302 C 
HETATM   10  O   LIG     1       0.308  -2.630   0.100  1.00  0.00    -0.259 OA
BRANCH   9  11
HETATM   11  O   LIG     1      -1.794  -1.740   0.236  1.00  0.00    -0.317 OA
BRANCH  11  12
HETATM   12  C   LIG     1      -2.320  -3.048   0.499  1.00  0.00     0.174 C 
HETATM   13  C   LIG     1      -2.456  -3.840  -0.787  1.00  0.00     0.034 C 
ENDBRANCH  11  12
ENDBRANCH   9  11
ENDBRANCH   1   9
TORSDOF 3
