REMARK  1 active torsions:
REMARK  status: ('A' for Active; 'I' for Inactive)
REMARK    1  A    between atoms: C_3  and  C_8 
ROOT
HETATM    1  N   LIG     1      -0.151  -0.865   0.486  1.00  0.00    -0.183 N 
ATOM      2  HN  LIG     1      -0.326  -1.851   0.678  1.00  0.00     0.185 HD
HETATM    3  C   LIG     1       1.018  -0.344   0.155  1.00  0.00     0.117 A 
HETATM    4  C   LIG     1      -1.093   0.136   0.530  1.00  0.00     0.683 A 
HETATM    5  N   LIG     1      -0.751   1.382   0.225  1.00  0.00    -0.159 N 
ATOM      6  HN  LIG     1      -1.365   2.196   0.201  1.00  0.00     0.193 HD
HETATM    7  S   LIG     1       0.880   1.353  -0.111  1.00  0.00     0.021 SA
HETATM    8  N   LIG     1      -2.330  -0.244   0.860  1.00  0.00    -0.234 N 
ATOM      9  HN1 LIG     1      -3.029   0.498   0.893  1.00  0.00     0.174 HD
ATOM     10  HN2 LIG     1      -2.593  -1.201   1.094  1.00  0.00     0.174 HD
ENDROOT
BRANCH   3  11
HETATM   11  C   LIG     1       2.277  -1.094   0.015  1.00  0.00    -0.000 A 
HETATM   12  C   LIG     1       3.511  -0.491  -0.278  1.00  0.00     0.014 A 
HETATM   13  C   LIG     1       4.676  -1.257  -0.398  1.00  0.00     0.001 A 
HETATM   14  C   LIG     1       4.628  -2.638  -0.227  1.00  0.00     0.000 A 
HETATM   15  C   LIG     1       3.416  -3.256   0.065  1.00  0.00     0.001 A 
HETATM   16  C   LIG     1       2.254  -2.490   0.185  1.00  0.00     0.014 A 
ENDBRANCH   3  11
TORSDOF 1
