REMARK  3 active torsions:
REMARK  status: ('A' for Active; 'I' for Inactive)
REMARK    1  A    between atoms: C_1  and  C_8 
REMARK    2  A    between atoms: C_4  and  C_10 
REMARK    3  A    between atoms: C_6  and  C_9 
ROOT
HETATM    1  C   UNK     1       4.337  -3.028  -0.372  1.00  0.00     0.048 A 
HETATM    2  C   UNK     1       2.171  -1.213  -0.025  1.00  0.00    -0.002 A 
HETATM    3  C   UNK     1       3.034  -3.500  -0.166  1.00  0.00     0.017 A 
HETATM    4  C   UNK     1       4.549  -1.644  -0.401  1.00  0.00     0.017 A 
HETATM    5  C   UNK     1       1.969  -2.604   0.005  1.00  0.00     0.015 A 
HETATM    6  C   UNK     1       3.483  -0.753  -0.230  1.00  0.00     0.015 A 
ENDROOT
BRANCH   2   7
HETATM    7  C   UNK     1       1.016  -0.302   0.154  1.00  0.00     0.085 A 
HETATM    8  N   UNK     1      -0.224  -0.700   0.375  1.00  0.00    -0.344 N 
HETATM    9  C   UNK     1      -1.089   0.393   0.496  1.00  0.00     0.117 A 
ATOM     10  HN  UNK     1      -0.513  -1.676   0.448  1.00  0.00     0.167 HD
HETATM   11  C   UNK     1      -0.468   1.620   0.360  1.00  0.00     0.088 A 
HETATM   12  S   UNK     1       1.200   1.415   0.082  1.00  0.00    -0.081 SA
BRANCH   9  13
HETATM   13  C   UNK     1      -2.522   0.262   0.744  1.00  0.00     0.227 C 
HETATM   14  O   UNK     1      -3.306   1.195   0.849  1.00  0.00    -0.643 OA
HETATM   15  O   UNK     1      -2.970  -1.009   0.860  1.00  0.00    -0.643 OA
ENDBRANCH   9  13
ENDBRANCH   2   7
BRANCH   1  16
HETATM   16  C   UNK     1       5.504  -3.965  -0.563  1.00  0.00     0.417 C 
HETATM   17  F   UNK     1       5.166  -5.283  -0.509  1.00  0.00    -0.166 F 
HETATM   18  F   UNK     1       6.122  -3.786  -1.764  1.00  0.00    -0.166 F 
HETATM   19  F   UNK     1       6.471  -3.787   0.380  1.00  0.00    -0.166 F 
ENDBRANCH   1  16
TORSDOF 3
