REMARK  0 active torsions:
REMARK  status: ('A' for Active; 'I' for Inactive)
ROOT
HETATM    1  N   LIG     1       1.582   1.167   0.045  1.00  0.00    -0.345 N 
ATOM      2  HN  LIG     1       1.923   2.128   0.072  1.00  0.00     0.167 HD
HETATM    3  C   LIG     1       0.259  -0.661  -0.007  1.00  0.00     0.105 A 
HETATM    4  C   LIG     1       2.280   0.052   0.023  1.00  0.00     0.234 A 
HETATM    5  C   LIG     1       0.284   0.724   0.022  1.00  0.00     0.067 A 
HETATM    6  O   LIG     1       1.552  -1.100  -0.009  1.00  0.00    -0.304 OA
HETATM    7  C   LIG     1      -0.896  -1.433  -0.042  1.00  0.00     0.066 A 
HETATM    8  C   LIG     1      -0.930   1.419   0.004  1.00  0.00     0.034 A 
HETATM    9  C   LIG     1      -2.112  -0.736  -0.002  1.00  0.00     0.049 A 
HETATM   10  N   LIG     1      -3.317  -1.436  -0.167  1.00  0.00    -0.102 NA
HETATM   11  C   LIG     1      -2.118   0.669  -0.030  1.00  0.00     0.029 A 
ENDROOT
TORSDOF 0
