REMARK  5 active torsions:
REMARK  status: ('A' for Active; 'I' for Inactive)
REMARK    1  A    between atoms: C_3  and  N_4 
REMARK    2  A    between atoms: N_4  and  C_12 
REMARK    3  A    between atoms: N_4  and  C_13 
REMARK    4  A    between atoms: C_6  and  C_11 
REMARK    5  A    between atoms: O_9  and  C_11 
ROOT
HETATM    1  N   LIG     1      -0.061  -0.417  -0.907  1.00  0.00    -0.352 N 
ATOM      2  HN  LIG     1      -0.361  -1.362  -1.148  1.00  0.00     0.166 HD
HETATM    3  C   LIG     1      -0.949   0.476  -0.407  1.00  0.00     0.102 A 
HETATM    4  C   LIG     1      -0.511   1.774  -0.132  1.00  0.00     0.049 A 
HETATM    5  C   LIG     1       1.735   1.215  -0.787  1.00  0.00    -0.019 A 
HETATM    6  C   LIG     1       1.233  -0.042  -1.084  1.00  0.00     0.099 A 
HETATM    7  C   LIG     1       0.822   2.148  -0.320  1.00  0.00     0.014 A 
ENDROOT
BRANCH   3   8
HETATM    8  N   LIG     1      -2.259   0.080  -0.185  1.00  0.00    -0.368 N 
BRANCH   8   9
HETATM    9  C   LIG     1      -2.620  -1.324  -0.384  1.00  0.00     0.120 C 
HETATM   10  C   LIG     1      -3.093  -1.575  -1.809  1.00  0.00     0.026 C 
ENDBRANCH   8   9
BRANCH   8  11
HETATM   11  C   LIG     1      -3.252   0.949   0.443  1.00  0.00     0.120 C 
HETATM   12  C   LIG     1      -3.107   0.961   1.959  1.00  0.00     0.026 C 
ENDBRANCH   8  11
ENDBRANCH   3   8
BRANCH   5  13
HETATM   13  C   LIG     1       3.178   1.572  -0.973  1.00  0.00     0.204 C 
BRANCH  13  14
HETATM   14  O   LIG     1       3.421   2.112  -2.264  1.00  0.00    -0.396 OA
ATOM     15  HO  LIG     1       4.336   2.338  -2.382  1.00  0.00     0.209 HD
ENDBRANCH  13  14
ENDBRANCH   5  13
TORSDOF 5
