REMARK  2 active torsions:
REMARK  status: ('A' for Active; 'I' for Inactive)
REMARK    1  A    between atoms: C_5  and  C_11 
REMARK    2  A    between atoms: O_7  and  C_11 
ROOT
HETATM    1  O   LIG     1      -1.142   1.347  -0.098  1.00  0.00    -0.343 OA
HETATM    2  C   LIG     1       0.016   0.619  -0.039  1.00  0.00     0.075 A 
HETATM    3  C   LIG     1       0.058  -0.777   0.035  1.00  0.00    -0.025 A 
HETATM    4  C   LIG     1      -1.204  -1.588   0.043  1.00  0.00     0.044 C 
HETATM    5  C   LIG     1      -2.338   0.606  -0.387  1.00  0.00     0.152 C 
HETATM    6  C   LIG     1      -2.395  -0.709   0.390  1.00  0.00     0.039 C 
HETATM    7  C   LIG     1       1.199   1.360  -0.034  1.00  0.00     0.037 A 
HETATM    8  C   LIG     1       1.302  -1.422   0.076  1.00  0.00     0.010 A 
HETATM    9  C   LIG     1       2.432   0.712   0.018  1.00  0.00     0.003 A 
HETATM   10  C   LIG     1       2.484  -0.679   0.069  1.00  0.00     0.001 A 
ENDROOT
BRANCH   5  11
HETATM   11  C   LIG     1      -2.509   0.466  -1.909  1.00  0.00     0.196 C 
BRANCH  11  12
HETATM   12  O   LIG     1      -3.711  -0.217  -2.250  1.00  0.00    -0.398 OA
ATOM     13  HO  LIG     1      -3.817  -0.303  -3.190  1.00  0.00     0.209 HD
ENDBRANCH  11  12
ENDBRANCH   5  11
TORSDOF 2
