REMARK  0 active torsions:
REMARK  status: ('A' for Active; 'I' for Inactive)
ROOT
HETATM    1  N   LIG     1       0.904   0.161  -0.246  1.00  0.00    -0.190 NA
HETATM    2  C   LIG     1       3.493   0.045  -0.076  1.00  0.00     0.152 A 
HETATM    3  C   LIG     1       2.067   0.117  -0.183  1.00  0.00     0.121 C 
HETATM    4  N   LIG     1       4.150   1.235   0.008  1.00  0.00    -0.355 N 
ATOM      5  HN  LIG     1       3.657   2.125  -0.063  1.00  0.00     0.166 HD
HETATM    6  C   LIG     1       4.134  -1.182  -0.009  1.00  0.00     0.153 A 
HETATM    7  F   LIG     1       3.459  -2.335  -0.115  1.00  0.00    -0.203 F 
HETATM    8  C   LIG     1       5.489   1.178   0.190  1.00  0.00     0.089 A 
HETATM    9  C   LIG     1       5.509  -1.211   0.189  1.00  0.00     0.047 A 
HETATM   10  C   LIG     1       6.202  -0.008   0.300  1.00  0.00     0.020 A 
ENDROOT
TORSDOF 0
