REMARK  1 active torsions:
REMARK  status: ('A' for Active; 'I' for Inactive)
REMARK    1  A    between atoms: C_2  and  N_10 
ROOT
HETATM    1  C   LIG     1       0.236  -0.658   0.000  1.00  0.00     0.093 A 
HETATM    2  C   LIG     1       1.605  -1.077   0.001  1.00  0.00     0.062 A 
HETATM    3  C   LIG     1       0.137   0.732  -0.001  1.00  0.00     0.103 A 
HETATM    4  S   LIG     1       1.659   1.494  -0.002  1.00  0.00    -0.080 SA
HETATM    5  C   LIG     1       2.480  -0.014  -0.000  1.00  0.00     0.083 A 
HETATM    6  N   LIG     1      -0.879  -1.457   0.001  1.00  0.00    -0.361 N 
ATOM      7  HN  LIG     1      -0.839  -2.476   0.002  1.00  0.00     0.165 HD
HETATM    8  N   LIG     1      -1.020   1.436  -0.002  1.00  0.00    -0.357 N 
ATOM      9  HN  LIG     1      -1.069   2.455  -0.003  1.00  0.00     0.166 HD
HETATM   10  C   LIG     1      -2.035  -0.758  -0.000  1.00  0.00     0.105 A 
HETATM   11  C   LIG     1      -2.102   0.626  -0.001  1.00  0.00     0.106 A 
ENDROOT
BRANCH   2  12
HETATM   12  N   LIG     1       2.000  -2.367   0.002  1.00  0.00    -0.397 N 
ATOM     13  HN2 LIG     1       1.352  -3.155   0.003  1.00  0.00     0.156 HD
ATOM     14  HN1 LIG     1       2.975  -2.666   0.003  1.00  0.00     0.156 HD
ENDBRANCH   2  12
TORSDOF 1
