REMARK  2 active torsions:
REMARK  status: ('A' for Active; 'I' for Inactive)
REMARK    1  A    between atoms: N_1  and  C_7 
REMARK    2  A    between atoms: C_7  and  C_11 
ROOT
HETATM    1  N   LIG     1       1.153  -1.340  -0.425  1.00  0.00     0.102 N 
HETATM    2  C   LIG     1       1.061  -2.797  -0.645  1.00  0.00     0.231 C 
HETATM    3  C   LIG     1      -0.067  -1.060   0.358  1.00  0.00     0.231 C 
HETATM    4  C   LIG     1      -1.293  -2.367  -1.405  1.00  0.00     0.131 C 
HETATM    5  C   LIG     1       0.025  -3.028  -1.751  1.00  0.00     0.114 C 
HETATM    6  C   LIG     1      -1.247  -1.071  -0.623  1.00  0.00     0.114 C 
HETATM    7  C   LIG     1      -0.157  -2.211   1.366  1.00  0.00     0.038 C 
HETATM    8  C   LIG     1       0.587  -3.367   0.698  1.00  0.00     0.038 C 
HETATM    9  O   LIG     1      -2.359  -2.812  -1.836  1.00  0.00    -0.298 OA
ENDROOT
BRANCH   1  10
HETATM   10  C   LIG     1       2.401  -0.967   0.266  1.00  0.00     0.312 C 
BRANCH  10  11
HETATM   11  C   LIG     1       2.543   0.524   0.483  1.00  0.00    -0.030 A 
HETATM   12  C   LIG     1       2.672   1.044   1.780  1.00  0.00     0.009 A 
HETATM   13  C   LIG     1       2.804   2.419   1.983  1.00  0.00     0.001 A 
HETATM   14  C   LIG     1       2.811   3.287   0.893  1.00  0.00     0.000 A 
HETATM   15  C   LIG     1       2.685   2.783  -0.400  1.00  0.00     0.001 A 
HETATM   16  C   LIG     1       2.553   1.409  -0.605  1.00  0.00     0.009 A 
ENDBRANCH  10  11
ENDBRANCH   1  10
TORSDOF 2
