REMARK  1 active torsions:
REMARK  status: ('A' for Active; 'I' for Inactive)
REMARK    1  A    between atoms: C_1  and  C_2 
REMARK       I    between atoms: C_1  and  N_3 
ROOT
HETATM    1  C   LIG     1       0.339  -0.066  -0.947  1.00  0.00     0.255 C 
HETATM    2  N   LIG     1       0.211   0.988  -1.863  1.00  0.00    -0.345 N 
HETATM    3  N   LIG     1      -0.412   3.144  -3.792  1.00  0.00     0.087 N 
HETATM    4  O   LIG     1      -0.208  -1.151  -1.135  1.00  0.00    -0.267 OA
HETATM    5  C   LIG     1      -0.600   0.710  -3.053  1.00  0.00     0.156 C 
HETATM    6  C   LIG     1       0.200   2.396  -1.447  1.00  0.00     0.156 C 
HETATM    7  C   LIG     1      -0.365   1.722  -4.192  1.00  0.00     0.291 C 
HETATM    8  C   LIG     1       0.465   3.351  -2.625  1.00  0.00     0.291 C 
HETATM    9  C   LIG     1      -1.779   3.590  -3.529  1.00  0.00     0.310 C 
ENDROOT
BRANCH   1  10
HETATM   10  C   LIG     1       1.147   0.145   0.246  1.00  0.00     0.056 A 
HETATM   11  C   LIG     1       0.894  -0.468   1.458  1.00  0.00     0.158 A 
HETATM   12  O   LIG     1       1.799  -0.091   2.396  1.00  0.00    -0.334 OA
HETATM   13  C   LIG     1       2.679   0.737   1.780  1.00  0.00     0.142 A 
HETATM   14  C   LIG     1       2.346   0.888   0.455  1.00  0.00     0.043 A 
ENDBRANCH   1  10
TORSDOF 1
