REMARK  1 active torsions:
REMARK  status: ('A' for Active; 'I' for Inactive)
REMARK    1  A    between atoms: C_1  and  C_3 
REMARK       I    between atoms: C_3  and  N_7 
ROOT
HETATM    1  C   LIG     1       1.069  -1.570  -3.020  1.00  0.00     0.120 A 
HETATM    2  N   LIG     1       1.149  -0.210  -2.830  1.00  0.00    -0.291 N 
HETATM    3  N   LIG     1       0.777   0.511  -3.907  1.00  0.00    -0.303 N 
ATOM      4  HN  LIG     1       0.684   1.524  -3.981  1.00  0.00     0.186 HD
HETATM    5  C   LIG     1       0.777  -1.709  -4.367  1.00  0.00     0.063 A 
HETATM    6  C   LIG     1       0.558  -0.404  -4.854  1.00  0.00     0.024 A 
HETATM    7  C   LIG     1       1.547   0.485  -1.626  1.00  0.00     0.178 C 
HETATM    8  C   LIG     1       0.128  -0.001  -6.214  1.00  0.00     0.070 C 
ENDROOT
BRANCH   1   9
HETATM    9  C   LIG     1       1.344  -2.552  -1.994  1.00  0.00     0.272 C 
HETATM   10  N   LIG     1       0.674  -3.779  -2.039  1.00  0.00    -0.343 N 
HETATM   11  C   LIG     1       0.994  -4.758  -0.996  1.00  0.00     0.152 C 
HETATM   12  C   LIG     1      -0.674  -3.959  -2.596  1.00  0.00     0.152 C 
HETATM   13  C   LIG     1       0.682  -6.187  -1.451  1.00  0.00     0.187 C 
HETATM   14  O   LIG     1      -0.665  -6.307  -1.934  1.00  0.00    -0.388 OA
HETATM   15  C   LIG     1      -0.887  -5.411  -3.031  1.00  0.00     0.187 C 
HETATM   16  O   LIG     1       2.161  -2.320  -1.101  1.00  0.00    -0.266 OA
ENDBRANCH   1   9
TORSDOF 1
