REMARK  1 active torsions:
REMARK  status: ('A' for Active; 'I' for Inactive)
REMARK       I    between atoms: C_1  and  N_2 
REMARK    1  A    between atoms: C_1  and  C_4 
ROOT
HETATM    1  C   LIG     1       2.521   0.358  -0.368  1.00  0.00     0.082 C 
HETATM    2  O   LIG     1       4.337  -0.842  -2.276  1.00  0.00    -0.391 OA
HETATM    3  C   LIG     1       3.604   0.314  -2.677  1.00  0.00     0.168 C 
HETATM    4  C   LIG     1       3.560  -1.688  -1.433  1.00  0.00     0.168 C 
HETATM    5  C   LIG     1       3.238   1.163  -1.465  1.00  0.00     0.040 C 
HETATM    6  C   LIG     1       3.239  -0.976  -0.125  1.00  0.00     0.040 C 
ENDROOT
BRANCH   1   7
HETATM    7  C   LIG     1       1.043   0.123  -0.705  1.00  0.00     0.223 C 
HETATM    8  N   LIG     1       0.197  -0.296   0.321  1.00  0.00    -0.360 N 
HETATM    9  C   LIG     1      -1.207  -0.481  -0.011  1.00  0.00     0.152 C 
HETATM   10  C   LIG     1       0.485  -0.094   1.735  1.00  0.00     0.152 C 
HETATM   11  O   LIG     1       0.634   0.261  -1.861  1.00  0.00    -0.273 OA
ENDBRANCH   1   7
TORSDOF 1
