REMARK  1 active torsions:
REMARK  status: ('A' for Active; 'I' for Inactive)
REMARK       I    between atoms: C_1  and  N_2 
REMARK    1  A    between atoms: C_1  and  C_4 
ROOT
HETATM    1  C   LIG     1       1.826  -0.742  -1.681  1.00  0.00     0.224 C 
HETATM    2  N   LIG     1       0.802  -0.137  -2.416  1.00  0.00    -0.348 N 
HETATM    3  O   LIG     1       1.581  -1.695  -0.932  1.00  0.00    -0.273 OA
HETATM    4  O   LIG     1      -1.389   1.017  -3.845  1.00  0.00    -0.388 OA
HETATM    5  C   LIG     1      -0.578  -0.560  -2.162  1.00  0.00     0.152 C 
HETATM    6  C   LIG     1       0.925   1.178  -3.052  1.00  0.00     0.152 C 
HETATM    7  C   LIG     1      -1.467  -0.341  -3.387  1.00  0.00     0.187 C 
HETATM    8  C   LIG     1      -0.044   1.335  -4.228  1.00  0.00     0.187 C 
ENDROOT
BRANCH   1   9
HETATM    9  C   LIG     1       3.265  -0.197  -1.882  1.00  0.00     0.078 C 
HETATM   10  C   LIG     1       4.407  -0.874  -1.065  1.00  0.00     0.014 C 
HETATM   11  C   LIG     1       5.075   0.510  -0.979  1.00  0.00     0.002 C 
HETATM   12  C   LIG     1       3.670   1.115  -1.152  1.00  0.00     0.014 C 
ENDBRANCH   1   9
TORSDOF 1
