REMARK  3 active torsions:
REMARK  status: ('A' for Active; 'I' for Inactive)
REMARK    1  A    between atoms: C_1  and  C_2 
REMARK       I    between atoms: C_2  and  N_7 
REMARK    2  A    between atoms: C_3  and  O_4 
REMARK    3  A    between atoms: O_4  and  C_9 
ROOT
HETATM    1  C   LIG     1      -0.398   2.188  -2.246  1.00  0.00     0.065 A 
HETATM    2  C   LIG     1      -0.298   1.508  -1.011  1.00  0.00     0.085 A 
HETATM    3  C   LIG     1       0.374   3.343  -2.478  1.00  0.00     0.020 A 
HETATM    4  C   LIG     1       0.603   1.992  -0.052  1.00  0.00     0.038 A 
HETATM    5  C   LIG     1       1.270   3.805  -1.518  1.00  0.00     0.001 A 
HETATM    6  C   LIG     1       1.384   3.128  -0.309  1.00  0.00     0.003 A 
ENDROOT
BRANCH   2   7
HETATM    7  O   LIG     1      -1.053   0.372  -0.830  1.00  0.00    -0.345 OA
BRANCH   7   8
HETATM    8  C   LIG     1      -1.532   0.041   0.490  1.00  0.00     0.133 C 
HETATM    9  C   LIG     1      -2.259  -1.315   0.420  1.00  0.00     0.058 C 
HETATM   10  C   LIG     1      -3.519  -1.204  -0.430  1.00  0.00     0.170 C 
HETATM   11  O   LIG     1      -4.395  -0.230   0.136  1.00  0.00    -0.391 OA
HETATM   12  C   LIG     1      -3.804   1.070   0.155  1.00  0.00     0.170 C 
HETATM   13  C   LIG     1      -2.537   1.077   1.005  1.00  0.00     0.058 C 
ENDBRANCH   7   8
ENDBRANCH   2   7
BRANCH   1  14
HETATM   14  C   LIG     1      -1.277   1.754  -3.372  1.00  0.00     0.254 C 
HETATM   15  O   LIG     1      -1.675   2.576  -4.200  1.00  0.00    -0.268 OA
HETATM   16  N   LIG     1      -1.558   0.414  -3.456  1.00  0.00    -0.361 N 
HETATM   17  C   LIG     1      -2.361  -0.137  -4.514  1.00  0.00     0.149 C 
ATOM     18  HN  LIG     1      -1.185  -0.213  -2.744  1.00  0.00     0.162 HD
ENDBRANCH   1  14
TORSDOF 3
