REMARK  1 active torsions:
REMARK  status: ('A' for Active; 'I' for Inactive)
REMARK    1  A    between atoms: C_1  and  C_2 
REMARK       I    between atoms: C_1  and  N_4 
ROOT
HETATM    1  C   LIG     1       0.241   0.155  -0.311  1.00  0.00     0.270 C 
HETATM    2  N   LIG     1      -0.392  -0.948  -0.893  1.00  0.00    -0.343 N 
HETATM    3  O   LIG     1       1.400   0.440  -0.623  1.00  0.00    -0.266 OA
HETATM    4  O   LIG     1      -1.281  -1.294  -3.582  1.00  0.00    -0.388 OA
HETATM    5  C   LIG     1       0.389  -1.735  -1.852  1.00  0.00     0.152 C 
HETATM    6  C   LIG     1      -1.825  -0.972  -1.207  1.00  0.00     0.152 C 
HETATM    7  C   LIG     1      -2.048  -0.505  -2.654  1.00  0.00     0.187 C 
HETATM    8  C   LIG     1       0.125  -1.230  -3.276  1.00  0.00     0.187 C 
ENDROOT
BRANCH   1   9
HETATM    9  C   LIG     1      -0.485   0.951   0.668  1.00  0.00     0.102 A 
HETATM   10  N   LIG     1      -0.263   2.301   0.882  1.00  0.00    -0.357 N 
HETATM   11  C   LIG     1      -1.049   2.758   1.908  1.00  0.00     0.091 A 
HETATM   12  C   LIG     1       0.652   3.133   0.126  1.00  0.00     0.156 C 
HETATM   13  C   LIG     1      -1.784   1.699   2.384  1.00  0.00     0.020 A 
HETATM   14  C   LIG     1      -1.422   0.565   1.619  1.00  0.00     0.037 A 
ENDBRANCH   1   9
TORSDOF 1
