REMARK  3 active torsions:
REMARK  status: ('A' for Active; 'I' for Inactive)
REMARK       I    between atoms: N_1  and  C_2 
REMARK    1  A    between atoms: C_2  and  C_4 
REMARK    2  A    between atoms: C_4  and  C_5 
REMARK    3  A    between atoms: C_5  and  C_8 
ROOT
HETATM    1  N   LIG     1      -3.072  -1.908  -1.236  1.00  0.00    -0.352 N 
HETATM    2  C   LIG     1      -1.881  -2.098  -1.899  1.00  0.00     0.219 C 
HETATM    3  O   LIG     1      -1.743  -1.812  -3.086  1.00  0.00    -0.273 OA
HETATM    4  C   LIG     1      -4.227  -1.338  -1.907  1.00  0.00     0.126 C 
HETATM    5  C   LIG     1      -3.367  -2.216   0.157  1.00  0.00     0.126 C 
HETATM    6  C   LIG     1      -4.880  -2.089   0.259  1.00  0.00     0.021 C 
HETATM    7  C   LIG     1      -5.207  -1.028  -0.786  1.00  0.00     0.021 C 
ENDROOT
BRANCH   2   8
HETATM    8  C   LIG     1      -0.754  -2.681  -1.061  1.00  0.00     0.103 C 
BRANCH   8   9
HETATM    9  C   LIG     1       0.539  -2.863  -1.863  1.00  0.00     0.014 C 
BRANCH   9  10
HETATM   10  C   LIG     1       1.683  -3.449  -1.029  1.00  0.00    -0.014 C 
HETATM   11  C   LIG     1       2.111  -2.575   0.164  1.00  0.00     0.004 C 
HETATM   12  C   LIG     1       3.612  -2.351   0.015  1.00  0.00     0.000 C 
HETATM   13  C   LIG     1       4.084  -3.503  -0.853  1.00  0.00     0.000 C 
HETATM   14  C   LIG     1       2.957  -3.647  -1.862  1.00  0.00     0.004 C 
ENDBRANCH   9  10
ENDBRANCH   8   9
ENDBRANCH   2   8
TORSDOF 3
