REMARK  2 active torsions:
REMARK  status: ('A' for Active; 'I' for Inactive)
REMARK    1  A    between atoms: C_1  and  S_2 
REMARK    2  A    between atoms: S_2  and  N_7 
ROOT
HETATM    1  S   LIG     1      -0.716  -2.499   0.037  1.00  0.00     0.269 S 
HETATM    2  O   LIG     1      -1.757  -2.046  -0.861  1.00  0.00    -0.200 OA
HETATM    3  O   LIG     1       0.337  -3.379  -0.423  1.00  0.00    -0.200 OA
ENDROOT
BRANCH   1   4
HETATM    4  C   LIG     1       0.101  -1.024   0.566  1.00  0.00     0.144 A 
HETATM    5  S   LIG     1      -0.885   0.162   1.315  1.00  0.00    -0.062 SA
HETATM    6  C   LIG     1       0.484   1.178   1.495  1.00  0.00     0.048 A 
HETATM    7  N   LIG     1       1.621   0.679   1.060  1.00  0.00    -0.356 N 
HETATM    8  C   LIG     1       0.336   2.530   2.100  1.00  0.00     0.076 C 
HETATM    9  C   LIG     1       1.411  -0.582   0.515  1.00  0.00     0.036 A 
ATOM     10  HN  LIG     1       2.525   1.149   1.115  1.00  0.00     0.166 HD
HETATM   11  C   LIG     1       2.577  -1.306  -0.054  1.00  0.00     0.070 C 
ENDBRANCH   1   4
BRANCH   1  12
HETATM   12  N   LIG     1      -1.437  -3.199   1.406  1.00  0.00    -0.306 N 
HETATM   13  C   LIG     1      -0.539  -3.780   2.433  1.00  0.00     0.135 C 
HETATM   14  C   LIG     1      -0.207  -5.241   2.135  1.00  0.00     0.021 C 
HETATM   15  C   LIG     1      -1.461  -6.073   1.885  1.00  0.00     0.003 C 
HETATM   16  C   LIG     1      -2.340  -5.427   0.818  1.00  0.00     0.021 C 
HETATM   17  C   LIG     1      -2.670  -3.988   1.190  1.00  0.00     0.135 C 
ENDBRANCH   1  12
TORSDOF 2
