REMARK  1 active torsions:
REMARK  status: ('A' for Active; 'I' for Inactive)
REMARK       I    between atoms: C_1  and  N_2 
REMARK    1  A    between atoms: C_1  and  C_3 
ROOT
HETATM    1  C   LIG     1      -0.001   0.604  -0.208  1.00  0.00     0.248 C 
HETATM    2  N   LIG     1       0.863   0.014  -1.109  1.00  0.00    -0.350 N 
HETATM    3  O   LIG     1      -0.593   1.652  -0.478  1.00  0.00    -0.270 OA
HETATM    4  C   LIG     1       1.622  -1.213  -0.918  1.00  0.00     0.126 C 
HETATM    5  C   LIG     1       1.115   0.593  -2.417  1.00  0.00     0.126 C 
HETATM    6  C   LIG     1       1.851  -0.499  -3.179  1.00  0.00     0.021 C 
HETATM    7  C   LIG     1       2.608  -1.230  -2.078  1.00  0.00     0.021 C 
ENDROOT
BRANCH   1   8
HETATM    8  C   LIG     1      -0.162  -0.104   1.166  1.00  0.00     0.213 C 
HETATM    9  O   LIG     1      -0.589  -1.465   1.092  1.00  0.00    -0.376 OA
HETATM   10  C   LIG     1      -1.952  -1.604   0.690  1.00  0.00     0.168 C 
HETATM   11  C   LIG     1      -2.878  -0.956   1.707  1.00  0.00     0.026 C 
HETATM   12  C   LIG     1      -2.527   0.516   1.877  1.00  0.00     0.005 C 
HETATM   13  C   LIG     1      -1.035   0.685   2.152  1.00  0.00     0.042 C 
ENDBRANCH   1   8
TORSDOF 1
