REMARK  3 active torsions:
REMARK  status: ('A' for Active; 'I' for Inactive)
REMARK    1  A    between atoms: C_1  and  C_2 
REMARK    2  A    between atoms: C_1  and  N_5 
REMARK    3  A    between atoms: C_2  and  O_11 
ROOT
HETATM    1 CL   LIG     2       3.082  -1.262  -2.884  1.00  0.00     0.000 Cl
ENDROOT
TORSDOF 3
