REMARK  1 active torsions:
REMARK  status: ('A' for Active; 'I' for Inactive)
REMARK       I    between atoms: C_1  and  N_2 
REMARK    1  A    between atoms: C_1  and  C_4 
ROOT
HETATM    1  C   LIG     1       1.098  -0.346   0.548  1.00  0.00     0.224 C 
HETATM    2  N   LIG     1       0.419  -0.067   1.735  1.00  0.00    -0.352 N 
HETATM    3  O   LIG     1       0.765  -1.285  -0.175  1.00  0.00    -0.273 OA
HETATM    4  C   LIG     1      -0.760  -0.873   2.050  1.00  0.00     0.125 C 
HETATM    5  C   LIG     1       0.435   1.230   2.413  1.00  0.00     0.125 C 
HETATM    6  C   LIG     1      -0.786   2.044   1.983  1.00  0.00     0.020 C 
HETATM    7  C   LIG     1      -2.028  -0.137   1.616  1.00  0.00     0.020 C 
HETATM    8  C   LIG     1      -2.083   1.266   2.228  1.00  0.00     0.003 C 
ENDROOT
BRANCH   1   9
HETATM    9  C   LIG     1       2.315   0.519   0.192  1.00  0.00     0.082 C 
HETATM   10  C   LIG     1       2.775   0.293  -1.258  1.00  0.00     0.040 C 
HETATM   11  C   LIG     1       3.566  -0.999  -1.429  1.00  0.00     0.168 C 
HETATM   12  O   LIG     1       4.645  -1.054  -0.497  1.00  0.00    -0.391 OA
HETATM   13  C   LIG     1       4.176  -1.061   0.849  1.00  0.00     0.168 C 
HETATM   14  C   LIG     1       3.469   0.251   1.166  1.00  0.00     0.040 C 
ENDBRANCH   1   9
TORSDOF 1
