REMARK  1 active torsions:
REMARK  status: ('A' for Active; 'I' for Inactive)
REMARK    1  A    between atoms: C_1  and  C_2 
REMARK       I    between atoms: C_2  and  N_3 
ROOT
HETATM    1  C   LIG     1      -0.155  -2.759   0.196  1.00  0.00     0.279 C 
HETATM    2  N   LIG     1       0.600  -3.880  -0.128  1.00  0.00    -0.346 N 
HETATM    3  O   LIG     1       0.265  -1.638  -0.103  1.00  0.00    -0.265 OA
HETATM    4  C   LIG     1       0.320  -5.281   0.160  1.00  0.00     0.126 C 
HETATM    5  C   LIG     1       1.868  -3.736  -0.825  1.00  0.00     0.126 C 
HETATM    6  C   LIG     1       2.221  -5.145  -1.276  1.00  0.00     0.021 C 
HETATM    7  C   LIG     1       1.610  -6.013  -0.187  1.00  0.00     0.021 C 
ENDROOT
BRANCH   1   8
HETATM    8  C   LIG     1      -1.419  -2.907   0.889  1.00  0.00     0.167 A 
HETATM    9  O   LIG     1      -1.951  -4.132   1.161  1.00  0.00    -0.233 OA
HETATM   10  N   LIG     1      -3.145  -3.992   1.847  1.00  0.00    -0.272 N 
HETATM   11  C   LIG     1      -3.329  -2.676   1.963  1.00  0.00     0.117 A 
ATOM     12  HN  LIG     1      -3.753  -4.735   2.190  1.00  0.00     0.194 HD
HETATM   13  C   LIG     1      -2.285  -1.947   1.373  1.00  0.00     0.064 A 
ENDBRANCH   1   8
TORSDOF 1
