REMARK  3 active torsions:
REMARK  status: ('A' for Active; 'I' for Inactive)
REMARK       I    between atoms: N_1  and  C_2 
REMARK    1  A    between atoms: C_2  and  C_3 
REMARK    2  A    between atoms: C_3  and  S_5 
REMARK    3  A    between atoms: S_5  and  C_6 
ROOT
HETATM    1  N   LIG     1       1.127   3.407   1.480  1.00  0.00    -0.351 N 
HETATM    2  C   LIG     1       1.174   2.525   0.392  1.00  0.00     0.229 C 
HETATM    3  O   LIG     1       1.042   1.284   0.529  1.00  0.00    -0.273 OA
HETATM    4  C   LIG     1       1.120   4.862   1.272  1.00  0.00     0.125 C 
HETATM    5  C   LIG     1       0.571   2.940   2.754  1.00  0.00     0.125 C 
HETATM    6  C   LIG     1       1.009   3.780   3.959  1.00  0.00     0.020 C 
HETATM    7  C   LIG     1       1.584   5.667   2.464  1.00  0.00     0.020 C 
HETATM    8  C   LIG     1       0.822   5.274   3.710  1.00  0.00     0.003 C 
ENDROOT
BRANCH   2   9
HETATM    9  C   LIG     1       1.254   3.142  -1.024  1.00  0.00     0.182 C 
BRANCH   9  10
HETATM   10  S   LIG     1       2.858   3.942  -1.403  1.00  0.00    -0.121 SA
BRANCH  10  11
HETATM   11  C   LIG     1       2.471   4.517  -3.043  1.00  0.00     0.001 A 
HETATM   12  C   LIG     1       1.841   5.738  -3.318  1.00  0.00     0.018 A 
HETATM   13  C   LIG     1       1.429   6.025  -4.626  1.00  0.00     0.001 A 
HETATM   14  C   LIG     1       1.662   5.105  -5.650  1.00  0.00     0.000 A 
HETATM   15  C   LIG     1       2.342   3.920  -5.381  1.00  0.00     0.001 A 
HETATM   16  C   LIG     1       2.753   3.634  -4.084  1.00  0.00     0.018 A 
ENDBRANCH  10  11
ENDBRANCH   9  10
ENDBRANCH   2   9
TORSDOF 3
