REMARK  1 active torsions:
REMARK  status: ('A' for Active; 'I' for Inactive)
REMARK    1  A    between atoms: C_1  and  C_4 
REMARK       I    between atoms: C_4  and  N_7 
ROOT
HETATM    1  C   LIG     1       1.778  -0.545   0.205  1.00  0.00     0.150 A 
HETATM    2  O   LIG     1       1.096   0.638   0.309  1.00  0.00    -0.304 OA
HETATM    3  C   LIG     1       0.876  -1.578  -0.044  1.00  0.00    -0.009 A 
HETATM    4  C   LIG     1      -0.419  -0.973  -0.103  1.00  0.00     0.007 A 
HETATM    5  C   LIG     1      -0.216   0.385   0.093  1.00  0.00     0.087 A 
HETATM    6  C   LIG     1       1.188  -3.017  -0.235  1.00  0.00     0.052 C 
HETATM    7  C   LIG     1      -1.736  -1.425  -0.311  1.00  0.00     0.015 A 
HETATM    8  C   LIG     1      -1.225   1.344   0.065  1.00  0.00     0.038 A 
HETATM    9  C   LIG     1      -2.777  -0.485  -0.339  1.00  0.00     0.001 A 
HETATM   10  C   LIG     1      -2.522   0.878  -0.164  1.00  0.00     0.003 A 
ENDROOT
BRANCH   1  11
HETATM   11  C   LIG     1       3.219  -0.567   0.423  1.00  0.00     0.277 C 
HETATM   12  N   LIG     1       3.984   0.561   0.074  1.00  0.00    -0.355 N 
HETATM   13  C   LIG     1       3.441   1.768  -0.532  1.00  0.00     0.152 C 
HETATM   14  C   LIG     1       5.343   0.651   0.577  1.00  0.00     0.152 C 
HETATM   15  O   LIG     1       3.768  -1.564   0.904  1.00  0.00    -0.265 OA
ENDBRANCH   1  11
TORSDOF 1
