REMARK  1 active torsions:
REMARK  status: ('A' for Active; 'I' for Inactive)
REMARK    1  A    between atoms: C_1  and  C_7 
REMARK       I    between atoms: C_7  and  N_9 
ROOT
HETATM    1  C   LIG     1      -0.553  -0.886  -0.052  1.00  0.00     0.117 A 
HETATM    2  N   LIG     1       0.774  -0.643  -0.111  1.00  0.00    -0.294 N 
ATOM      3  HN  LIG     1       1.533  -1.322  -0.168  1.00  0.00     0.187 HD
HETATM    4  N   LIG     1       0.866   0.700  -0.077  1.00  0.00    -0.301 N 
HETATM    5  C   LIG     1      -1.286   0.326  -0.001  1.00  0.00     0.063 A 
HETATM    6  C   LIG     1      -0.347   1.334  -0.017  1.00  0.00     0.026 A 
HETATM    7  C   LIG     1       2.171   1.321  -0.095  1.00  0.00     0.177 C 
HETATM    8  C   LIG     1      -0.507   2.807   0.028  1.00  0.00     0.070 C 
ENDROOT
BRANCH   1   9
HETATM    9  C   LIG     1      -1.099  -2.253  -0.039  1.00  0.00     0.269 C 
HETATM   10  O   LIG     1      -2.301  -2.493   0.005  1.00  0.00    -0.266 OA
HETATM   11  N   LIG     1      -0.122  -3.224  -0.079  1.00  0.00    -0.360 N 
HETATM   12  C   LIG     1      -0.418  -4.627  -0.121  1.00  0.00     0.149 C 
ATOM     13  HN  LIG     1       0.855  -2.932  -0.079  1.00  0.00     0.162 HD
ENDBRANCH   1   9
TORSDOF 1
