REMARK  1 active torsions:
REMARK  status: ('A' for Active; 'I' for Inactive)
REMARK    1  A    between atoms: C_1  and  C_6 
REMARK       I    between atoms: C_6  and  N_9 
ROOT
HETATM    1  C   LIG     1      -0.373  -1.072   0.088  1.00  0.00     0.117 A 
HETATM    2  N   LIG     1       0.912  -0.679   0.235  1.00  0.00    -0.294 N 
ATOM      3  HN  LIG     1       1.724  -1.256   0.452  1.00  0.00     0.187 HD
HETATM    4  C   LIG     1      -1.210   0.033  -0.209  1.00  0.00     0.055 A 
HETATM    5  N   LIG     1       0.871   0.651   0.028  1.00  0.00    -0.307 N 
HETATM    6  C   LIG     1      -0.378   1.126  -0.239  1.00  0.00     0.112 A 
HETATM    7  C   LIG     1       2.089   1.420   0.110  1.00  0.00     0.177 C 
ENDROOT
BRANCH   1   8
HETATM    8  C   LIG     1      -0.780  -2.476   0.229  1.00  0.00     0.267 C 
HETATM    9  O   LIG     1      -1.934  -2.873   0.106  1.00  0.00    -0.266 OA
HETATM   10  N   LIG     1       0.248  -3.331   0.514  1.00  0.00    -0.365 N 
ATOM     11  HN2 LIG     1       1.208  -3.001   0.616  1.00  0.00     0.159 HD
ATOM     12  HN1 LIG     1      -0.035  -4.306   0.612  1.00  0.00     0.159 HD
ENDBRANCH   1   8
TORSDOF 1
