REMARK  2 active torsions:
REMARK  status: ('A' for Active; 'I' for Inactive)
REMARK    1  A    between atoms: S_1  and  C_2 
REMARK    2  A    between atoms: S_1  and  N_3 
ROOT
HETATM    1  S   LIG     1       1.088  -0.106  -0.053  1.00  0.00     0.266 S 
HETATM    2  O   LIG     1       0.559   0.319  -1.331  1.00  0.00    -0.204 OA
HETATM    3  O   LIG     1       2.514  -0.165   0.188  1.00  0.00    -0.204 OA
ENDROOT
BRANCH   1   4
HETATM    4  C   LIG     1       0.535  -1.802   0.136  1.00  0.00     0.184 A 
HETATM    5  O   LIG     1      -0.333  -2.175   1.145  1.00  0.00    -0.310 OA
HETATM    6  C   LIG     1      -0.560  -3.506   1.032  1.00  0.00     0.143 A 
HETATM    7  C   LIG     1       0.133  -4.026  -0.033  1.00  0.00     0.028 A 
HETATM    8  C   LIG     1       0.835  -2.940  -0.605  1.00  0.00     0.053 A 
ENDBRANCH   1   4
BRANCH   1   9
HETATM    9  N   LIG     1       0.372   0.828   1.171  1.00  0.00    -0.201 NA
HETATM   10  C   LIG     1      -1.105   1.035   1.072  1.00  0.00     0.134 C 
HETATM   11  C   LIG     1      -1.456   2.227   0.169  1.00  0.00     0.183 C 
HETATM   12  O   LIG     1      -0.773   3.420   0.581  1.00  0.00    -0.389 OA
HETATM   13  C   LIG     1       0.648   3.225   0.543  1.00  0.00     0.183 C 
HETATM   14  C   LIG     1       1.064   2.107   1.501  1.00  0.00     0.134 C 
ENDBRANCH   1   9
TORSDOF 2
