REMARK  1 active torsions:
REMARK  status: ('A' for Active; 'I' for Inactive)
REMARK    1  A    between atoms: C_4  and  O_6 
ROOT
HETATM    1  N   LIG     1       0.900   0.034   0.348  1.00  0.00    -0.326 N 
ATOM      2  HN  LIG     1       1.848  -0.139   0.683  1.00  0.00     0.169 HD
HETATM    3  C   LIG     1      -0.004  -0.955   0.256  1.00  0.00     0.118 A 
HETATM    4  C   LIG     1       0.497   1.269  -0.023  1.00  0.00     0.142 A 
HETATM    5  N   LIG     1       0.427  -2.230   0.620  1.00  0.00    -0.083 NA
HETATM    6  C   LIG     1      -1.692   0.524  -0.578  1.00  0.00     0.008 A 
HETATM    7  C   LIG     1      -1.299  -0.758  -0.206  1.00  0.00     0.045 A 
HETATM    8  C   LIG     1      -0.776   1.563  -0.483  1.00  0.00     0.056 A 
ENDROOT
BRANCH   4   9
HETATM    9  O   LIG     1       1.375   2.334   0.052  1.00  0.00    -0.341 OA
HETATM   10  C   LIG     1       2.673   1.954   0.498  1.00  0.00     0.211 C 
ENDBRANCH   4   9
TORSDOF 1
