REMARK  2 active torsions:
REMARK  status: ('A' for Active; 'I' for Inactive)
REMARK    1  A    between atoms: S_1  and  C_2 
REMARK    2  A    between atoms: S_1  and  N_3 
ROOT
HETATM    1  S   LIG     1       0.386   0.089   0.681  1.00  0.00     0.260 S 
HETATM    2  O   LIG     1      -0.088  -0.817  -0.344  1.00  0.00    -0.200 OA
HETATM    3  O   LIG     1       1.640   0.797   0.559  1.00  0.00    -0.200 OA
ENDROOT
BRANCH   1   4
HETATM    4  C   LIG     1       0.605  -0.928   2.075  1.00  0.00     0.086 A 
HETATM    5  C   LIG     1      -0.101  -2.150   2.296  1.00  0.00     0.033 A 
HETATM    6  C   LIG     1       0.251  -2.737   3.492  1.00  0.00     0.051 A 
HETATM    7  S   LIG     1       1.430  -1.826   4.336  1.00  0.00    -0.112 SA
HETATM    8  C   LIG     1       1.481  -0.641   3.102  1.00  0.00     0.074 A 
ENDBRANCH   1   4
BRANCH   1   9
HETATM    9  N   LIG     1      -0.843   1.210   1.028  1.00  0.00    -0.315 N 
HETATM   10  C   LIG     1      -2.208   0.670   1.137  1.00  0.00     0.162 C 
HETATM   11  C   LIG     1      -0.530   2.233   2.039  1.00  0.00     0.162 C 
ENDBRANCH   1   9
TORSDOF 2
