REMARK  2 active torsions:
REMARK  status: ('A' for Active; 'I' for Inactive)
REMARK    1  A    between atoms: C_1  and  S_2 
REMARK    2  A    between atoms: S_2  and  N_8 
ROOT
HETATM    1  C   LIG     1      -0.489  -1.005  -0.070  1.00  0.00     0.161 A 
HETATM    2  N   LIG     1       0.841  -0.686  -0.299  1.00  0.00    -0.335 N 
ATOM      3  HN  LIG     1       1.596  -1.328  -0.540  1.00  0.00     0.168 HD
HETATM    4  C   LIG     1      -1.208   0.132   0.233  1.00  0.00     0.135 A 
HETATM    5  C   LIG     1       0.926   0.621  -0.140  1.00  0.00     0.079 A 
HETATM    6  N   LIG     1      -0.302   1.152   0.183  1.00  0.00    -0.348 N 
HETATM    7  C   LIG     1      -0.594   2.545   0.426  1.00  0.00     0.156 C 
HETATM    8  C   LIG     1       2.160   1.435  -0.284  1.00  0.00     0.089 C 
ENDROOT
BRANCH   1   9
HETATM    9  S   LIG     1      -1.136  -2.627  -0.164  1.00  0.00     0.260 S 
HETATM   10  O   LIG     1      -1.575  -2.902   1.190  1.00  0.00    -0.204 OA
HETATM   11  O   LIG     1      -2.078  -2.559  -1.263  1.00  0.00    -0.204 OA
BRANCH   9  12
HETATM   12  N   LIG     1       0.103  -3.728  -0.572  1.00  0.00    -0.213 NA
HETATM   13  C   LIG     1       0.662  -3.571  -1.927  1.00  0.00     0.129 C 
HETATM   14  C   LIG     1       1.143  -3.911   0.457  1.00  0.00     0.129 C 
ENDBRANCH   9  12
ENDBRANCH   1   9
TORSDOF 2
