REMARK  2 active torsions:
REMARK  status: ('A' for Active; 'I' for Inactive)
REMARK    1  A    between atoms: S_1  and  C_2 
REMARK    2  A    between atoms: S_1  and  N_3 
ROOT
HETATM    1  S   LIG     1       1.313   0.074   0.090  1.00  0.00     0.250 S 
HETATM    2  O   LIG     1       1.321  -0.283  -1.308  1.00  0.00    -0.205 OA
HETATM    3  O   LIG     1       2.545   0.348   0.795  1.00  0.00    -0.205 OA
ENDROOT
BRANCH   1   4
HETATM    4  C   LIG     1       0.608  -1.338   0.916  1.00  0.00     0.115 A 
HETATM    5  S   LIG     1       0.336  -1.191   2.599  1.00  0.00    -0.089 SA
HETATM    6  C   LIG     1      -0.285  -2.785   2.702  1.00  0.00     0.051 A 
HETATM    7  C   LIG     1      -0.290  -3.417   1.478  1.00  0.00     0.009 A 
HETATM    8  C   LIG     1       0.236  -2.584   0.450  1.00  0.00     0.033 A 
ENDBRANCH   1   4
BRANCH   1   9
HETATM    9  N   LIG     1       0.266   1.402   0.293  1.00  0.00    -0.202 NA
HETATM   10  C   LIG     1      -1.047   1.344  -0.422  1.00  0.00     0.134 C 
HETATM   11  C   LIG     1      -0.925   1.807  -1.881  1.00  0.00     0.183 C 
HETATM   12  O   LIG     1      -0.346   3.117  -1.963  1.00  0.00    -0.389 OA
HETATM   13  C   LIG     1       0.964   3.127  -1.377  1.00  0.00     0.183 C 
HETATM   14  C   LIG     1       0.903   2.742   0.103  1.00  0.00     0.134 C 
ENDBRANCH   1   9
TORSDOF 2
