REMARK  2 active torsions:
REMARK  status: ('A' for Active; 'I' for Inactive)
REMARK    1  A    between atoms: S_1  and  C_2 
REMARK    2  A    between atoms: S_1  and  N_5 
ROOT
HETATM    1  S   LIG     1       1.187   0.109  -0.336  1.00  0.00     0.277 S 
HETATM    2  O   LIG     1       1.262  -0.336  -1.713  1.00  0.00    -0.199 OA
HETATM    3  O   LIG     1       0.753   1.452  -0.007  1.00  0.00    -0.199 OA
ENDROOT
BRANCH   1   4
HETATM    4  C   LIG     1       2.844   0.065   0.219  1.00  0.00     0.165 A 
HETATM    5  N   LIG     1       3.306  -0.771   1.227  1.00  0.00    -0.340 N 
HETATM    6  C   LIG     1       4.584  -0.488   1.345  1.00  0.00     0.183 A 
ATOM      7  HN  LIG     1       2.770  -1.456   1.760  1.00  0.00     0.167 HD
HETATM    8  N   LIG     1       4.968   0.481   0.463  1.00  0.00    -0.354 N 
HETATM    9  C   LIG     1       3.875   0.846  -0.267  1.00  0.00     0.135 A 
HETATM   10  C   LIG     1       6.298   1.020   0.340  1.00  0.00     0.156 C 
ENDBRANCH   1   4
BRANCH   1  11
HETATM   11  N   LIG     1       0.246  -0.996   0.547  1.00  0.00    -0.306 N 
HETATM   12  C   LIG     1       0.598  -2.432   0.441  1.00  0.00     0.135 C 
HETATM   13  C   LIG     1      -0.106  -3.106  -0.733  1.00  0.00     0.021 C 
HETATM   14  C   LIG     1      -1.610  -2.853  -0.718  1.00  0.00     0.003 C 
HETATM   15  C   LIG     1      -1.907  -1.360  -0.620  1.00  0.00     0.021 C 
HETATM   16  C   LIG     1      -1.210  -0.746   0.586  1.00  0.00     0.135 C 
ENDBRANCH   1  11
TORSDOF 2
