REMARK  1 active torsions:
REMARK  status: ('A' for Active; 'I' for Inactive)
REMARK    1  A    between atoms: C_1  and  C_2 
REMARK       I    between atoms: C_1  and  N_5 
ROOT
HETATM    1  C   LIG     1       0.019   1.558  -0.544  1.00  0.00     0.034 A 
HETATM    2  C   LIG     1       0.441   2.833  -0.162  1.00  0.00     0.049 A 
HETATM    3  C   LIG     1      -0.208   3.971  -0.610  1.00  0.00     0.060 A 
HETATM    4  N   LIG     1       0.212   5.171  -0.170  1.00  0.00    -0.363 N 
ATOM      5  HN  LIG     1       0.968   5.260   0.508  1.00  0.00     0.165 HD
HETATM    6  N   LIG     1      -1.900   4.940  -2.025  1.00  0.00    -0.363 N 
ATOM      7  HN  LIG     1      -2.670   4.865  -2.690  1.00  0.00     0.165 HD
HETATM    8  C   LIG     1      -1.279   3.850  -1.532  1.00  0.00     0.059 A 
HETATM    9  C   LIG     1      -1.031   1.437  -1.458  1.00  0.00     0.019 A 
HETATM   10  C   LIG     1      -1.670   2.582  -1.941  1.00  0.00     0.033 A 
HETATM   11  C   LIG     1      -0.422   6.250  -0.675  1.00  0.00     0.105 A 
HETATM   12  C   LIG     1      -1.447   6.137  -1.591  1.00  0.00     0.105 A 
ENDROOT
BRANCH   1  13
HETATM   13  C   LIG     1       0.745   0.332  -0.120  1.00  0.00     0.253 C 
HETATM   14  N   LIG     1       1.212   0.190   1.192  1.00  0.00    -0.357 N 
HETATM   15  C   LIG     1       1.975  -1.009   1.510  1.00  0.00     0.152 C 
HETATM   16  C   LIG     1       0.735   0.932   2.353  1.00  0.00     0.152 C 
HETATM   17  O   LIG     1       0.917  -0.523  -0.983  1.00  0.00    -0.267 OA
ENDBRANCH   1  13
TORSDOF 1
