REMARK  1 active torsions:
REMARK  status: ('A' for Active; 'I' for Inactive)
REMARK    1  A    between atoms: C_1  and  C_5 
REMARK       I    between atoms: C_5  and  N_10 
ROOT
HETATM    1  C   LIG     1       1.521   0.794  -0.137  1.00  0.00     0.108 A 
HETATM    2  C   LIG     1       0.192   0.422  -0.150  1.00  0.00     0.125 A 
HETATM    3  S   LIG     1       2.528  -0.605  -0.031  1.00  0.00    -0.091 SA
HETATM    4  C   LIG     1       0.007  -0.981  -0.036  1.00  0.00     0.110 A 
HETATM    5  C   LIG     1       1.188  -1.672   0.013  1.00  0.00     0.090 A 
HETATM    6  O   LIG     1      -0.833   1.311  -0.240  1.00  0.00    -0.345 OA
HETATM    7  O   LIG     1      -1.197  -1.600  -0.000  1.00  0.00    -0.346 OA
HETATM    8  C   LIG     1      -2.058   0.632  -0.574  1.00  0.00     0.202 C 
HETATM    9  C   LIG     1      -2.244  -0.647   0.251  1.00  0.00     0.202 C 
ENDROOT
BRANCH   1  10
HETATM   10  C   LIG     1       2.146   2.108  -0.213  1.00  0.00     0.261 C 
HETATM   11  O   LIG     1       3.361   2.298  -0.190  1.00  0.00    -0.267 OA
HETATM   12  N   LIG     1       1.262   3.166  -0.312  1.00  0.00    -0.361 N 
HETATM   13  C   LIG     1       1.694   4.538  -0.340  1.00  0.00     0.149 C 
ATOM     14  HN  LIG     1       0.263   2.966  -0.367  1.00  0.00     0.162 HD
ENDBRANCH   1  10
TORSDOF 1
