REMARK  3 active torsions:
REMARK  status: ('A' for Active; 'I' for Inactive)
REMARK    1  A    between atoms: C_1  and  S_3 
REMARK    2  A    between atoms: C_2  and  C_4 
REMARK       I    between atoms: C_2  and  N_11 
REMARK    3  A    between atoms: S_3  and  C_14 
ROOT
HETATM    1  C   LIG     1       1.860  -5.762   0.854  1.00  0.00     0.031 A 
HETATM    2  C   LIG     1       0.666  -5.370   1.471  1.00  0.00     0.018 A 
HETATM    3  C   LIG     1       2.747  -4.784   0.386  1.00  0.00     0.018 A 
HETATM    4  C   LIG     1       1.265  -3.036   1.179  1.00  0.00     0.009 A 
HETATM    5  C   LIG     1       0.372  -4.012   1.631  1.00  0.00     0.020 A 
HETATM    6  C   LIG     1       2.451  -3.426   0.549  1.00  0.00     0.020 A 
ENDROOT
BRANCH   1   7
HETATM    7  C   LIG     1       2.208  -7.192   0.642  1.00  0.00     0.249 C 
HETATM    8  O   LIG     1       3.006  -7.539  -0.217  1.00  0.00    -0.268 OA
HETATM    9  N   LIG     1       1.625  -8.112   1.471  1.00  0.00    -0.366 N 
ATOM     10  HN2 LIG     1       0.959  -7.823   2.188  1.00  0.00     0.159 HD
ATOM     11  HN1 LIG     1       1.864  -9.093   1.326  1.00  0.00     0.159 HD
ENDBRANCH   1   7
BRANCH   4  12
HETATM   12  S   LIG     1       0.860  -1.313   1.344  1.00  0.00    -0.016 SA
BRANCH  12  13
HETATM   13  C   LIG     1       1.597  -0.964   2.947  1.00  0.00     0.448 C 
HETATM   14  F   LIG     1       2.206  -2.035   3.508  1.00  0.00    -0.160 F 
HETATM   15  F   LIG     1       0.658  -0.535   3.824  1.00  0.00    -0.160 F 
HETATM   16  F   LIG     1       2.527   0.016   2.844  1.00  0.00    -0.160 F 
ENDBRANCH  12  13
ENDBRANCH   4  12
TORSDOF 3
