REMARK  1 active torsions:
REMARK  status: ('A' for Active; 'I' for Inactive)
REMARK    1  A    between atoms: C_1  and  C_7 
REMARK       I    between atoms: C_7  and  N_10 
ROOT
HETATM    1  C   LIG     1      -0.056   0.923   0.148  1.00  0.00     0.088 A 
HETATM    2  C   LIG     1       1.232   0.436   0.131  1.00  0.00     0.137 A 
HETATM    3  N   LIG     1      -0.109  -1.370  -0.066  1.00  0.00    -0.308 N 
ATOM      4  HN  LIG     1      -0.435  -2.331  -0.166  1.00  0.00     0.186 HD
HETATM    5  N   LIG     1       1.161  -0.922   0.012  1.00  0.00    -0.285 N 
HETATM    6  C   LIG     1      -0.839  -0.253   0.019  1.00  0.00     0.127 A 
HETATM    7 CL   LIG     1       2.752   1.204   0.229  1.00  0.00    -0.062 Cl
HETATM    8  C   LIG     1       2.245  -1.875  -0.029  1.00  0.00     0.179 C 
ENDROOT
BRANCH   1   9
HETATM    9  C   LIG     1      -0.568   2.274   0.271  1.00  0.00     0.255 C 
HETATM   10  O   LIG     1      -1.773   2.506   0.252  1.00  0.00    -0.268 OA
HETATM   11  N   LIG     1       0.375   3.266   0.410  1.00  0.00    -0.361 N 
HETATM   12  C   LIG     1       0.006   4.654   0.504  1.00  0.00     0.149 C 
ATOM     13  HN  LIG     1       1.362   3.011   0.447  1.00  0.00     0.162 HD
ENDBRANCH   1   9
TORSDOF 1
