REMARK  2 active torsions:
REMARK  status: ('A' for Active; 'I' for Inactive)
REMARK    1  A    between atoms: C_1  and  C_3 
REMARK    2  A    between atoms: C_2  and  C_4 
REMARK       I    between atoms: C_3  and  N_7 
ROOT
HETATM    1  C   LIG     1       0.099  -2.853  -3.900  1.00  0.00     0.073 A 
HETATM    2  C   LIG     1      -0.313  -1.558  -4.182  1.00  0.00     0.175 A 
HETATM    3  C   LIG     1      -0.194  -3.610  -5.073  1.00  0.00     0.052 A 
HETATM    4  O   LIG     1      -0.879  -1.505  -5.427  1.00  0.00    -0.310 OA
HETATM    5  C   LIG     1      -0.803  -2.752  -5.962  1.00  0.00     0.051 A 
HETATM    6  C   LIG     1      -1.332  -2.921  -7.330  1.00  0.00     0.076 C 
ENDROOT
BRANCH   1   7
HETATM    7  C   LIG     1       0.785  -3.229  -2.673  1.00  0.00     0.256 C 
HETATM    8  N   LIG     1       0.442  -4.431  -2.043  1.00  0.00    -0.348 N 
HETATM    9  C   LIG     1      -0.609  -5.338  -2.508  1.00  0.00     0.126 C 
HETATM   10  C   LIG     1       1.413  -4.979  -1.096  1.00  0.00     0.126 C 
HETATM   11  C   LIG     1      -1.246  -6.148  -1.382  1.00  0.00     0.020 C 
HETATM   12  C   LIG     1      -0.192  -6.828  -0.520  1.00  0.00     0.003 C 
HETATM   13  C   LIG     1       0.770  -5.783   0.029  1.00  0.00     0.020 C 
HETATM   14  O   LIG     1       1.656  -2.482  -2.227  1.00  0.00    -0.267 OA
ENDBRANCH   1   7
BRANCH   2  15
HETATM   15  C   LIG     1      -0.247  -0.293  -3.405  1.00  0.00     0.440 C 
HETATM   16  F   LIG     1      -0.441  -0.494  -2.075  1.00  0.00    -0.164 F 
HETATM   17  F   LIG     1       0.945   0.340  -3.549  1.00  0.00    -0.164 F 
HETATM   18  F   LIG     1      -1.204   0.594  -3.791  1.00  0.00    -0.164 F 
ENDBRANCH   2  15
TORSDOF 2
