REMARK  1 active torsions:
REMARK  status: ('A' for Active; 'I' for Inactive)
REMARK    1  A    between atoms: N_6  and  C_10 
ROOT
HETATM    1  C   LIG     1      -0.331   0.118   0.239  1.00  0.00     0.164 C 
HETATM    2  O   LIG     1      -0.775  -0.406  -1.025  1.00  0.00    -0.353 OA
HETATM    3  O   LIG     1      -1.473   0.471   1.036  1.00  0.00    -0.353 OA
HETATM    4  C   LIG     1       0.464  -0.957   0.985  1.00  0.00     0.070 C 
HETATM    5  C   LIG     1       0.527   1.361  -0.009  1.00  0.00     0.070 C 
HETATM    6  C   LIG     1       2.619  -0.065   0.020  1.00  0.00     0.183 C 
HETATM    7  C   LIG     1       1.761  -1.313   0.260  1.00  0.00     0.038 C 
HETATM    8  C   LIG     1       1.835   1.021  -0.727  1.00  0.00     0.038 C 
HETATM    9  C   LIG     1      -2.597   0.311   0.171  1.00  0.00     0.197 C 
HETATM   10  C   LIG     1      -2.148  -0.731  -0.816  1.00  0.00     0.197 C 
ENDROOT
BRANCH   6  11
HETATM   11  N   LIG     1       3.824  -0.411  -0.730  1.00  0.00    -0.075 N 
ATOM     12  HN3 LIG     1       3.613  -0.683  -1.690  1.00  0.00     0.274 HD
ATOM     13  HN2 LIG     1       4.399   0.407  -0.931  1.00  0.00     0.274 HD
ATOM     14  HN1 LIG     1       4.345  -1.133  -0.233  1.00  0.00     0.274 HD
ENDBRANCH   6  11
TORSDOF 1
