REMARK  2 active torsions:
REMARK  status: ('A' for Active; 'I' for Inactive)
REMARK    1  A    between atoms: C_1  and  C_6 
REMARK    2  A    between atoms: C_6  and  C_7 
ROOT
HETATM    1  C   LIG     1       1.595  -0.993   0.006  1.00  0.00    -0.030 A 
HETATM    2  C   LIG     1       0.215  -0.547  -0.005  1.00  0.00    -0.010 A 
HETATM    3  S   LIG     1       1.679   1.582   0.054  1.00  0.00    -0.101 SA
HETATM    4  C   LIG     1       2.470   0.076   0.036  1.00  0.00     0.059 A 
HETATM    5  C   LIG     1       0.124   0.848   0.021  1.00  0.00     0.015 A 
HETATM    6  C   LIG     1      -0.996  -1.287  -0.037  1.00  0.00     0.037 A 
HETATM    7  C   LIG     1      -1.119   1.513   0.020  1.00  0.00     0.021 A 
HETATM    8  C   LIG     1      -2.228  -0.627  -0.037  1.00  0.00     0.035 A 
HETATM    9  C   LIG     1      -2.293   0.757  -0.008  1.00  0.00     0.025 A 
HETATM   10 CL   LIG     1      -3.682  -1.548  -0.069  1.00  0.00    -0.084 Cl
ENDROOT
BRANCH   1  11
HETATM   11  C   LIG     1       2.037  -2.431  -0.014  1.00  0.00     0.153 C 
BRANCH  11  12
HETATM   12  C   LIG     1       2.187  -2.975  -1.416  1.00  0.00     0.176 C 
HETATM   13  O   LIG     1       1.968  -2.413  -2.475  1.00  0.00    -0.648 OA
HETATM   14  O   LIG     1       2.627  -4.253  -1.412  1.00  0.00    -0.648 OA
ENDBRANCH  11  12
ENDBRANCH   1  11
TORSDOF 2
