REMARK  3 active torsions:
REMARK  status: ('A' for Active; 'I' for Inactive)
REMARK    1  A    between atoms: S_1  and  C_4 
REMARK    2  A    between atoms: S_1  and  C_5 
REMARK    3  A    between atoms: C_3  and  C_5 
ROOT
HETATM    1  C   LIG     1       0.340  -2.488  -0.236  1.00  0.00     0.001 A 
HETATM    2  C   LIG     1      -0.117  -5.238  -0.609  1.00  0.00    -0.062 A 
HETATM    3  C   LIG     1       1.104  -3.430   0.458  1.00  0.00     0.019 A 
HETATM    4  C   LIG     1      -0.633  -2.928  -1.136  1.00  0.00     0.019 A 
HETATM    5  C   LIG     1       0.875  -4.797   0.275  1.00  0.00     0.008 A 
HETATM    6  C   LIG     1      -0.861  -4.293  -1.321  1.00  0.00     0.008 A 
HETATM    7  C   LIG     1      -0.337  -6.706  -0.823  1.00  0.00     0.048 C 
ENDROOT
BRANCH   1   8
HETATM    8  S   LIG     1       0.643  -0.749   0.005  1.00  0.00    -0.123 SA
BRANCH   8   9
HETATM    9  C   LIG     1      -1.001  -0.240   0.597  1.00  0.00     0.157 C 
BRANCH   9  10
HETATM   10  C   LIG     1      -1.040   1.251   0.859  1.00  0.00     0.132 C 
HETATM   11  O   LIG     1      -1.832   1.985   0.267  1.00  0.00    -0.298 OA
HETATM   12  C   LIG     1      -0.108   1.807   1.908  1.00  0.00     0.091 C 
ENDBRANCH   9  10
ENDBRANCH   8   9
ENDBRANCH   1   8
TORSDOF 3
