REMARK  4 active torsions:
REMARK  status: ('A' for Active; 'I' for Inactive)
REMARK    1  A    between atoms: S_1  and  C_4 
REMARK    2  A    between atoms: S_1  and  C_7 
REMARK    3  A    between atoms: C_2  and  C_4 
REMARK    4  A    between atoms: C_3  and  C_5 
ROOT
HETATM    1  C   LIG     1       1.268   1.834   2.322  1.00  0.00    -0.029 A 
HETATM    2  C   LIG     1       0.650   2.942   2.945  1.00  0.00     0.048 A 
HETATM    3  C   LIG     1       2.616   1.969   1.932  1.00  0.00     0.009 A 
HETATM    4  C   LIG     1       1.352   4.158   3.083  1.00  0.00     0.019 A 
HETATM    5  C   LIG     1       3.303   3.178   2.082  1.00  0.00     0.001 A 
HETATM    6  C   LIG     1       2.665   4.279   2.637  1.00  0.00     0.001 A 
ENDROOT
BRANCH   1   7
HETATM    7  C   LIG     1       0.566   0.519   2.011  1.00  0.00     0.153 C 
BRANCH   7   8
HETATM    8  S   LIG     1      -0.277   0.545   0.384  1.00  0.00     0.054 S 
HETATM    9  O   LIG     1       0.771   0.729  -0.678  1.00  0.00    -0.252 OA
BRANCH   8  10
HETATM   10  C   LIG     1      -0.750  -1.208   0.274  1.00  0.00     0.031 A 
HETATM   11  C   LIG     1      -2.036  -1.599   0.665  1.00  0.00     0.021 A 
HETATM   12  C   LIG     1      -2.475  -2.911   0.450  1.00  0.00     0.001 A 
HETATM   13  C   LIG     1      -1.617  -3.855  -0.112  1.00  0.00     0.000 A 
HETATM   14  C   LIG     1      -0.322  -3.485  -0.471  1.00  0.00     0.001 A 
HETATM   15  C   LIG     1       0.103  -2.162  -0.300  1.00  0.00     0.021 A 
ENDBRANCH   8  10
ENDBRANCH   7   8
ENDBRANCH   1   7
BRANCH   2  16
HETATM   16  C   LIG     1      -0.728   2.874   3.486  1.00  0.00     0.209 C 
HETATM   17  O   LIG     1      -1.612   2.109   3.139  1.00  0.00    -0.644 OA
HETATM   18  O   LIG     1      -0.919   3.733   4.507  1.00  0.00    -0.644 OA
ENDBRANCH   2  16
TORSDOF 4
