REMARK  2 active torsions:
REMARK  status: ('A' for Active; 'I' for Inactive)
REMARK       I    between atoms: C_1  and  N_2 
REMARK    1  A    between atoms: C_1  and  C_5 
REMARK    2  A    between atoms: N_2  and  C_8 
ROOT
HETATM    1  C   LIG     1       2.151  -0.762  -0.499  1.00  0.00     0.256 C 
HETATM    2  N   LIG     1       0.960  -1.465  -0.561  1.00  0.00    -0.323 N 
ATOM      3  HN  LIG     1       0.651  -1.909   0.304  1.00  0.00     0.169 HD
HETATM    4  O   LIG     1       2.667  -0.124  -1.407  1.00  0.00    -0.267 OA
ENDROOT
BRANCH   2   5
HETATM    5  C   LIG     1       0.124  -1.637  -1.686  1.00  0.00     0.037 A 
HETATM    6  C   LIG     1       0.387  -1.103  -2.943  1.00  0.00     0.046 A 
HETATM    7  C   LIG     1      -0.514  -1.352  -3.967  1.00  0.00     0.090 A 
HETATM    8  N   LIG     1      -1.637  -2.087  -3.824  1.00  0.00    -0.375 N 
HETATM    9  C   LIG     1      -1.871  -2.593  -2.598  1.00  0.00     0.090 A 
ATOM     10  HN  LIG     1      -2.275  -2.251  -4.603  1.00  0.00     0.164 HD
HETATM   11  C   LIG     1      -1.034  -2.397  -1.511  1.00  0.00     0.046 A 
ENDBRANCH   2   5
BRANCH   1  12
HETATM   12  C   LIG     1       2.823  -0.774   0.836  1.00  0.00     0.032 A 
HETATM   13  C   LIG     1       2.724  -1.862   1.715  1.00  0.00     0.017 A 
HETATM   14  C   LIG     1       3.351  -1.814   2.962  1.00  0.00     0.001 A 
HETATM   15  C   LIG     1       4.092  -0.690   3.330  1.00  0.00     0.000 A 
HETATM   16  C   LIG     1       4.218   0.382   2.449  1.00  0.00     0.001 A 
HETATM   17  C   LIG     1       3.590   0.340   1.203  1.00  0.00     0.017 A 
ENDBRANCH   1  12
TORSDOF 2
