REMARK  0 active torsions:
REMARK  status: ('A' for Active; 'I' for Inactive)
ROOT
HETATM    1  C   LIG     1       0.039   0.690   0.040  1.00  0.00     0.016 A 
HETATM    2  C   LIG     1       0.030  -0.711  -0.021  1.00  0.00    -0.043 A 
HETATM    3  C   LIG     1      -1.237   1.452   0.001  1.00  0.00     0.160 C 
HETATM    4  C   LIG     1       1.250   1.387   0.078  1.00  0.00     0.017 A 
HETATM    5  C   LIG     1       1.258  -1.393  -0.074  1.00  0.00     0.034 A 
HETATM    6  O   LIG     1      -1.243   2.674   0.130  1.00  0.00    -0.292 OA
HETATM    7  C   LIG     1       2.476  -0.707  -0.004  1.00  0.00     0.046 A 
HETATM    8  C   LIG     1       2.459   0.689   0.033  1.00  0.00     0.027 A 
HETATM    9  N   LIG     1       3.679  -1.389  -0.213  1.00  0.00    -0.102 NA
HETATM   10  C   LIG     1      -1.254  -1.494  -0.105  1.00  0.00     0.040 C 
HETATM   11  C   LIG     1      -2.497   0.675  -0.298  1.00  0.00     0.084 C 
HETATM   12  C   LIG     1      -2.456  -0.687   0.375  1.00  0.00     0.012 C 
ENDROOT
TORSDOF 0
