REMARK  1 active torsions:
REMARK  status: ('A' for Active; 'I' for Inactive)
REMARK       I    between atoms: C_5  and  N_6 
REMARK    1  A    between atoms: N_6  and  C_9 
ROOT
HETATM    1  C   LIG     1      -0.170   0.747  -0.040  1.00  0.00     0.016 A 
HETATM    2  C   LIG     1      -0.216  -0.653  -0.015  1.00  0.00    -0.042 A 
HETATM    3  C   LIG     1      -1.421   1.543  -0.163  1.00  0.00     0.160 C 
HETATM    4  C   LIG     1       1.058   1.410   0.037  1.00  0.00     0.018 A 
HETATM    5  C   LIG     1       0.988  -1.377   0.061  1.00  0.00     0.037 A 
HETATM    6  C   LIG     1       2.221  -0.722   0.136  1.00  0.00     0.035 A 
HETATM    7  O   LIG     1      -1.373   2.769  -0.229  1.00  0.00    -0.292 OA
HETATM    8  C   LIG     1       2.244   0.678   0.127  1.00  0.00     0.030 A 
HETATM    9  C   LIG     1      -1.522  -1.395  -0.119  1.00  0.00     0.040 C 
HETATM   10  C   LIG     1      -2.730   0.794  -0.285  1.00  0.00     0.084 C 
HETATM   11  C   LIG     1      -2.676  -0.555   0.414  1.00  0.00     0.012 C 
ENDROOT
BRANCH   6  12
HETATM   12  N   LIG     1       3.462  -1.385   0.216  1.00  0.00    -0.328 N 
HETATM   13  C   LIG     1       3.690  -2.750   0.237  1.00  0.00     0.218 C 
HETATM   14  O   LIG     1       2.851  -3.640   0.184  1.00  0.00    -0.274 OA
HETATM   15  C   LIG     1       5.161  -3.074   0.314  1.00  0.00     0.117 C 
ATOM     16  HN  LIG     1       4.289  -0.789   0.264  1.00  0.00     0.169 HD
ENDBRANCH   6  12
TORSDOF 1
