REMARK  7 active torsions:
REMARK  status: ('A' for Active; 'I' for Inactive)
REMARK    1  A    between atoms: N_1  and  C_6 
REMARK    2  A    between atoms: C_6  and  C_12 
REMARK    3  A    between atoms: O_9  and  C_11 
REMARK    4  A    between atoms: C_11  and  C_13 
REMARK    5  A    between atoms: C_12  and  C_15 
REMARK    6  A    between atoms: C_13  and  C_14 
REMARK    7  A    between atoms: C_14  and  C_15 
ROOT
HETATM    1  C   LIG     1      -0.114   1.107  -0.702  1.00  0.00     0.129 C 
ENDROOT
BRANCH   1   2
HETATM    2  N   LIG     1      -0.166   1.956  -1.907  1.00  0.00    -0.355 N 
HETATM    3  C   LIG     1      -0.228   1.564  -3.217  1.00  0.00     0.008 C 
HETATM    4  C   LIG     1      -0.182   2.701  -4.021  1.00  0.00     0.026 C 
HETATM    5  C   LIG     1      -0.311   0.154  -3.699  1.00  0.00     0.068 C 
HETATM    6  C   LIG     1      -0.223   3.809  -3.153  1.00  0.00     0.026 C 
HETATM    7  C   LIG     1      -0.276   3.354  -1.857  1.00  0.00     0.008 C 
HETATM    8  C   LIG     1      -0.440   4.133  -0.605  1.00  0.00     0.068 C 
ENDBRANCH   1   2
BRANCH   1   9
HETATM    9  C   LIG     1       1.125   0.230  -0.663  1.00  0.00     0.020 C 
BRANCH   9  10
HETATM   10  C   LIG     1       1.197  -0.767   0.495  1.00  0.00     0.002 C 
BRANCH  10  11
HETATM   11  C   LIG     1       2.436  -1.686   0.458  1.00  0.00     0.002 C 
BRANCH  11  12
HETATM   12  C   LIG     1       2.539  -2.703  -0.696  1.00  0.00     0.026 C 
BRANCH  12  13
HETATM   13  C   LIG     1       2.747  -2.113  -2.086  1.00  0.00     0.164 C 
BRANCH  13  14
HETATM   14  O   LIG     1       3.030  -3.118  -3.049  1.00  0.00    -0.401 OA
ATOM     15  HO  LIG     1       3.160  -2.750  -3.915  1.00  0.00     0.209 HD
ENDBRANCH  13  14
ENDBRANCH  12  13
ENDBRANCH  11  12
ENDBRANCH  10  11
ENDBRANCH   9  10
ENDBRANCH   1   9
TORSDOF 7
