REMARK  1 active torsions:
REMARK  status: ('A' for Active; 'I' for Inactive)
REMARK    1  A    between atoms: C_1  and  N_2 
ROOT
HETATM    1  N   LIG     1       0.321   0.972  -0.937  1.00  0.00    -0.354 N 
HETATM    2  O   LIG     1      -0.118   2.921  -3.010  1.00  0.00    -0.388 OA
HETATM    3  C   LIG     1       0.190   0.583  -2.352  1.00  0.00     0.151 C 
HETATM    4  C   LIG     1      -0.243   2.306  -0.645  1.00  0.00     0.151 C 
HETATM    5  C   LIG     1       0.596   1.714  -3.302  1.00  0.00     0.187 C 
HETATM    6  C   LIG     1       0.183   3.354  -1.676  1.00  0.00     0.187 C 
ENDROOT
BRANCH   1   7
HETATM    7  C   LIG     1       0.639   0.078   0.069  1.00  0.00     0.167 C 
HETATM    8  S   LIG     1       0.912   0.427   1.679  1.00  0.00    -0.041 SA
HETATM    9  N   LIG     1       0.780  -1.221  -0.304  1.00  0.00    -0.376 N 
ATOM     10  HN2 LIG     1       0.613  -1.434  -1.287  1.00  0.00     0.158 HD
ATOM     11  HN1 LIG     1       1.015  -1.880   0.438  1.00  0.00     0.158 HD
ENDBRANCH   1   7
TORSDOF 1
