REMARK  1 active torsions:
REMARK  status: ('A' for Active; 'I' for Inactive)
REMARK    1  A    between atoms: C_8  and  O_9 
ROOT
HETATM    1  C   LIG     1      -0.696   1.232   0.000  1.00  0.00     0.056 A 
HETATM    2  C   LIG     1      -1.409   0.010  -0.002  1.00  0.00    -0.038 A 
HETATM    3  C   LIG     1       0.718   1.225   0.002  1.00  0.00    -0.038 A 
HETATM    4  N   LIG     1      -1.987   3.490   0.003  1.00  0.00    -0.191 NA
HETATM    5  C   LIG     1      -1.409   2.483   0.001  1.00  0.00     0.100 C 
HETATM    6  C   LIG     1       1.396  -0.005   0.002  1.00  0.00     0.044 A 
HETATM    7  C   LIG     1      -0.698  -1.204  -0.002  1.00  0.00     0.044 A 
HETATM    8  C   LIG     1       0.691  -1.200   0.000  1.00  0.00     0.066 A 
HETATM    9  C   LIG     1       1.556   2.477   0.004  1.00  0.00     0.050 C 
HETATM   10  C   LIG     1      -2.915  -0.070  -0.006  1.00  0.00     0.050 C 
ENDROOT
BRANCH   8  11
HETATM   11  O   LIG     1       1.407  -2.358   0.001  1.00  0.00    -0.361 OA
ATOM     12  HO  LIG     1       0.924  -3.176  -0.000  1.00  0.00     0.217 HD
ENDBRANCH   8  11
TORSDOF 1
