REMARK  3 active torsions:
REMARK  status: ('A' for Active; 'I' for Inactive)
REMARK    1  A    between atoms: C_1  and  C_2 
REMARK    2  A    between atoms: C_1  and  O_10 
REMARK    3  A    between atoms: O_10  and  C_12 
ROOT
HETATM    1  C   LIG     1      -0.191   1.517   1.166  1.00  0.00     0.042 A 
HETATM    2  C   LIG     1      -0.503   3.787   1.922  1.00  0.00     0.155 A 
HETATM    3  C   LIG     1       0.275   2.836   1.272  1.00  0.00     0.063 A 
HETATM    4  C   LIG     1      -1.735   3.443   2.467  1.00  0.00     0.154 A 
HETATM    5  C   LIG     1      -1.439   1.175   1.714  1.00  0.00     0.021 A 
HETATM    6  C   LIG     1      -2.210   2.140   2.367  1.00  0.00     0.046 A 
HETATM    7  F   LIG     1      -0.051   5.045   2.018  1.00  0.00    -0.203 F 
HETATM    8  F   LIG     1      -2.476   4.366   3.093  1.00  0.00    -0.203 F 
ENDROOT
BRANCH   1   9
HETATM    9  C   LIG     1       0.596   0.454   0.490  1.00  0.00     0.293 C 
HETATM   10  O   LIG     1       0.210  -0.699   0.373  1.00  0.00    -0.259 OA
BRANCH   9  11
HETATM   11  O   LIG     1       1.768   0.958   0.037  1.00  0.00    -0.318 OA
BRANCH  11  12
HETATM   12  C   LIG     1       2.626   0.030  -0.640  1.00  0.00     0.174 C 
HETATM   13  C   LIG     1       2.200  -0.115  -2.089  1.00  0.00     0.034 C 
ENDBRANCH  11  12
ENDBRANCH   9  11
ENDBRANCH   1   9
TORSDOF 3
