REMARK  1 active torsions:
REMARK  status: ('A' for Active; 'I' for Inactive)
REMARK    1  A    between atoms: C_3  and  C_7 
ROOT
HETATM    1  N   LIG     1       1.030  -0.660  -0.136  1.00  0.00    -0.261 N 
ATOM      2  HN  LIG     1       1.876  -1.228  -0.175  1.00  0.00     0.194 HD
HETATM    3  C   LIG     1       0.975   0.631  -0.204  1.00  0.00     0.052 A 
HETATM    4  C   LIG     1      -0.404   1.168  -0.118  1.00  0.00     0.173 A 
HETATM    5  O   LIG     1      -0.305  -1.147   0.004  1.00  0.00    -0.199 OA
HETATM    6  C   LIG     1      -1.182  -0.091   0.018  1.00  0.00     0.286 A 
HETATM    7  O   LIG     1      -2.395  -0.175   0.125  1.00  0.00    -0.263 OA
ENDROOT
BRANCH   3   8
HETATM    8  C   LIG     1       2.159   1.504  -0.354  1.00  0.00    -0.011 A 
HETATM    9  C   LIG     1       2.034   2.896  -0.415  1.00  0.00     0.013 A 
HETATM   10  C   LIG     1       3.173   3.694  -0.557  1.00  0.00     0.001 A 
HETATM   11  C   LIG     1       4.435   3.105  -0.639  1.00  0.00     0.000 A 
HETATM   12  C   LIG     1       4.563   1.719  -0.579  1.00  0.00     0.001 A 
HETATM   13  C   LIG     1       3.428   0.918  -0.436  1.00  0.00     0.013 A 
ENDBRANCH   3   8
TORSDOF 1
