REMARK  3 active torsions:
REMARK  status: ('A' for Active; 'I' for Inactive)
REMARK    1  A    between atoms: C_1  and  C_4 
REMARK    2  A    between atoms: S_2  and  C_4 
REMARK    3  A    between atoms: S_2  and  C_5 
ROOT
HETATM    1  C   LIG     1      -0.137   3.838   0.090  1.00  0.00     0.001 A 
HETATM    2  C   LIG     1      -0.719   5.631   2.155  1.00  0.00     0.034 A 
HETATM    3 CL   LIG     1      -1.073   6.736   3.425  1.00  0.00    -0.084 Cl
HETATM    4  C   LIG     1      -1.167   3.561   0.995  1.00  0.00     0.020 A 
HETATM    5  C   LIG     1       0.590   5.026   0.220  1.00  0.00     0.020 A 
HETATM    6  C   LIG     1       0.302   5.921   1.253  1.00  0.00     0.025 A 
HETATM    7  C   LIG     1      -1.454   4.454   2.032  1.00  0.00     0.025 A 
ENDROOT
BRANCH   1   8
HETATM    8  S   LIG     1       0.218   2.675  -1.216  1.00  0.00    -0.119 SA
BRANCH   8   9
HETATM    9  C   LIG     1       1.971   2.324  -0.851  1.00  0.00     0.192 C 
BRANCH   9  10
HETATM   10  C   LIG     1       2.148   1.715   0.517  1.00  0.00     0.182 C 
HETATM   11  O   LIG     1       1.393   0.962   1.113  1.00  0.00    -0.647 OA
HETATM   12  O   LIG     1       3.330   2.052   1.074  1.00  0.00    -0.647 OA
ENDBRANCH   9  10
ENDBRANCH   8   9
ENDBRANCH   1   8
TORSDOF 3
