REMARK  1 active torsions:
REMARK  status: ('A' for Active; 'I' for Inactive)
REMARK    1  A    between atoms: C_1  and  C_2 
ROOT
HETATM    1  C   LIG     1      -1.347  -0.028  -0.112  1.00  0.00    -0.049 A 
HETATM    2  C   LIG     1      -0.662   1.087  -0.640  1.00  0.00     0.034 A 
HETATM    3  C   LIG     1       0.735   1.188  -0.608  1.00  0.00     0.046 A 
HETATM    4  N   LIG     1       1.365   2.369  -1.027  1.00  0.00    -0.102 NA
HETATM    5  C   LIG     1      -0.566  -1.043   0.465  1.00  0.00     0.008 A 
HETATM    6  C   LIG     1       0.822  -0.923   0.561  1.00  0.00     0.002 A 
HETATM    7  C   LIG     1       1.465   0.201   0.050  1.00  0.00     0.026 A 
ENDROOT
BRANCH   1   8
HETATM    8  C   LIG     1      -2.880  -0.148  -0.208  1.00  0.00    -0.024 C 
HETATM    9  C   LIG     1      -3.225  -0.841  -1.540  1.00  0.00     0.019 C 
HETATM   10  C   LIG     1      -3.483  -0.979   0.949  1.00  0.00     0.019 C 
HETATM   11  C   LIG     1      -3.587   1.227  -0.171  1.00  0.00     0.019 C 
ENDBRANCH   1   8
TORSDOF 1
