REMARK  1 active torsions:
REMARK  status: ('A' for Active; 'I' for Inactive)
REMARK    1  A    between atoms: C_3  and  O_7 
ROOT
HETATM    1  N   LIG     1       2.411  -0.056  -0.000  1.00  0.00    -0.238 N 
ATOM      2  HN  LIG     1       3.431  -0.047   0.001  1.00  0.00     0.197 HD
HETATM    3  C   LIG     1       1.603  -1.111  -0.001  1.00  0.00     0.173 A 
HETATM    4  C   LIG     1       0.239  -0.796   0.000  1.00  0.00     0.052 A 
HETATM    5  O   LIG     1       1.542   1.038   0.000  1.00  0.00    -0.235 OA
HETATM    6  C   LIG     1       0.252   0.589   0.000  1.00  0.00     0.113 A 
HETATM    7  C   LIG     1      -0.990  -1.471   0.000  1.00  0.00     0.019 A 
HETATM    8  C   LIG     1      -0.896   1.379   0.000  1.00  0.00     0.040 A 
HETATM    9  C   LIG     1      -2.165  -0.706   0.000  1.00  0.00     0.001 A 
HETATM   10  C   LIG     1      -2.117   0.693   0.000  1.00  0.00     0.003 A 
ENDROOT
BRANCH   3  11
HETATM   11  O   LIG     1       2.192  -2.310  -0.002  1.00  0.00    -0.344 OA
ATOM     12  HO  LIG     1       1.614  -3.064  -0.003  1.00  0.00     0.219 HD
ENDBRANCH   3  11
TORSDOF 1
