REMARK  1 active torsions:
REMARK  status: ('A' for Active; 'I' for Inactive)
REMARK    1  A    between atoms: C_4  and  O_10 
ROOT
HETATM    1  C   LIG     1       0.222   0.776  -0.000  1.00  0.00     0.052 A 
HETATM    2  N   LIG     1       2.395   0.049  -0.000  1.00  0.00    -0.238 N 
ATOM      3  HN  LIG     1       3.415   0.042   0.000  1.00  0.00     0.197 HD
HETATM    4  C   LIG     1       1.589   1.107  -0.000  1.00  0.00     0.173 A 
HETATM    5  C   LIG     1       0.245  -0.610   0.000  1.00  0.00     0.115 A 
HETATM    6  O   LIG     1       1.536  -1.047   0.000  1.00  0.00    -0.235 OA
HETATM    7  C   LIG     1      -1.017   1.439  -0.000  1.00  0.00     0.020 A 
HETATM    8  C   LIG     1      -0.891  -1.415   0.001  1.00  0.00     0.064 A 
HETATM    9  C   LIG     1      -2.113  -0.739   0.001  1.00  0.00     0.036 A 
HETATM   10  C   LIG     1      -2.183   0.658   0.000  1.00  0.00     0.025 A 
HETATM   11 CL   LIG     1      -3.575  -1.653   0.002  1.00  0.00    -0.084 Cl
ENDROOT
BRANCH   4  12
HETATM   12  O   LIG     1       2.168   2.315  -0.001  1.00  0.00    -0.344 OA
ATOM     13  HO  LIG     1       3.091   2.539  -0.001  1.00  0.00     0.219 HD
ENDBRANCH   4  12
TORSDOF 1
