REMARK  1 active torsions:
REMARK  status: ('A' for Active; 'I' for Inactive)
REMARK    1  A    between atoms: C_1  and  C_2 
ROOT
HETATM    1  C   LIG     1       0.587   1.060  -0.855  1.00  0.00     0.074 A 
HETATM    2  C   LIG     1       0.746   2.356  -0.347  1.00  0.00     0.076 A 
HETATM    3  N   LIG     1      -0.072   3.268  -2.463  1.00  0.00    -0.373 N 
ATOM      4  HN  LIG     1      -0.306   4.076  -3.040  1.00  0.00     0.164 HD
HETATM    5  N   LIG     1       1.048   2.608   0.999  1.00  0.00    -0.100 NA
HETATM    6  C   LIG     1       0.133   0.895  -2.177  1.00  0.00     0.035 A 
HETATM    7  C   LIG     1       0.352   3.404  -1.185  1.00  0.00     0.114 A 
HETATM    8  C   LIG     1      -0.168   2.012  -2.933  1.00  0.00     0.088 A 
ENDROOT
BRANCH   1   9
HETATM    9  C   LIG     1       0.850  -0.169  -0.029  1.00  0.00     0.419 C 
HETATM   10  F   LIG     1       1.772   0.019   0.961  1.00  0.00    -0.166 F 
HETATM   11  F   LIG     1       1.330  -1.209  -0.772  1.00  0.00    -0.166 F 
HETATM   12  F   LIG     1      -0.269  -0.643   0.584  1.00  0.00    -0.166 F 
ENDBRANCH   1   9
TORSDOF 1
