REMARK  2 active torsions:
REMARK  status: ('A' for Active; 'I' for Inactive)
REMARK    1  A    between atoms: C_1  and  C_4 
REMARK    2  A    between atoms: C_2  and  C_3 
ROOT
HETATM    1  C   LIG     1       0.971   1.107  -0.156  1.00  0.00     0.071 A 
HETATM    2  C   LIG     1       1.573  -0.158  -0.086  1.00  0.00     0.067 A 
HETATM    3  N   LIG     1      -1.226   0.109   0.117  1.00  0.00    -0.374 N 
ATOM      4  HN  LIG     1      -2.238   0.210   0.188  1.00  0.00     0.164 HD
HETATM    5  C   LIG     1      -0.416   1.181  -0.060  1.00  0.00     0.106 A 
HETATM    6  C   LIG     1       0.739  -1.276   0.101  1.00  0.00     0.034 A 
HETATM    7  C   LIG     1      -0.631  -1.096   0.194  1.00  0.00     0.088 A 
ENDROOT
BRANCH   2   8
HETATM    8  C   LIG     1       3.056  -0.365  -0.233  1.00  0.00     0.418 C 
HETATM    9  F   LIG     1       3.777   0.050   0.842  1.00  0.00    -0.166 F 
HETATM   10  F   LIG     1       3.381  -1.686  -0.380  1.00  0.00    -0.166 F 
HETATM   11  F   LIG     1       3.578   0.246  -1.332  1.00  0.00    -0.166 F 
ENDBRANCH   2   8
BRANCH   1  12
HETATM   12  C   LIG     1       1.674   2.390  -0.348  1.00  0.00     0.211 C 
HETATM   13  O   LIG     1       1.188   3.398  -0.819  1.00  0.00    -0.644 OA
HETATM   14  O   LIG     1       2.919   2.371   0.143  1.00  0.00    -0.644 OA
ENDBRANCH   1  12
TORSDOF 2
