REMARK  4 active torsions:
REMARK  status: ('A' for Active; 'I' for Inactive)
REMARK    1  A    between atoms: N_1  and  C_7 
REMARK    2  A    between atoms: C_5  and  O_6 
REMARK    3  A    between atoms: O_6  and  C_8 
REMARK    4  A    between atoms: C_7  and  C_8 
ROOT
HETATM    1  O   LIG     1       0.752   2.255   1.206  1.00  0.00    -0.350 OA
ENDROOT
BRANCH   1   2
HETATM    2  C   LIG     1       0.646   3.619   1.199  1.00  0.00     0.068 A 
HETATM    3  C   LIG     1       1.569   4.281   2.012  1.00  0.00     0.037 A 
HETATM    4  C   LIG     1       1.582   5.675   2.087  1.00  0.00     0.003 A 
HETATM    5  C   LIG     1       0.668   6.418   1.343  1.00  0.00     0.000 A 
HETATM    6  C   LIG     1      -0.261   5.765   0.536  1.00  0.00     0.003 A 
HETATM    7  C   LIG     1      -0.276   4.368   0.465  1.00  0.00     0.037 A 
ENDBRANCH   1   2
BRANCH   1   8
HETATM    8  C   LIG     1      -0.166   1.528   0.385  1.00  0.00     0.203 C 
BRANCH   8   9
HETATM    9  C   LIG     1       0.142   0.028   0.505  1.00  0.00     0.256 C 
BRANCH   9  10
HETATM   10  N   LIG     1       0.007  -0.468   1.880  1.00  0.00    -0.077 N 
ATOM     11  HN3 LIG     1       0.581   0.076   2.524  1.00  0.00     0.274 HD
ATOM     12  HN2 LIG     1      -0.915  -0.252   2.259  1.00  0.00     0.274 HD
ATOM     13  HN1 LIG     1       0.212  -1.464   1.960  1.00  0.00     0.274 HD
ENDBRANCH   9  10
ENDBRANCH   8   9
ENDBRANCH   1   8
TORSDOF 4
