REMARK  1 active torsions:
REMARK  status: ('A' for Active; 'I' for Inactive)
REMARK    1  A    between atoms: C_1  and  C_2 
ROOT
HETATM    1  C   LIG     1       0.471  -0.399   1.249  1.00  0.00     0.071 A 
HETATM    2  C   LIG     1       0.021   0.499   2.225  1.00  0.00     0.075 A 
HETATM    3  N   LIG     1      -0.130   3.053   1.826  1.00  0.00    -0.191 NA
HETATM    4  C   LIG     1      -0.063   1.909   2.002  1.00  0.00     0.101 C 
HETATM    5  N   LIG     1      -0.310  -1.327   3.777  1.00  0.00    -0.368 N 
ATOM      6  HN  LIG     1      -0.599  -1.656   4.698  1.00  0.00     0.165 HD
HETATM    7  C   LIG     1       0.524  -1.766   1.569  1.00  0.00     0.042 A 
HETATM    8  C   LIG     1      -0.356  -0.013   3.458  1.00  0.00     0.111 A 
HETATM    9  C   LIG     1       0.131  -2.189   2.835  1.00  0.00     0.005 A 
HETATM   10  C   LIG     1       0.177  -3.644   3.196  1.00  0.00     0.068 C 
ENDROOT
BRANCH   1  11
HETATM   11  C   LIG     1       0.899   0.083  -0.110  1.00  0.00     0.419 C 
HETATM   12  F   LIG     1      -0.078   0.776  -0.750  1.00  0.00    -0.166 F 
HETATM   13  F   LIG     1       1.246  -0.930  -0.953  1.00  0.00    -0.166 F 
HETATM   14  F   LIG     1       1.982   0.902  -0.050  1.00  0.00    -0.166 F 
ENDBRANCH   1  11
TORSDOF 1
