REMARK  1 active torsions:
REMARK  status: ('A' for Active; 'I' for Inactive)
REMARK    1  A    between atoms: C_1  and  C_2 
ROOT
HETATM    1  C   LIG     1       0.569  -0.693   1.185  1.00  0.00     0.063 A 
HETATM    2  N   LIG     1      -0.574  -0.637   3.319  1.00  0.00    -0.354 N 
ATOM      3  HN  LIG     1      -1.098  -0.116   4.022  1.00  0.00     0.166 HD
HETATM    4  C   LIG     1      -0.280  -1.936   3.490  1.00  0.00     0.116 A 
HETATM    5  C   LIG     1      -0.148  -0.044   2.178  1.00  0.00     0.105 A 
HETATM    6  C   LIG     1       0.865  -2.042   1.390  1.00  0.00     0.021 A 
HETATM    7  C   LIG     1       0.439  -2.670   2.559  1.00  0.00     0.046 A 
HETATM    8  N   LIG     1      -0.702  -2.519   4.680  1.00  0.00    -0.083 NA
ENDROOT
BRANCH   1   9
HETATM    9  C   LIG     1       1.007   0.031  -0.049  1.00  0.00     0.418 C 
HETATM   10  F   LIG     1       0.639   1.342  -0.074  1.00  0.00    -0.166 F 
HETATM   11  F   LIG     1       0.495  -0.520  -1.184  1.00  0.00    -0.166 F 
HETATM   12  F   LIG     1       2.359   0.021  -0.208  1.00  0.00    -0.166 F 
ENDBRANCH   1   9
TORSDOF 1
