REMARK  1 active torsions:
REMARK  status: ('A' for Active; 'I' for Inactive)
REMARK    1  A    between atoms: C_1  and  C_2 
ROOT
HETATM    1  C   LIG     1       0.535   0.098  -1.433  1.00  0.00     0.071 A 
HETATM    2  N   LIG     1       0.441  -3.411  -0.891  1.00  0.00    -0.191 NA
HETATM    3  C   LIG     1       0.356  -2.382  -1.419  1.00  0.00     0.101 C 
HETATM    4  C   LIG     1       0.248  -1.115  -2.074  1.00  0.00     0.075 A 
HETATM    5  N   LIG     1      -0.296   0.068  -4.114  1.00  0.00    -0.374 N 
ATOM      6  HN  LIG     1      -0.597   0.054  -5.088  1.00  0.00     0.164 HD
HETATM    7  C   LIG     1      -0.159  -1.074  -3.401  1.00  0.00     0.111 A 
HETATM    8  C   LIG     1       0.396   1.291  -2.160  1.00  0.00     0.035 A 
HETATM    9  C   LIG     1      -0.017   1.225  -3.480  1.00  0.00     0.088 A 
ENDROOT
BRANCH   1  10
HETATM   10  C   LIG     1       0.979   0.129   0.005  1.00  0.00     0.419 C 
HETATM   11  F   LIG     1       2.119  -0.581   0.212  1.00  0.00    -0.166 F 
HETATM   12  F   LIG     1       0.044  -0.383   0.847  1.00  0.00    -0.166 F 
HETATM   13  F   LIG     1       1.239   1.387   0.458  1.00  0.00    -0.166 F 
ENDBRANCH   1  10
TORSDOF 1
