REMARK  1 active torsions:
REMARK  status: ('A' for Active; 'I' for Inactive)
REMARK    1  A    between atoms: C_1  and  C_7 
ROOT
HETATM    1  C   LIG     1       0.016   1.523  -0.309  1.00  0.00     0.158 C 
HETATM    2  O   LIG     1       0.016  -1.386  -0.173  1.00  0.00    -0.310 OA
HETATM    3  C   LIG     1      -1.239   0.705  -0.117  1.00  0.00    -0.005 A 
HETATM    4  C   LIG     1       1.271   0.705  -0.100  1.00  0.00    -0.005 A 
HETATM    5  C   LIG     1      -1.164  -0.689  -0.081  1.00  0.00     0.083 A 
HETATM    6  C   LIG     1       1.195  -0.689  -0.065  1.00  0.00     0.083 A 
HETATM    7  C   LIG     1      -2.494   1.325   0.003  1.00  0.00     0.011 A 
HETATM    8  C   LIG     1       2.523   1.326   0.040  1.00  0.00     0.011 A 
HETATM    9  C   LIG     1       2.352  -1.456   0.089  1.00  0.00     0.038 A 
HETATM   10  C   LIG     1      -2.323  -1.456   0.055  1.00  0.00     0.038 A 
HETATM   11  C   LIG     1       3.677   0.558   0.202  1.00  0.00     0.001 A 
HETATM   12  C   LIG     1      -3.650   0.557   0.148  1.00  0.00     0.001 A 
HETATM   13  C   LIG     1       3.592  -0.833   0.224  1.00  0.00     0.003 A 
HETATM   14  C   LIG     1      -3.566  -0.833   0.171  1.00  0.00     0.003 A 
ENDROOT
BRANCH   1  15
HETATM   15  C   LIG     1      -0.003   2.229  -1.659  1.00  0.00     0.186 C 
HETATM   16  O   LIG     1      -0.399   3.371  -1.853  1.00  0.00    -0.647 OA
HETATM   17  O   LIG     1       0.399   1.477  -2.705  1.00  0.00    -0.647 OA
ENDBRANCH   1  15
TORSDOF 1
