REMARK  1 active torsions:
REMARK  status: ('A' for Active; 'I' for Inactive)
REMARK    1  A    between atoms: C_1  and  C_9 
REMARK       I    between atoms: N_5  and  C_7 
ROOT
HETATM    1  C   LIG     1      -1.971  -1.076  -0.093  1.00  0.00    -0.026 A 
HETATM    2  C   LIG     1      -0.924  -0.229  -0.407  1.00  0.00     0.096 A 
HETATM    3  N   LIG     1      -1.424   1.028  -0.605  1.00  0.00    -0.365 N 
ATOM      4  HN  LIG     1      -0.865   1.846  -0.848  1.00  0.00     0.165 HD
HETATM    5  C   LIG     1      -3.162  -0.271  -0.096  1.00  0.00    -0.001 A 
HETATM    6  C   LIG     1      -2.786   1.032  -0.430  1.00  0.00     0.042 A 
HETATM    7  C   LIG     1      -4.530  -0.522   0.147  1.00  0.00     0.014 A 
HETATM    8  C   LIG     1      -3.703   2.085  -0.542  1.00  0.00     0.030 A 
HETATM    9  C   LIG     1      -5.460   0.519   0.040  1.00  0.00     0.001 A 
HETATM   10  C   LIG     1      -5.050   1.803  -0.302  1.00  0.00     0.002 A 
ENDROOT
BRANCH   1  11
HETATM   11  C   LIG     1      -1.835  -2.553   0.181  1.00  0.00     0.024 C 
HETATM   12  C   LIG     1      -2.617  -3.406  -0.828  1.00  0.00     0.029 C 
HETATM   13  C   LIG     1      -2.459  -4.894  -0.538  1.00  0.00     0.126 C 
HETATM   14  N   LIG     1      -2.766  -5.215   0.856  1.00  0.00    -0.352 N 
HETATM   15  C   LIG     1      -2.060  -4.420   1.859  1.00  0.00     0.126 C 
HETATM   16  C   LIG     1      -3.333  -6.419   1.262  1.00  0.00     0.215 C 
HETATM   17  C   LIG     1      -2.227  -2.924   1.617  1.00  0.00     0.029 C 
HETATM   18  O   LIG     1      -3.336  -6.795   2.435  1.00  0.00    -0.274 OA
HETATM   19  C   LIG     1      -3.982  -7.269   0.199  1.00  0.00     0.117 C 
ENDBRANCH   1  11
TORSDOF 1
