REMARK  1 active torsions:
REMARK  status: ('A' for Active; 'I' for Inactive)
REMARK    1  A    between atoms: C_9  and  O_12 
ROOT
HETATM    1  C   LIG     1      -0.014   0.639   0.012  1.00  0.00     0.092 A 
HETATM    2  C   LIG     1       0.043  -0.758  -0.001  1.00  0.00     0.044 A 
HETATM    3  C   LIG     1      -1.211  -1.530   0.059  1.00  0.00     0.165 C 
HETATM    4  C   LIG     1       1.174   1.389   0.055  1.00  0.00     0.005 A 
HETATM    5  O   LIG     1      -1.197   1.338  -0.009  1.00  0.00    -0.339 OA
HETATM    6  C   LIG     1      -2.360   0.599  -0.434  1.00  0.00     0.067 C 
HETATM    7  C   LIG     1      -2.457  -0.733   0.307  1.00  0.00     0.121 C 
HETATM    8  C   LIG     1       1.270  -1.426  -0.035  1.00  0.00     0.021 A 
HETATM    9  C   LIG     1       2.399   0.704   0.031  1.00  0.00     0.074 A 
HETATM   10  O   LIG     1      -1.213  -2.753  -0.024  1.00  0.00    -0.292 OA
HETATM   11  C   LIG     1       2.452  -0.691  -0.025  1.00  0.00     0.038 A 
HETATM   12  C   LIG     1       1.116   2.890   0.126  1.00  0.00     0.054 C 
HETATM   13  C   LIG     1      -2.357   0.432  -1.963  1.00  0.00     0.046 C 
HETATM   14  C   LIG     1      -3.573   1.462  -0.053  1.00  0.00     0.046 C 
ENDROOT
BRANCH   9  15
HETATM   15  O   LIG     1       3.563   1.419   0.059  1.00  0.00    -0.360 OA
ATOM     16  HO  LIG     1       4.392   0.955   0.043  1.00  0.00     0.217 HD
ENDBRANCH   9  15
TORSDOF 1
