REMARK  0 active torsions:
REMARK  status: ('A' for Active; 'I' for Inactive)
ROOT
HETATM    1  N   LIG     1       1.231  -1.499  -1.283  1.00  0.00     0.094 N 
HETATM    2  C   LIG     1       0.988  -2.957  -1.306  1.00  0.00     0.230 C 
HETATM    3  C   LIG     1       0.068  -0.997  -0.525  1.00  0.00     0.230 C 
HETATM    4  C   LIG     1      -1.356  -2.397  -2.023  1.00  0.00     0.131 C 
HETATM    5  C   LIG     1      -0.134  -3.242  -2.314  1.00  0.00     0.114 C 
HETATM    6  C   LIG     1      -1.126  -1.002  -1.487  1.00  0.00     0.114 C 
HETATM    7  C   LIG     1      -0.119  -1.998   0.622  1.00  0.00     0.038 C 
HETATM    8  C   LIG     1       0.552  -3.280   0.129  1.00  0.00     0.038 C 
HETATM    9  O   LIG     1      -2.491  -2.793  -2.306  1.00  0.00    -0.298 OA
HETATM   10  C   LIG     1       2.510  -1.157  -0.652  1.00  0.00     0.310 C 
ENDROOT
TORSDOF 0
