REMARK  1 active torsions:
REMARK  status: ('A' for Active; 'I' for Inactive)
REMARK    1  A    between atoms: C_4  and  O_8 
ROOT
HETATM    1  N   LIG     1       1.187   0.651   0.066  1.00  0.00    -0.361 N 
ATOM      2  HN  LIG     1       2.073   1.156   0.092  1.00  0.00     0.165 HD
HETATM    3  C   LIG     1       1.158  -0.706   0.155  1.00  0.00     0.039 A 
HETATM    4  C   LIG     1      -0.040  -1.419   0.115  1.00  0.00     0.087 A 
HETATM    5  C   LIG     1       0.015   1.317  -0.058  1.00  0.00     0.005 A 
HETATM    6  C   LIG     1      -1.234  -0.717  -0.002  1.00  0.00     0.040 A 
HETATM    7  C   LIG     1      -1.214   0.670  -0.086  1.00  0.00     0.027 A 
HETATM    8  C   LIG     1       2.509  -1.339   0.291  1.00  0.00     0.071 C 
HETATM    9  C   LIG     1       0.080   2.813  -0.148  1.00  0.00     0.068 C 
ENDROOT
BRANCH   4  10
HETATM   10  O   LIG     1      -0.157  -2.776   0.184  1.00  0.00    -0.359 OA
ATOM     11  HO  LIG     1      -0.973  -3.262   0.157  1.00  0.00     0.217 HD
ENDBRANCH   4  10
TORSDOF 1
