REMARK  2 active torsions:
REMARK  status: ('A' for Active; 'I' for Inactive)
REMARK    1  A    between atoms: C_1  and  C_6 
REMARK    2  A    between atoms: C_6  and  C_8 
ROOT
HETATM    1  C   LIG     1      -1.587  -1.063  -0.002  1.00  0.00    -0.020 A 
HETATM    2  N   LIG     1      -1.529   1.166   0.009  1.00  0.00    -0.365 N 
ATOM      3  HN  LIG     1      -1.838   2.138   0.017  1.00  0.00     0.165 HD
HETATM    4  C   LIG     1      -2.363   0.081   0.000  1.00  0.00     0.097 A 
HETATM    5  C   LIG     1      -0.219  -0.636   0.002  1.00  0.00    -0.001 A 
HETATM    6  C   LIG     1      -0.216   0.759   0.005  1.00  0.00     0.042 A 
HETATM    7  C   LIG     1       1.021  -1.309   0.003  1.00  0.00     0.014 A 
HETATM    8  C   LIG     1       0.962   1.516   0.008  1.00  0.00     0.030 A 
HETATM    9  C   LIG     1       2.208  -0.568   0.007  1.00  0.00     0.001 A 
HETATM   10  C   LIG     1       2.177   0.824   0.009  1.00  0.00     0.002 A 
ENDROOT
BRANCH   1  11
HETATM   11  C   LIG     1      -2.081  -2.474  -0.016  1.00  0.00     0.154 C 
BRANCH  11  12
HETATM   12  C   LIG     1      -2.254  -3.044   1.371  1.00  0.00     0.177 C 
HETATM   13  O   LIG     1      -2.605  -2.466   2.386  1.00  0.00    -0.648 OA
HETATM   14  O   LIG     1      -2.046  -4.380   1.404  1.00  0.00    -0.648 OA
ENDBRANCH  11  12
ENDBRANCH   1  11
TORSDOF 2
