REMARK  2 active torsions:
REMARK  status: ('A' for Active; 'I' for Inactive)
REMARK    1  A    between atoms: C_1  and  C_3 
REMARK    2  A    between atoms: C_3  and  C_4 
ROOT
HETATM    1  C   LIG     1       0.497  -1.973  -1.982  1.00  0.00    -0.048 A 
HETATM    2  C   LIG     1       0.821  -2.599  -4.685  1.00  0.00     0.116 A 
HETATM    3  F   LIG     1       0.982  -2.899  -5.980  1.00  0.00    -0.206 F 
HETATM    4  C   LIG     1       0.723  -3.623  -3.751  1.00  0.00     0.043 A 
HETATM    5  C   LIG     1       0.753  -1.268  -4.293  1.00  0.00     0.043 A 
HETATM    6  C   LIG     1       0.590  -0.953  -2.943  1.00  0.00     0.011 A 
HETATM    7  C   LIG     1       0.555  -3.312  -2.401  1.00  0.00     0.011 A 
ENDROOT
BRANCH   1   8
HETATM    8  C   LIG     1       0.319  -1.634  -0.520  1.00  0.00     0.151 C 
BRANCH   8   9
HETATM    9  C   LIG     1      -1.121  -1.523  -0.080  1.00  0.00     0.176 C 
HETATM   10  O   LIG     1      -2.130  -1.640  -0.753  1.00  0.00    -0.648 OA
HETATM   11  O   LIG     1      -1.220  -1.261   1.242  1.00  0.00    -0.648 OA
ENDBRANCH   8   9
ENDBRANCH   1   8
TORSDOF 2
