REMARK  1 active torsions:
REMARK  status: ('A' for Active; 'I' for Inactive)
REMARK    1  A    between atoms: C_1  and  N_5 
ROOT
HETATM    1  C   LIG     1       1.085  -1.429   0.084  1.00  0.00     0.044 A 
HETATM    2  C   LIG     1      -0.083  -0.633   0.231  1.00  0.00     0.017 A 
HETATM    3  N   LIG     1       1.159   1.310  -0.532  1.00  0.00    -0.359 N 
ATOM      4  HN  LIG     1       1.184   2.300  -0.776  1.00  0.00     0.166 HD
HETATM    5  C   LIG     1       0.020   0.734  -0.121  1.00  0.00     0.044 A 
HETATM    6  C   LIG     1       2.268  -0.801  -0.325  1.00  0.00     0.054 A 
HETATM    7  C   LIG     1       2.270   0.551  -0.616  1.00  0.00     0.007 A 
HETATM    8  C   LIG     1      -1.330  -1.097   0.722  1.00  0.00     0.016 A 
HETATM    9  C   LIG     1      -1.104   1.546  -0.034  1.00  0.00     0.030 A 
HETATM   10  C   LIG     1       3.538   1.227  -1.043  1.00  0.00     0.068 C 
HETATM   11  C   LIG     1      -2.444  -0.261   0.804  1.00  0.00     0.001 A 
HETATM   12  C   LIG     1      -2.334   1.064   0.414  1.00  0.00     0.002 A 
ENDROOT
BRANCH   1  13
HETATM   13  N   LIG     1       1.181  -2.806   0.301  1.00  0.00    -0.377 N 
HETATM   14  C   LIG     1       1.486  -3.218   1.678  1.00  0.00     0.150 C 
HETATM   15  C   LIG     1       2.014  -4.674   1.675  1.00  0.00     0.252 C 
HETATM   16  N   LIG     1       1.116  -5.634   0.994  1.00  0.00    -0.072 N 
HETATM   17  C   LIG     1       0.863  -5.153  -0.384  1.00  0.00     0.252 C 
ATOM     18  HN2 LIG     1       0.254  -5.798   1.514  1.00  0.00     0.277 HD
ATOM     19  HN1 LIG     1       1.477  -6.588   1.014  1.00  0.00     0.277 HD
HETATM   20  C   LIG     1       0.295  -3.714  -0.442  1.00  0.00     0.150 C 
ENDBRANCH   1  13
TORSDOF 1
