REMARK  2 active torsions:
REMARK  status: ('A' for Active; 'I' for Inactive)
REMARK    1  A    between atoms: S_1  and  C_2 
REMARK    2  A    between atoms: S_1  and  N_8 
ROOT
HETATM    1  C   LIG     1       0.369  -1.869  -0.098  1.00  0.00     0.082 A 
HETATM    2  C   LIG     1      -0.992  -2.063  -0.357  1.00  0.00     0.065 A 
HETATM    3  C   LIG     1      -1.484  -3.358  -0.490  1.00  0.00     0.103 A 
HETATM    4  C   LIG     1      -0.628  -4.455  -0.336  1.00  0.00     0.102 A 
HETATM    5  O   LIG     1      -2.821  -3.483  -0.765  1.00  0.00    -0.346 OA
HETATM    6  O   LIG     1      -1.053  -5.756  -0.421  1.00  0.00    -0.346 OA
HETATM    7  C   LIG     1       1.235  -2.959   0.030  1.00  0.00     0.028 A 
HETATM    8  C   LIG     1       0.730  -4.256  -0.092  1.00  0.00     0.041 A 
HETATM    9  C   LIG     1      -3.142  -4.805  -1.214  1.00  0.00     0.202 C 
HETATM   10  C   LIG     1      -2.479  -5.847  -0.329  1.00  0.00     0.202 C 
ENDROOT
BRANCH   1  11
HETATM   11  S   LIG     1       0.943  -0.206   0.051  1.00  0.00     0.256 S 
HETATM   12  O   LIG     1       0.379   0.363   1.252  1.00  0.00    -0.201 OA
HETATM   13  O   LIG     1       0.841   0.429  -1.242  1.00  0.00    -0.201 OA
BRANCH  11  14
HETATM   14  N   LIG     1       2.592  -0.340   0.353  1.00  0.00    -0.324 N 
ATOM     15  HN2 LIG     1       3.130  -1.203   0.431  1.00  0.00     0.169 HD
ATOM     16  HN1 LIG     1       2.924   0.621   0.439  1.00  0.00     0.169 HD
ENDBRANCH  11  14
ENDBRANCH   1  11
TORSDOF 2
