REMARK  3 active torsions:
REMARK  status: ('A' for Active; 'I' for Inactive)
REMARK    1  A    between atoms: C_2  and  C_8 
REMARK    2  A    between atoms: C_3  and  C_9 
REMARK    3  A    between atoms: C_8  and  C_9 
ROOT
HETATM    1  S   LIG     1       0.474   1.089   0.657  1.00  0.00    -0.106 SA
HETATM    2  C   LIG     1       0.580  -0.424  -0.142  1.00  0.00    -0.017 A 
HETATM    3  C   LIG     1      -1.216   1.172   0.412  1.00  0.00     0.050 A 
HETATM    4  C   LIG     1      -0.660  -0.860  -0.565  1.00  0.00     0.015 A 
HETATM    5  C   LIG     1      -1.698   0.064  -0.247  1.00  0.00     0.008 A 
ENDROOT
BRANCH   2   6
HETATM    6  C   LIG     1       1.907  -1.113  -0.291  1.00  0.00     0.056 C 
BRANCH   6   7
HETATM    7  C   LIG     1       2.631  -0.686  -1.563  1.00  0.00     0.118 C 
BRANCH   7   8
HETATM    8  C   LIG     1       3.946  -1.407  -1.677  1.00  0.00     0.172 C 
HETATM    9  O   LIG     1       4.213  -2.518  -1.249  1.00  0.00    -0.648 OA
HETATM   10  O   LIG     1       4.862  -0.697  -2.370  1.00  0.00    -0.648 OA
ENDBRANCH   7   8
ENDBRANCH   6   7
ENDBRANCH   2   6
TORSDOF 3
