REMARK  1 active torsions:
REMARK  status: ('A' for Active; 'I' for Inactive)
REMARK    1  A    between atoms: C_1  and  N_8 
ROOT
HETATM    1  C   LIG     1       2.452   0.052  -0.006  1.00  0.00     0.143 A 
HETATM    2  N   LIG     1       1.598   1.044  -0.001  1.00  0.00    -0.336 N 
ATOM      3  HN  LIG     1       1.851   2.032   0.001  1.00  0.00     0.168 HD
HETATM    4  S   LIG     1       1.767  -1.520  -0.000  1.00  0.00    -0.052 SA
HETATM    5  C   LIG     1       0.188  -0.835   0.001  1.00  0.00     0.038 A 
HETATM    6  C   LIG     1       0.303   0.557   0.001  1.00  0.00     0.051 A 
HETATM    7  C   LIG     1      -1.059  -1.480   0.001  1.00  0.00     0.063 A 
HETATM    8  C   LIG     1      -0.874   1.337   0.001  1.00  0.00     0.034 A 
HETATM    9  C   LIG     1      -2.199  -0.679   0.001  1.00  0.00     0.117 A 
HETATM   10  C   LIG     1      -2.123   0.706   0.001  1.00  0.00     0.044 A 
HETATM   11  F   LIG     1      -3.404  -1.265   0.001  1.00  0.00    -0.206 F 
ENDROOT
BRANCH   1  12
HETATM   12  N   LIG     1       3.776   0.230  -0.016  1.00  0.00    -0.380 N 
ATOM     13  HN2 LIG     1       4.183   1.165  -0.020  1.00  0.00     0.158 HD
ATOM     14  HN1 LIG     1       4.441  -0.543  -0.020  1.00  0.00     0.158 HD
ENDBRANCH   1  12
TORSDOF 1
