REMARK  2 active torsions:
REMARK  status: ('A' for Active; 'I' for Inactive)
REMARK    1  A    between atoms: C_4  and  C_9 
REMARK    2  A    between atoms: C_8  and  O_10 
ROOT
HETATM    1  N   LIG     1       0.617   1.412   0.111  1.00  0.00    -0.058 N 
ATOM      2  HN1 LIG     1       0.169   2.265  -0.223  1.00  0.00     0.279 HD
ATOM      3  HN2 LIG     1       0.877   1.718   1.049  1.00  0.00     0.279 HD
HETATM    4  C   LIG     1       1.808   1.094  -0.689  1.00  0.00     0.222 C 
HETATM    5  C   LIG     1      -0.341   0.301   0.166  1.00  0.00     0.129 C 
HETATM    6  C   LIG     1       2.572  -0.084  -0.067  1.00  0.00     0.069 C 
HETATM    7  C   LIG     1       0.347  -0.955   0.756  1.00  0.00     0.070 C 
HETATM    8  C   LIG     1       1.675  -1.307   0.085  1.00  0.00     0.122 C 
HETATM    9  C   LIG     1      -1.063   0.051  -1.172  1.00  0.00     0.039 C 
HETATM   10  C   LIG     1      -1.539   0.711   1.047  1.00  0.00     0.039 C 
HETATM   11  C   LIG     1      -2.677  -0.220   0.634  1.00  0.00     0.002 C 
HETATM   12  C   LIG     1      -2.358  -0.664  -0.793  1.00  0.00     0.002 C 
ENDROOT
BRANCH   4  13
HETATM   13  C   LIG     1       2.705   2.317  -0.812  1.00  0.00    -0.028 A 
HETATM   14  C   LIG     1       3.157   3.011   0.323  1.00  0.00     0.009 A 
HETATM   15  C   LIG     1       3.981   4.131   0.194  1.00  0.00     0.001 A 
HETATM   16  C   LIG     1       4.363   4.573  -1.071  1.00  0.00     0.000 A 
HETATM   17  C   LIG     1       3.922   3.897  -2.206  1.00  0.00     0.001 A 
HETATM   18  C   LIG     1       3.099   2.776  -2.079  1.00  0.00     0.009 A 
ENDBRANCH   4  13
BRANCH   8  19
HETATM   19  O   LIG     1       1.437  -1.908  -1.186  1.00  0.00    -0.395 OA
ATOM     20  HO  LIG     1       0.878  -2.670  -1.091  1.00  0.00     0.210 HD
ENDBRANCH   8  19
TORSDOF 2
