REMARK  5 active torsions:
REMARK  status: ('A' for Active; 'I' for Inactive)
REMARK    1  A    between atoms: C_1  and  S_9 
REMARK    2  A    between atoms: S_9  and  C_10 
REMARK    3  A    between atoms: C_10  and  C_11 
REMARK    4  A    between atoms: C_11  and  C_13 
REMARK    5  A    between atoms: C_12  and  C_13 
ROOT
HETATM    1  C   LIG     1      -1.732  -4.550  -1.530  1.00  0.00     0.160 A 
HETATM    2  N   LIG     1      -1.554  -4.937  -2.824  1.00  0.00    -0.331 N 
ATOM      3  HN  LIG     1      -1.964  -4.514  -3.657  1.00  0.00     0.168 HD
HETATM    4  N   LIG     1      -1.047  -5.330  -0.731  1.00  0.00    -0.279 N 
ATOM      5  HN  LIG     1      -1.000  -5.263   0.286  1.00  0.00     0.189 HD
HETATM    6  N   LIG     1      -0.399  -6.260  -1.522  1.00  0.00    -0.294 N 
ATOM      7  HN  LIG     1       0.213  -7.007  -1.194  1.00  0.00     0.187 HD
HETATM    8  C   LIG     1      -0.714  -6.007  -2.772  1.00  0.00     0.199 A 
ENDROOT
BRANCH   1   9
HETATM    9  S   LIG     1      -2.745  -3.215  -1.141  1.00  0.00    -0.092 SA
BRANCH   9  10
HETATM   10  C   LIG     1      -2.555  -3.155   0.673  1.00  0.00     0.082 C 
BRANCH  10  11
HETATM   11  C   LIG     1      -3.371  -2.033   1.327  1.00  0.00     0.010 C 
BRANCH  11  12
HETATM   12  C   LIG     1      -2.984  -0.617   0.879  1.00  0.00     0.000 C 
BRANCH  12  13
HETATM   13  C   LIG     1      -3.831   0.447   1.582  1.00  0.00    -0.005 C 
HETATM   14  C   LIG     1      -3.476   1.851   1.115  1.00  0.00     0.005 C 
ENDBRANCH  12  13
ENDBRANCH  11  12
ENDBRANCH  10  11
ENDBRANCH   9  10
ENDBRANCH   1   9
TORSDOF 5
