REMARK  0 active torsions:
REMARK  status: ('A' for Active; 'I' for Inactive)
ROOT
HETATM    1  C   LIG     1       0.013  -0.746   0.057  1.00  0.00     0.018 A 
HETATM    2  N   LIG     1       1.163   1.359   0.027  1.00  0.00    -0.300 N 
ATOM      3  HN  LIG     1       1.131   2.378   0.046  1.00  0.00     0.187 HD
HETATM    4  N   LIG     1       2.377   0.722  -0.009  1.00  0.00    -0.305 N 
ATOM      5  HN  LIG     1       3.240   1.265  -0.013  1.00  0.00     0.186 HD
HETATM    6  C   LIG     1       0.016   0.661   0.037  1.00  0.00     0.060 A 
HETATM    7  C   LIG     1       1.268  -1.381   0.007  1.00  0.00     0.041 A 
HETATM    8  C   LIG     1      -1.225  -1.446   0.112  1.00  0.00     0.059 C 
HETATM    9  C   LIG     1       2.425  -0.621  -0.039  1.00  0.00     0.022 A 
HETATM   10  N   LIG     1      -1.290  -2.855   0.079  1.00  0.00    -0.102 NA
HETATM   11  C   LIG     1      -2.409   0.662  -0.052  1.00  0.00     0.004 C 
HETATM   12  C   LIG     1      -2.420  -0.727  -0.015  1.00  0.00     0.027 C 
HETATM   13  C   LIG     1      -1.194   1.342  -0.001  1.00  0.00     0.032 C 
HETATM   14  C   LIG     1       3.768  -1.270  -0.147  1.00  0.00     0.070 C 
ENDROOT
TORSDOF 0
