REMARK  1 active torsions:
REMARK  status: ('A' for Active; 'I' for Inactive)
REMARK    1  A    between atoms: C_1  and  C_3 
ROOT
HETATM    1  C   LIG     1      -0.339  -2.212  -2.759  1.00  0.00     0.043 A 
HETATM    2  C   LIG     1       0.321  -0.497  -1.225  1.00  0.00     0.043 A 
HETATM    3  N   LIG     1      -0.559  -3.451  -3.321  1.00  0.00    -0.365 N 
ATOM      4  HN  LIG     1      -0.318  -4.341  -2.885  1.00  0.00     0.165 HD
HETATM    5  C   LIG     1       0.237  -1.865  -1.530  1.00  0.00     0.048 A 
HETATM    6  C   LIG     1      -1.148  -3.314  -4.550  1.00  0.00     0.089 A 
HETATM    7  C   LIG     1      -0.825  -1.262  -3.659  1.00  0.00    -0.008 A 
HETATM    8  C   LIG     1      -1.328  -1.970  -4.784  1.00  0.00     0.030 A 
HETATM    9  C   LIG     1      -0.178   0.475  -2.096  1.00  0.00     0.019 A 
HETATM   10  C   LIG     1      -0.748   0.103  -3.319  1.00  0.00     0.015 A 
ENDROOT
BRANCH   2  11
HETATM   11  C   LIG     1       0.923  -0.048   0.051  1.00  0.00     0.209 C 
HETATM   12  O   LIG     1       0.446   0.829   0.747  1.00  0.00    -0.644 OA
HETATM   13  O   LIG     1       2.084  -0.679   0.326  1.00  0.00    -0.644 OA
ENDBRANCH   2  11
TORSDOF 1
