REMARK  2 active torsions:
REMARK  status: ('A' for Active; 'I' for Inactive)
REMARK    1  A    between atoms: C_1  and  C_2 
REMARK    2  A    between atoms: C_14  and  O_16 
ROOT
HETATM    1  C   LIG     1       1.247   1.436   0.060  1.00  0.00     0.066 A 
HETATM    2  C   LIG     1      -0.022  -0.678   0.026  1.00  0.00     0.093 A 
HETATM    3  C   LIG     1      -0.036   0.720  -0.000  1.00  0.00     0.013 A 
HETATM    4  O   LIG     1       1.184  -1.401   0.106  1.00  0.00    -0.275 OA
HETATM    5  C   LIG     1       2.403  -0.754   0.162  1.00  0.00     0.289 A 
HETATM    6  C   LIG     1       2.376   0.713   0.136  1.00  0.00     0.099 A 
HETATM    7  C   LIG     1      -1.191  -1.437  -0.025  1.00  0.00     0.074 A 
HETATM    8  C   LIG     1      -1.285   1.354  -0.082  1.00  0.00     0.018 A 
HETATM    9  O   LIG     1       3.468  -1.356   0.231  1.00  0.00    -0.260 OA
HETATM   10  C   LIG     1      -2.411  -0.783  -0.106  1.00  0.00     0.068 A 
HETATM   11  C   LIG     1      -2.469   0.606  -0.135  1.00  0.00     0.037 A 
ENDROOT
BRANCH   1  12
HETATM   12  C   LIG     1       1.274   2.933   0.037  1.00  0.00     0.418 C 
HETATM   13  F   LIG     1       0.594   3.470   1.082  1.00  0.00    -0.166 F 
HETATM   14  F   LIG     1       2.536   3.432   0.102  1.00  0.00    -0.166 F 
HETATM   15  F   LIG     1       0.721   3.434  -1.096  1.00  0.00    -0.166 F 
ENDBRANCH   1  12
BRANCH  10  16
HETATM   16  O   LIG     1      -3.540  -1.543  -0.155  1.00  0.00    -0.361 OA
ATOM     17  HO  LIG     1      -4.376  -1.095  -0.210  1.00  0.00     0.217 HD
ENDBRANCH  10  16
TORSDOF 2
