REMARK  2 active torsions:
REMARK  status: ('A' for Active; 'I' for Inactive)
REMARK    1  A    between atoms: N_1  and  C_2 
REMARK    2  A    between atoms: C_3  and  O_5 
ROOT
HETATM    1  C   LIG     1       0.996   2.416  -0.822  1.00  0.00     0.044 A 
HETATM    2  C   LIG     1       0.473   3.335  -1.747  1.00  0.00     0.087 A 
HETATM    3  C   LIG     1       2.183   2.752  -0.163  1.00  0.00     0.026 A 
HETATM    4  C   LIG     1       1.092   4.545  -2.023  1.00  0.00     0.038 A 
HETATM    5  C   LIG     1       2.819   3.969  -0.433  1.00  0.00     0.002 A 
HETATM    6  C   LIG     1       2.275   4.863  -1.360  1.00  0.00     0.003 A 
ENDROOT
BRANCH   1   7
HETATM    7  N   LIG     1       0.274   1.214  -0.613  1.00  0.00    -0.277 NA
HETATM    8  C   LIG     1       1.087   0.008  -0.910  1.00  0.00     0.122 C 
HETATM    9  C   LIG     1       0.221  -1.247  -0.709  1.00  0.00     0.182 C 
HETATM   10  O   LIG     1      -0.303  -1.310   0.630  1.00  0.00    -0.389 OA
HETATM   11  C   LIG     1      -1.103  -0.148   0.910  1.00  0.00     0.182 C 
HETATM   12  C   LIG     1      -0.285   1.145   0.762  1.00  0.00     0.122 C 
ENDBRANCH   1   7
BRANCH   2  13
HETATM   13  O   LIG     1      -0.690   3.012  -2.395  1.00  0.00    -0.359 OA
ATOM     14  HO  LIG     1      -1.044   3.633  -3.020  1.00  0.00     0.217 HD
ENDBRANCH   2  13
TORSDOF 2
