REMARK  5 active torsions:
REMARK  status: ('A' for Active; 'I' for Inactive)
REMARK    1  A    between atoms: C_1  and  C_2 
REMARK    2  A    between atoms: C_2  and  C_9 
REMARK    3  A    between atoms: C_4  and  S_6 
REMARK    4  A    between atoms: C_5  and  C_8 
REMARK    5  A    between atoms: S_6  and  C_9 
ROOT
HETATM    1  C   LIG     1      -0.213   1.624   0.173  1.00  0.00     0.045 C 
HETATM    2  C   LIG     1       0.428   2.533  -0.578  1.00  0.00     0.018 C 
ENDROOT
BRANCH   1   3
HETATM    3  S   LIG     1      -0.267   1.710   1.903  1.00  0.00    -0.141 SA
BRANCH   3   4
HETATM    4  C   LIG     1      -1.290   0.231   2.244  1.00  0.00     0.089 C 
BRANCH   4   5
HETATM    5  C   LIG     1      -1.489   0.057   3.743  1.00  0.00     0.123 C 
BRANCH   5   6
HETATM    6  C   LIG     1      -2.328  -1.175   4.008  1.00  0.00     0.173 C 
HETATM    7  O   LIG     1      -2.372  -2.156   3.288  1.00  0.00    -0.648 OA
HETATM    8  O   LIG     1      -3.021  -1.099   5.172  1.00  0.00    -0.648 OA
ENDBRANCH   5   6
ENDBRANCH   4   5
ENDBRANCH   3   4
ENDBRANCH   1   3
BRANCH   2   9
HETATM    9  C   LIG     1       0.467   2.476  -2.052  1.00  0.00    -0.036 A 
HETATM   10  C   LIG     1      -0.587   1.925  -2.798  1.00  0.00     0.011 A 
HETATM   11  C   LIG     1      -0.546   1.898  -4.193  1.00  0.00     0.001 A 
HETATM   12  C   LIG     1       0.544   2.440  -4.867  1.00  0.00     0.000 A 
HETATM   13  C   LIG     1       1.593   3.005  -4.145  1.00  0.00     0.001 A 
HETATM   14  C   LIG     1       1.554   3.027  -2.745  1.00  0.00     0.011 A 
ENDBRANCH   2   9
TORSDOF 5
