REMARK  2 active torsions:
REMARK  status: ('A' for Active; 'I' for Inactive)
REMARK       I    between atoms: C_1  and  N_2 
REMARK       I    between atoms: C_1  and  N_5 
REMARK    1  A    between atoms: N_2  and  C_8 
REMARK    2  A    between atoms: C_8  and  C_10 
ROOT
HETATM    1  C   LIG     1      -0.985   0.780  -0.811  1.00  0.00     0.162 C 
ENDROOT
BRANCH   1   2
HETATM    2  N   LIG     1      -1.012   0.243   0.528  1.00  0.00    -0.339 N 
HETATM    3  C   LIG     1      -0.837  -1.092   0.724  1.00  0.00     0.314 C 
HETATM    4  O   LIG     1      -0.747  -1.937  -0.151  1.00  0.00    -0.248 OA
HETATM    5  N   LIG     1      -0.772  -1.412   2.041  1.00  0.00    -0.352 N 
ATOM      6  HN2 LIG     1      -0.847  -0.705   2.773  1.00  0.00     0.160 HD
ATOM      7  HN1 LIG     1      -0.641  -2.413   2.188  1.00  0.00     0.160 HD
ATOM      8  HN  LIG     1      -1.162   0.862   1.325  1.00  0.00     0.164 HD
ENDBRANCH   1   2
BRANCH   1   9
HETATM    9  C   LIG     1      -1.553   2.175  -0.833  1.00  0.00    -0.040 A 
HETATM   10  C   LIG     1      -2.938   2.363  -0.976  1.00  0.00     0.012 A 
HETATM   11  C   LIG     1      -3.480   3.648  -0.982  1.00  0.00     0.043 A 
HETATM   12  C   LIG     1      -2.640   4.744  -0.833  1.00  0.00     0.116 A 
HETATM   13  C   LIG     1      -1.269   4.580  -0.672  1.00  0.00     0.043 A 
HETATM   14  F   LIG     1      -3.160   5.979  -0.840  1.00  0.00    -0.206 F 
HETATM   15  C   LIG     1      -0.723   3.295  -0.668  1.00  0.00     0.012 A 
ENDBRANCH   1   9
TORSDOF 2
