REMARK  1 active torsions:
REMARK  status: ('A' for Active; 'I' for Inactive)
REMARK    1  A    between atoms: C_2  and  O_8 
ROOT
HETATM    1  C   LIG     1      -1.363  -0.076   0.002  1.00  0.00     0.116 A 
HETATM    2  C   LIG     1       1.397   0.078  -0.033  1.00  0.00     0.065 A 
HETATM    3  F   LIG     1      -2.700  -0.153   0.015  1.00  0.00    -0.206 F 
HETATM    4  C   LIG     1      -0.749   1.172  -0.003  1.00  0.00     0.045 A 
HETATM    5  C   LIG     1      -0.611  -1.247  -0.008  1.00  0.00     0.045 A 
HETATM    6  C   LIG     1       0.643   1.249  -0.019  1.00  0.00     0.039 A 
HETATM    7  C   LIG     1       0.783  -1.173  -0.025  1.00  0.00     0.039 A 
ENDROOT
BRANCH   2   8
HETATM    8  O   LIG     1       2.755   0.201  -0.055  1.00  0.00    -0.361 OA
ATOM      9  HO  LIG     1       3.174   1.054  -0.060  1.00  0.00     0.217 HD
ENDBRANCH   2   8
TORSDOF 1
