REMARK  2 active torsions:
REMARK  status: ('A' for Active; 'I' for Inactive)
REMARK    1  A    between atoms: C_1  and  C_3 
REMARK    2  A    between atoms: C_2  and  C_4 
ROOT
HETATM    1  C   LIG     1       0.558  -1.078  -0.849  1.00  0.00     0.048 A 
HETATM    2  C   LIG     1       0.098  -3.214  -2.627  1.00  0.00     0.040 A 
HETATM    3  C   LIG     1       0.734  -2.405  -0.429  1.00  0.00     0.017 A 
HETATM    4  C   LIG     1       0.148  -0.833  -2.170  1.00  0.00     0.017 A 
HETATM    5  C   LIG     1      -0.081  -1.893  -3.054  1.00  0.00     0.019 A 
HETATM    6  C   LIG     1       0.506  -3.465  -1.311  1.00  0.00     0.019 A 
ENDROOT
BRANCH   1   7
HETATM    7  C   LIG     1       0.802   0.080   0.090  1.00  0.00     0.417 C 
HETATM    8  F   LIG     1       1.193  -0.302   1.337  1.00  0.00    -0.166 F 
HETATM    9  F   LIG     1      -0.309   0.848   0.266  1.00  0.00    -0.166 F 
HETATM   10  F   LIG     1       1.771   0.921  -0.364  1.00  0.00    -0.166 F 
ENDBRANCH   1   7
BRANCH   2  11
HETATM   11  C   LIG     1      -0.131  -4.371  -3.526  1.00  0.00     0.209 C 
HETATM   12  O   LIG     1       0.003  -5.543  -3.226  1.00  0.00    -0.644 OA
HETATM   13  O   LIG     1      -0.516  -4.004  -4.760  1.00  0.00    -0.644 OA
ENDBRANCH   2  11
TORSDOF 2
