REMARK  1 active torsions:
REMARK  status: ('A' for Active; 'I' for Inactive)
REMARK    1  A    between atoms: C_5  and  C_6 
ROOT
HETATM    1  N   LIG     1       3.785  -1.082  -2.345  1.00  0.00    -0.197 NA
HETATM    2  C   LIG     1       3.696  -0.586  -1.299  1.00  0.00     0.065 C 
HETATM    3  C   LIG     1       3.606   0.004   0.042  1.00  0.00     0.180 C 
ENDROOT
BRANCH   3   4
HETATM    4  C   LIG     1       4.232   1.374   0.112  1.00  0.00     0.022 A 
HETATM    5  N   LIG     1       3.398   2.419   0.345  1.00  0.00    -0.368 N 
HETATM    6  C   LIG     1       3.946   3.653   0.412  1.00  0.00     0.088 A 
ATOM      7  HN  LIG     1       2.395   2.279   0.465  1.00  0.00     0.165 HD
HETATM    8  C   LIG     1       5.299   3.903   0.267  1.00  0.00     0.017 A 
HETATM    9  C   LIG     1       6.144   2.824   0.037  1.00  0.00     0.003 A 
HETATM   10  C   LIG     1       5.609   1.541  -0.040  1.00  0.00     0.026 A 
ENDBRANCH   3   4
TORSDOF 1
