REMARK  1 active torsions:
REMARK  status: ('A' for Active; 'I' for Inactive)
REMARK    1  A    between atoms: N_1  and  C_6 
ROOT
HETATM    1  N   LIG     1      -0.450   1.035   0.295  1.00  0.00    -0.224 N 
HETATM    2  C   LIG     1      -1.296  -0.085   0.256  1.00  0.00     0.248 A 
HETATM    3  N   LIG     1       0.889   0.725   0.126  1.00  0.00    -0.299 N 
ATOM      4  HN  LIG     1       1.672   1.379   0.120  1.00  0.00     0.187 HD
HETATM    5  C   LIG     1      -0.375  -1.247   0.034  1.00  0.00     0.158 A 
HETATM    6  C   LIG     1       0.949  -0.561  -0.023  1.00  0.00     0.009 A 
HETATM    7  O   LIG     1      -2.508  -0.179   0.368  1.00  0.00    -0.271 OA
HETATM    8  C   LIG     1       2.215  -1.315  -0.232  1.00  0.00     0.065 C 
ENDROOT
BRANCH   1   9
HETATM    9  C   LIG     1      -0.810   2.394   0.485  1.00  0.00     0.061 A 
HETATM   10  C   LIG     1      -2.141   2.790   0.667  1.00  0.00     0.055 A 
HETATM   11  C   LIG     1      -2.460   4.138   0.851  1.00  0.00     0.036 A 
HETATM   12 CL   LIG     1      -4.104   4.603   1.074  1.00  0.00    -0.084 Cl
HETATM   13  C   LIG     1      -1.467   5.113   0.858  1.00  0.00     0.024 A 
HETATM   14  C   LIG     1      -0.140   4.737   0.679  1.00  0.00     0.004 A 
HETATM   15  C   LIG     1       0.183   3.390   0.494  1.00  0.00     0.032 A 
ENDBRANCH   1   9
TORSDOF 1
