REMARK  0 active torsions:
REMARK  status: ('A' for Active; 'I' for Inactive)
ROOT
HETATM    1  C   LIG     1      -0.038   0.699   0.018  1.00  0.00     0.103 A 
HETATM    2  C   LIG     1       1.170   1.395   0.086  1.00  0.00     0.066 A 
HETATM    3  C   LIG     1      -0.040  -0.697  -0.031  1.00  0.00     0.102 A 
HETATM    4  O   LIG     1      -1.185   1.452   0.025  1.00  0.00    -0.346 OA
HETATM    5  O   LIG     1      -1.187  -1.448  -0.055  1.00  0.00    -0.346 OA
HETATM    6  C   LIG     1       1.166  -1.392  -0.046  1.00  0.00     0.041 A 
HETATM    7  C   LIG     1       2.388   0.710   0.031  1.00  0.00     0.049 A 
HETATM    8  N   LIG     1       3.593   1.397   0.226  1.00  0.00    -0.102 NA
HETATM    9  C   LIG     1       2.373  -0.689   0.009  1.00  0.00     0.029 A 
HETATM   10  C   LIG     1      -2.323   0.674  -0.364  1.00  0.00     0.202 C 
HETATM   11  C   LIG     1      -2.321  -0.670   0.344  1.00  0.00     0.202 C 
ENDROOT
TORSDOF 0
