REMARK  2 active torsions:
REMARK  status: ('A' for Active; 'I' for Inactive)
REMARK    1  A    between atoms: C_3  and  O_9 
REMARK    2  A    between atoms: C_4  and  C_11 
ROOT
HETATM    1  N   LIG     1       1.203  -0.739  -0.124  1.00  0.00    -0.197 NA
HETATM    2  C   LIG     1       2.320  -0.427  -0.073  1.00  0.00     0.063 C 
HETATM    3  C   LIG     1       3.739  -0.053   0.018  1.00  0.00     0.162 C 
ENDROOT
BRANCH   3   4
HETATM    4  C   LIG     1       4.086   1.138  -0.845  1.00  0.00    -0.045 A 
HETATM    5  C   LIG     1       3.918   2.444  -0.358  1.00  0.00     0.011 A 
HETATM    6  C   LIG     1       4.223   3.546  -1.161  1.00  0.00     0.037 A 
HETATM    7  C   LIG     1       4.692   3.342  -2.454  1.00  0.00     0.065 A 
HETATM    8  C   LIG     1       4.858   2.057  -2.956  1.00  0.00     0.037 A 
HETATM    9  C   LIG     1       4.552   0.955  -2.156  1.00  0.00     0.011 A 
BRANCH   7  10
HETATM   10  O   LIG     1       5.002   4.387  -3.272  1.00  0.00    -0.361 OA
ATOM     11  HO  LIG     1       4.889   5.266  -2.929  1.00  0.00     0.217 HD
ENDBRANCH   7  10
ENDBRANCH   3   4
TORSDOF 2
