REMARK  0 active torsions:
REMARK  status: ('A' for Active; 'I' for Inactive)
ROOT
HETATM    1  N   LIG     1      -1.562   1.080   0.037  1.00  0.00    -0.365 N 
ATOM      2  HN  LIG     1      -1.867   2.053   0.043  1.00  0.00     0.165 HD
HETATM    3  C   LIG     1      -2.399  -0.004   0.066  1.00  0.00     0.089 A 
HETATM    4  C   LIG     1      -0.249   0.667  -0.002  1.00  0.00     0.042 A 
HETATM    5  C   LIG     1      -0.258  -0.728   0.007  1.00  0.00    -0.008 A 
HETATM    6  C   LIG     1      -1.619  -1.139   0.051  1.00  0.00     0.030 A 
HETATM    7  C   LIG     1       0.934   1.414  -0.045  1.00  0.00     0.030 A 
HETATM    8  C   LIG     1       0.972  -1.414  -0.027  1.00  0.00     0.014 A 
HETATM    9  C   LIG     1       2.164  -0.682  -0.073  1.00  0.00     0.001 A 
HETATM   10  C   LIG     1       2.142   0.711  -0.083  1.00  0.00     0.002 A 
ENDROOT
TORSDOF 0
