REMARK  0 active torsions:
REMARK  status: ('A' for Active; 'I' for Inactive)
ROOT
HETATM    1  S   LIG     1       1.248  -0.905   0.003  1.00  0.00    -0.066 SA
HETATM    2  C   LIG     1      -0.425  -1.182   0.003  1.00  0.00     0.076 A 
HETATM    3  C   LIG     1       0.996   0.771   0.001  1.00  0.00     0.076 A 
HETATM    4  C   LIG     1      -1.171  -0.030  -0.000  1.00  0.00     0.033 A 
HETATM    5  C   LIG     1      -0.331   1.127  -0.000  1.00  0.00     0.033 A 
HETATM    6 CL   LIG     1      -1.022  -2.792   0.008  1.00  0.00    -0.076 Cl
HETATM    7 CL   LIG     1       2.343   1.836   0.003  1.00  0.00    -0.076 Cl
ENDROOT
TORSDOF 0
