REMARK  1 active torsions:
REMARK  status: ('A' for Active; 'I' for Inactive)
REMARK    1  A    between atoms: C_1  and  C_2 
ROOT
HETATM    1  C   LIG     1      -1.396  -0.138  -0.047  1.00  0.00     0.079 A 
HETATM    2  C   LIG     1      -0.591  -1.278  -0.030  1.00  0.00     0.133 A 
HETATM    3  F   LIG     1      -1.111  -2.513  -0.058  1.00  0.00    -0.205 F 
HETATM    4  C   LIG     1      -0.786   1.126  -0.044  1.00  0.00     0.021 A 
HETATM    5  C   LIG     1       0.799  -1.165   0.000  1.00  0.00     0.043 A 
HETATM    6  C   LIG     1       0.606   1.240  -0.014  1.00  0.00     0.001 A 
HETATM    7  C   LIG     1       1.399   0.094   0.010  1.00  0.00     0.003 A 
ENDROOT
BRANCH   1   8
HETATM    8  C   LIG     1      -2.873  -0.188  -0.080  1.00  0.00     0.212 C 
HETATM    9  O   LIG     1      -3.599   0.772  -0.270  1.00  0.00    -0.644 OA
HETATM   10  O   LIG     1      -3.387  -1.403   0.163  1.00  0.00    -0.644 OA
ENDBRANCH   1   8
TORSDOF 1
