REMARK  0 active torsions:
REMARK  status: ('A' for Active; 'I' for Inactive)
ROOT
HETATM    1  C   LIG     1      -0.255  -1.280  -0.004  1.00  0.00     0.015 A 
HETATM    2  C   LIG     1       0.982  -0.680  -0.011  1.00  0.00     0.172 A 
HETATM    3  N   LIG     1      -0.510   0.991   0.008  1.00  0.00    -0.263 N 
ATOM      4  HN  LIG     1      -0.921   1.924   0.017  1.00  0.00     0.194 HD
HETATM    5  O   LIG     1       0.835   0.670  -0.002  1.00  0.00    -0.220 OA
HETATM    6  C   LIG     1      -1.159  -0.180   0.003  1.00  0.00     0.039 A 
HETATM    7  N   LIG     1       2.230  -1.161  -0.030  1.00  0.00    -0.378 N 
ATOM      8  HN1 LIG     1       3.148  -0.716  -0.035  1.00  0.00     0.158 HD
ATOM      9  HN2 LIG     1       2.340  -2.175  -0.037  1.00  0.00     0.158 HD
HETATM   10  C   LIG     1      -0.579  -2.723  -0.008  1.00  0.00     0.055 C 
HETATM   11  C   LIG     1      -2.640  -0.190   0.002  1.00  0.00     0.071 C 
ENDROOT
TORSDOF 0
