REMARK  1 active torsions:
REMARK  status: ('A' for Active; 'I' for Inactive)
REMARK    1  A    between atoms: C_8  and  O_10 
ROOT
HETATM    1  C   LIG     1      -0.145  -0.806  -0.001  1.00  0.00     0.107 A 
HETATM    2  C   LIG     1       1.141  -1.300  -0.003  1.00  0.00     0.076 A 
HETATM    3  C   LIG     1      -0.402   0.546   0.000  1.00  0.00     0.105 A 
HETATM    4  O   LIG     1      -1.284  -1.550   0.002  1.00  0.00    -0.323 OA
HETATM    5  O   LIG     1      -1.734   0.821   0.003  1.00  0.00    -0.323 OA
HETATM    6  C   LIG     1      -2.286  -0.513   0.015  1.00  0.00     0.352 A 
HETATM    7  C   LIG     1       0.613   1.479  -0.000  1.00  0.00     0.042 A 
HETATM    8  C   LIG     1       2.180  -0.373  -0.003  1.00  0.00     0.068 A 
HETATM    9  C   LIG     1       1.930   1.009  -0.001  1.00  0.00     0.039 A 
ENDROOT
BRANCH   8  10
HETATM   10  O   LIG     1       3.457  -0.856  -0.003  1.00  0.00    -0.361 OA
ATOM     11  HO  LIG     1       4.166  -0.224  -0.003  1.00  0.00     0.217 HD
ENDBRANCH   8  10
TORSDOF 1
