REMARK  0 active torsions:
REMARK  status: ('A' for Active; 'I' for Inactive)
ROOT
HETATM    1  C   LIG     1       1.029   0.047   0.031  1.00  0.00     0.179 C 
HETATM    2  N   LIG     1      -0.130   0.060  -0.015  1.00  0.00    -0.172 NA
HETATM    3  N   LIG     1       2.364   0.031   0.071  1.00  0.00    -0.320 N 
HETATM    4  C   LIG     1       3.200  -1.166  -0.201  1.00  0.00     0.134 C 
HETATM    5  C   LIG     1       3.230   1.229   0.033  1.00  0.00     0.134 C 
HETATM    6  C   LIG     1       4.345   0.844  -0.921  1.00  0.00     0.022 C 
HETATM    7  C   LIG     1       4.555  -0.637  -0.660  1.00  0.00     0.022 C 
ENDROOT
TORSDOF 0
