REMARK  0 active torsions:
REMARK  status: ('A' for Active; 'I' for Inactive)
ROOT
HETATM    1  C   LIG     1      -0.166  -0.803   0.001  1.00  0.00     0.105 A 
HETATM    2  C   LIG     1      -0.422   0.547   0.003  1.00  0.00     0.105 A 
HETATM    3  O   LIG     1      -1.304  -1.547   0.004  1.00  0.00    -0.323 OA
HETATM    4  O   LIG     1      -1.753   0.824   0.007  1.00  0.00    -0.323 OA
HETATM    5  C   LIG     1      -2.306  -0.509   0.016  1.00  0.00     0.352 A 
HETATM    6  C   LIG     1       1.121  -1.299  -0.003  1.00  0.00     0.046 A 
HETATM    7  C   LIG     1       0.594   1.477   0.000  1.00  0.00     0.040 A 
HETATM    8  C   LIG     1       2.183  -0.382  -0.005  1.00  0.00    -0.059 A 
HETATM    9  C   LIG     1       1.911   1.004  -0.003  1.00  0.00     0.010 A 
HETATM   10  C   LIG     1       3.597  -0.885  -0.008  1.00  0.00     0.048 C 
ENDROOT
TORSDOF 0
