REMARK  0 active torsions:
REMARK  status: ('A' for Active; 'I' for Inactive)
ROOT
HETATM    1  N   LIG     1       0.935  -0.682   0.002  1.00  0.00    -0.245 N 
ATOM      2  HN  LIG     1       1.783  -1.249   0.004  1.00  0.00     0.196 HD
HETATM    3  C   LIG     1      -1.241  -0.049  -0.002  1.00  0.00     0.084 A 
HETATM    4  C   LIG     1      -0.325  -1.119  -0.007  1.00  0.00     0.121 A 
HETATM    5  O   LIG     1       0.855   0.700   0.008  1.00  0.00    -0.241 OA
HETATM    6  C   LIG     1      -0.453   1.074   0.004  1.00  0.00     0.076 A 
HETATM    7  N   LIG     1      -0.692  -2.405  -0.022  1.00  0.00    -0.384 N 
ATOM      8  HN1 LIG     1      -1.656  -2.739  -0.029  1.00  0.00     0.157 HD
ATOM      9  HN2 LIG     1      -0.029  -3.180  -0.026  1.00  0.00     0.157 HD
HETATM   10  C   LIG     1      -0.720   2.522   0.004  1.00  0.00     0.079 C 
ENDROOT
TORSDOF 0
