REMARK  1 active torsions:
REMARK  status: ('A' for Active; 'I' for Inactive)
REMARK    1  A    between atoms: C_1  and  C_2 
ROOT
HETATM    1  C   LIG     1       0.612  -1.024  -1.124  1.00  0.00     0.048 A 
HETATM    2  C   LIG     1       0.705  -2.406  -0.915  1.00  0.00     0.018 A 
HETATM    3  C   LIG     1       0.261  -0.561  -2.401  1.00  0.00     0.018 A 
HETATM    4  C   LIG     1       0.184  -2.836  -3.250  1.00  0.00     0.046 A 
HETATM    5  N   LIG     1      -0.172  -3.736  -4.261  1.00  0.00    -0.102 NA
HETATM    6  C   LIG     1       0.029  -1.462  -3.444  1.00  0.00     0.027 A 
HETATM    7  C   LIG     1       0.471  -3.300  -1.964  1.00  0.00     0.027 A 
ENDROOT
BRANCH   1   8
HETATM    8  C   LIG     1       0.856  -0.042  -0.006  1.00  0.00     0.417 C 
HETATM    9  F   LIG     1       1.198  -0.631   1.175  1.00  0.00    -0.166 F 
HETATM   10  F   LIG     1      -0.237   0.725   0.264  1.00  0.00    -0.166 F 
HETATM   11  F   LIG     1       1.863   0.831  -0.289  1.00  0.00    -0.166 F 
ENDBRANCH   1   8
TORSDOF 1
