REMARK  1 active torsions:
REMARK  status: ('A' for Active; 'I' for Inactive)
REMARK    1  A    between atoms: C_1  and  O_8 
ROOT
HETATM    1  C   LIG     1       1.269  -0.729   0.036  1.00  0.00     0.145 A 
HETATM    2  C   LIG     1       1.234   0.609  -0.077  1.00  0.00     0.085 A 
HETATM    3  C   LIG     1      -0.016  -1.475   0.104  1.00  0.00     0.209 A 
HETATM    4  C   LIG     1      -1.256  -0.685   0.049  1.00  0.00     0.082 A 
HETATM    5  O   LIG     1       0.045   1.329  -0.096  1.00  0.00    -0.324 OA
HETATM    6  C   LIG     1      -1.144   0.642  -0.035  1.00  0.00     0.146 A 
HETATM    7  O   LIG     1      -0.020  -2.697   0.194  1.00  0.00    -0.285 OA
HETATM    8  C   LIG     1       2.453   1.467  -0.213  1.00  0.00     0.079 C 
ENDROOT
BRANCH   1   9
HETATM    9  O   LIG     1       2.441  -1.459   0.079  1.00  0.00    -0.355 OA
ATOM     10  HO  LIG     1       2.466  -2.405   0.159  1.00  0.00     0.218 HD
ENDBRANCH   1   9
TORSDOF 1
