REMARK  0 active torsions:
REMARK  status: ('A' for Active; 'I' for Inactive)
ROOT
HETATM    1  C   LIG     1      -0.690   1.226  -0.000  1.00  0.00     0.049 A 
HETATM    2  C   LIG     1       1.397  -0.008   0.006  1.00  0.00     0.037 A 
HETATM    3  C   LIG     1      -0.682  -1.199   0.008  1.00  0.00     0.037 A 
HETATM    4  C   LIG     1      -1.379   0.011  -0.030  1.00  0.00     0.050 A 
HETATM    5  C   LIG     1       0.707   1.205  -0.032  1.00  0.00     0.050 A 
HETATM    6  C   LIG     1       0.709  -1.216   0.035  1.00  0.00     0.047 A 
HETATM    7  N   LIG     1      -1.380   2.431  -0.175  1.00  0.00    -0.102 NA
HETATM    8 CL   LIG     1      -1.552  -2.684   0.005  1.00  0.00    -0.084 Cl
HETATM    9 CL   LIG     1       3.119  -0.009   0.002  1.00  0.00    -0.084 Cl
ENDROOT
TORSDOF 0
