REMARK  1 active torsions:
REMARK  status: ('A' for Active; 'I' for Inactive)
REMARK    1  A    between atoms: C_1  and  C_6 
ROOT
HETATM    1  N   LIG     1      -2.537   1.019  -0.520  1.00  0.00    -0.075 N 
ATOM      2  HN1 LIG     1      -2.960   1.197  -1.431  1.00  0.00     0.277 HD
ATOM      3  HN2 LIG     1      -3.342   1.227   0.071  1.00  0.00     0.277 HD
HETATM    4  C   LIG     1       0.226   0.230  -1.133  1.00  0.00     0.090 C 
HETATM    5  C   LIG     1      -2.121  -0.377  -0.387  1.00  0.00     0.233 C 
HETATM    6  C   LIG     1      -1.428   1.935  -0.256  1.00  0.00     0.233 C 
HETATM    7  C   LIG     1      -0.966  -0.717  -1.330  1.00  0.00     0.043 C 
HETATM    8  C   LIG     1      -0.255   1.685  -1.202  1.00  0.00     0.043 C 
ENDROOT
BRANCH   4   9
HETATM    9  C   LIG     1       0.955  -0.086   0.160  1.00  0.00     0.177 C 
HETATM   10  O   LIG     1       0.888  -1.122   0.801  1.00  0.00    -0.648 OA
HETATM   11  O   LIG     1       1.807   0.883   0.545  1.00  0.00    -0.648 OA
ENDBRANCH   4   9
TORSDOF 1
