REMARK  0 active torsions:
REMARK  status: ('A' for Active; 'I' for Inactive)
ROOT
HETATM    1  O   LIG     1       1.191   1.423  -0.002  1.00  0.00    -0.275 OA
HETATM    2  C   LIG     1       2.430   0.798  -0.033  1.00  0.00     0.288 A 
HETATM    3  C   LIG     1      -0.001   0.673   0.013  1.00  0.00     0.089 A 
HETATM    4  C   LIG     1       0.027  -0.719   0.042  1.00  0.00    -0.002 A 
HETATM    5  C   LIG     1       1.312  -1.398   0.028  1.00  0.00     0.020 A 
HETATM    6  C   LIG     1       2.435  -0.676  -0.019  1.00  0.00     0.083 A 
HETATM    7  C   LIG     1      -1.182  -1.419   0.057  1.00  0.00     0.021 A 
HETATM    8  O   LIG     1       3.481   1.425  -0.069  1.00  0.00    -0.260 OA
HETATM    9  C   LIG     1      -1.200   1.379  -0.016  1.00  0.00     0.039 A 
HETATM   10  C   LIG     1      -2.405  -0.728   0.014  1.00  0.00    -0.061 A 
HETATM   11  C   LIG     1      -2.404   0.673  -0.022  1.00  0.00     0.009 A 
HETATM   12  C   LIG     1      -3.695  -1.495   0.023  1.00  0.00     0.048 C 
ENDROOT
TORSDOF 0
