REMARK  1 active torsions:
REMARK  status: ('A' for Active; 'I' for Inactive)
REMARK    1  A    between atoms: C_1  and  C_6 
ROOT
HETATM    1  C   LIG     1       0.846  -0.662  -0.094  1.00  0.00     0.209 A 
HETATM    2  N   LIG     1       0.923   0.686   0.084  1.00  0.00    -0.308 N 
HETATM    3  N   LIG     1      -0.379  -1.109  -0.223  1.00  0.00    -0.279 N 
ATOM      4  HN  LIG     1      -0.681  -2.074  -0.356  1.00  0.00     0.188 HD
HETATM    5  C   LIG     1      -0.372   1.135   0.036  1.00  0.00     0.194 A 
HETATM    6  N   LIG     1      -1.159   0.008  -0.139  1.00  0.00    -0.274 N 
ATOM      7  HN  LIG     1      -2.177   0.012  -0.197  1.00  0.00     0.189 HD
HETATM    8  S   LIG     1      -0.967   2.675   0.145  1.00  0.00    -0.039 SA
HETATM    9  C   LIG     1       2.124   1.492   0.224  1.00  0.00     0.160 C 
ENDROOT
BRANCH   1  10
HETATM   10  C   LIG     1       2.086  -1.537  -0.129  1.00  0.00     0.450 C 
HETATM   11  F   LIG     1       2.996  -1.089  -1.040  1.00  0.00    -0.163 F 
HETATM   12  F   LIG     1       2.732  -1.547   1.071  1.00  0.00    -0.163 F 
HETATM   13  F   LIG     1       1.833  -2.835  -0.443  1.00  0.00    -0.163 F 
ENDBRANCH   1  10
TORSDOF 1
