REMARK  2 active torsions:
REMARK  status: ('A' for Active; 'I' for Inactive)
REMARK    1  A    between atoms: C_1  and  C_3 
REMARK    2  A    between atoms: C_1  and  N_4 
ROOT
HETATM    1  C   LIG     1       0.428  -1.033  -0.837  1.00  0.00     0.001 A 
HETATM    2  C   LIG     1       0.662  -2.398  -0.616  1.00  0.00     0.014 A 
HETATM    3  C   LIG     1      -0.344  -0.634  -1.935  1.00  0.00     0.014 A 
HETATM    4  C   LIG     1       0.131  -3.351  -1.487  1.00  0.00     0.001 A 
HETATM    5  C   LIG     1      -0.871  -1.590  -2.805  1.00  0.00     0.001 A 
HETATM    6  C   LIG     1      -0.633  -2.946  -2.582  1.00  0.00     0.000 A 
ENDROOT
BRANCH   1   7
HETATM    7  C   LIG     1       1.007  -0.030   0.093  1.00  0.00     0.104 C 
HETATM    8  S   LIG     1       0.207   1.311   0.685  1.00  0.00    -0.060 SA
BRANCH   7   9
HETATM    9  N   LIG     1       2.307  -0.246   0.476  1.00  0.00    -0.390 N 
ATOM     10  HN2 LIG     1       2.705   0.443   1.115  1.00  0.00     0.157 HD
ATOM     11  HN1 LIG     1       2.796  -1.065   0.114  1.00  0.00     0.157 HD
ENDBRANCH   7   9
ENDBRANCH   1   7
TORSDOF 2
