REMARK  1 active torsions:
REMARK  status: ('A' for Active; 'I' for Inactive)
REMARK    1  A    between atoms: C_1  and  C_5 
ROOT
HETATM    1  C   LIG     1       0.948   0.535  -0.107  1.00  0.00     0.150 C 
HETATM    2  N   LIG     1       1.020  -0.751  -0.258  1.00  0.00    -0.360 N 
ATOM      3  HN  LIG     1       1.826  -1.310  -0.538  1.00  0.00     0.162 HD
HETATM    4  O   LIG     1      -0.243   1.103   0.198  1.00  0.00    -0.333 OA
HETATM    5  C   LIG     1      -0.343  -1.214   0.072  1.00  0.00     0.046 C 
HETATM    6  C   LIG     1      -1.189   0.053   0.033  1.00  0.00     0.207 C 
HETATM    7  C   LIG     1      -0.312  -1.837   1.471  1.00  0.00     0.040 C 
HETATM    8  C   LIG     1      -0.796  -2.240  -0.961  1.00  0.00     0.040 C 
ENDROOT
BRANCH   1   9
HETATM    9  C   LIG     1       2.062   1.479  -0.243  1.00  0.00     0.030 A 
HETATM   10  C   LIG     1       1.897   2.843  -0.045  1.00  0.00     0.103 A 
HETATM   11  N   LIG     1       2.900   3.751  -0.161  1.00  0.00    -0.374 N 
HETATM   12  C   LIG     1       4.119   3.269  -0.489  1.00  0.00     0.087 A 
ATOM     13  HN  LIG     1       2.741   4.747  -0.008  1.00  0.00     0.164 HD
HETATM   14  C   LIG     1       4.383   1.925  -0.707  1.00  0.00     0.018 A 
HETATM   15  C   LIG     1       3.335   1.016  -0.581  1.00  0.00     0.018 A 
ENDBRANCH   1   9
TORSDOF 1
