REMARK  3 active torsions:
REMARK  status: ('A' for Active; 'I' for Inactive)
REMARK    1  A    between atoms: C_1  and  C_3 
REMARK    2  A    between atoms: C_2  and  O_8 
REMARK    3  A    between atoms: C_3  and  O_10 
ROOT
HETATM    1  C   LIG     1       0.566  -0.666  -0.054  1.00  0.00     0.113 A 
HETATM    2  C   LIG     1      -0.801  -0.869  -0.040  1.00  0.00     0.089 A 
HETATM    3  S   LIG     1       0.919   1.011   0.143  1.00  0.00    -0.093 SA
HETATM    4  C   LIG     1      -1.551   0.328   0.122  1.00  0.00     0.045 A 
HETATM    5  C   LIG     1      -0.735   1.429   0.232  1.00  0.00     0.053 A 
ENDROOT
BRANCH   1   6
HETATM    6  C   LIG     1       1.681  -1.586  -0.202  1.00  0.00     0.302 C 
HETATM    7  O   LIG     1       2.871  -1.287  -0.178  1.00  0.00    -0.259 OA
BRANCH   6   8
HETATM    8  O   LIG     1       1.236  -2.864  -0.384  1.00  0.00    -0.322 OA
HETATM    9  C   LIG     1       2.267  -3.833  -0.555  1.00  0.00     0.213 C 
ENDBRANCH   6   8
ENDBRANCH   1   6
BRANCH   2  10
HETATM   10  O   LIG     1      -1.359  -2.088  -0.169  1.00  0.00    -0.359 OA
ATOM     11  HO  LIG     1      -2.299  -2.228  -0.159  1.00  0.00     0.217 HD
ENDBRANCH   2  10
TORSDOF 3
