REMARK  1 active torsions:
REMARK  status: ('A' for Active; 'I' for Inactive)
REMARK    1  A    between atoms: C_1  and  O_4 
ROOT
HETATM    1  C   LIG     1       1.241  -0.709   0.070  1.00  0.00     0.109 A 
HETATM    2  C   LIG     1       0.025  -1.400   0.089  1.00  0.00     0.068 A 
HETATM    3  C   LIG     1       1.239   0.686  -0.001  1.00  0.00     0.068 A 
HETATM    4 CL   LIG     1       0.001  -3.124   0.172  1.00  0.00    -0.081 Cl
HETATM    5 CL   LIG     1       2.709   1.590  -0.031  1.00  0.00    -0.081 Cl
HETATM    6  C   LIG     1      -1.183   0.688  -0.027  1.00  0.00     0.003 A 
HETATM    7  C   LIG     1      -1.185  -0.706   0.041  1.00  0.00     0.027 A 
HETATM    8  C   LIG     1       0.028   1.383  -0.048  1.00  0.00     0.027 A 
ENDROOT
BRANCH   1   9
HETATM    9  O   LIG     1       2.432  -1.388   0.122  1.00  0.00    -0.357 OA
ATOM     10  HO  LIG     1       3.258  -0.919   0.109  1.00  0.00     0.217 HD
ENDBRANCH   1   9
TORSDOF 1
