REMARK  0 active torsions:
REMARK  status: ('A' for Active; 'I' for Inactive)
ROOT
HETATM    1  O   LIG     1       1.231  -0.007   0.445  1.00  0.00    -0.298 OA
HETATM    2  C   LIG     1       2.440  -0.007   0.203  1.00  0.00     0.127 C 
HETATM    3  C   LIG     1       3.198  -1.307   0.068  1.00  0.00     0.078 C 
HETATM    4  C   LIG     1       3.198   1.293   0.069  1.00  0.00     0.078 C 
HETATM    5  C   LIG     1       3.715   1.593  -1.332  1.00  0.00     0.007 C 
HETATM    6  C   LIG     1       3.715  -1.606  -1.333  1.00  0.00     0.007 C 
HETATM    7  C   LIG     1       2.717   1.299  -2.455  1.00  0.00     0.000 C 
HETATM    8  C   LIG     1       2.717  -1.312  -2.456  1.00  0.00     0.000 C 
HETATM    9  C   LIG     1       2.978  -0.006  -3.214  1.00  0.00     0.000 C 
ENDROOT
TORSDOF 0
