REMARK  1 active torsions:
REMARK  status: ('A' for Active; 'I' for Inactive)
REMARK    1  A    between atoms: C_5  and  O_9 
ROOT
HETATM    1  C   LIG     1      -1.391  -0.058  -0.030  1.00  0.00     0.075 A 
HETATM    2  C   LIG     1      -0.764   1.189  -0.039  1.00  0.00     0.063 A 
HETATM    3  C   LIG     1      -0.627  -1.225  -0.011  1.00  0.00     0.138 A 
HETATM    4  C   LIG     1       0.764  -1.161   0.003  1.00  0.00     0.047 A 
HETATM    5  C   LIG     1       0.627   1.246  -0.028  1.00  0.00     0.067 A 
HETATM    6 CL   LIG     1      -3.112  -0.137  -0.046  1.00  0.00    -0.081 Cl
HETATM    7  F   LIG     1      -1.216  -2.430  -0.006  1.00  0.00    -0.204 F 
HETATM    8  C   LIG     1       1.394   0.083  -0.005  1.00  0.00     0.039 A 
ENDROOT
BRANCH   5   9
HETATM    9  O   LIG     1       1.290   2.437  -0.042  1.00  0.00    -0.361 OA
ATOM     10  HO  LIG     1       2.239   2.476  -0.034  1.00  0.00     0.217 HD
ENDBRANCH   5   9
TORSDOF 1
