REMARK  3 active torsions:
REMARK  status: ('A' for Active; 'I' for Inactive)
REMARK    1  A    between atoms: C_1  and  C_5 
REMARK    2  A    between atoms: C_2  and  N_8 
REMARK    3  A    between atoms: C_5  and  O_11 
ROOT
HETATM    1  C   LIG     1       0.355  -0.621   0.195  1.00  0.00     0.106 A 
HETATM    2  C   LIG     1       0.500   0.757   0.167  1.00  0.00     0.055 A 
HETATM    3  S   LIG     1      -1.241  -1.066  -0.267  1.00  0.00    -0.093 SA
HETATM    4  C   LIG     1      -0.696   1.448  -0.218  1.00  0.00    -0.028 A 
HETATM    5  C   LIG     1      -1.714   0.552  -0.478  1.00  0.00     0.059 A 
HETATM    6  C   LIG     1      -0.855   2.928  -0.329  1.00  0.00     0.051 C 
ENDROOT
BRANCH   1   7
HETATM    7  C   LIG     1       1.339  -1.634   0.556  1.00  0.00     0.302 C 
HETATM    8  O   LIG     1       2.494  -1.416   0.904  1.00  0.00    -0.259 OA
BRANCH   7   9
HETATM    9  O   LIG     1       0.798  -2.889   0.466  1.00  0.00    -0.322 OA
HETATM   10  C   LIG     1       1.651  -3.960   0.864  1.00  0.00     0.213 C 
ENDBRANCH   7   9
ENDBRANCH   1   7
BRANCH   2  11
HETATM   11  N   LIG     1       1.644   1.403   0.474  1.00  0.00    -0.397 N 
ATOM     12  HN2 LIG     1       2.495   0.911   0.748  1.00  0.00     0.156 HD
ATOM     13  HN1 LIG     1       1.751   2.417   0.453  1.00  0.00     0.156 HD
ENDBRANCH   2  11
TORSDOF 3
