REMARK  3 active torsions:
REMARK  status: ('A' for Active; 'I' for Inactive)
REMARK    1  A    between atoms: C_1  and  C_6 
REMARK    2  A    between atoms: C_1  and  O_7 
REMARK    3  A    between atoms: O_7  and  C_12 
ROOT
HETATM    1  N   LIG     1      -1.503   2.637   0.905  1.00  0.00    -0.075 N 
ATOM      2  HN1 LIG     1      -1.978   3.256   0.248  1.00  0.00     0.277 HD
ATOM      3  HN2 LIG     1      -1.888   3.008   1.774  1.00  0.00     0.277 HD
HETATM    4  C   LIG     1       0.097   0.911  -0.851  1.00  0.00     0.088 C 
HETATM    5  C   LIG     1      -1.883   1.241   0.700  1.00  0.00     0.233 C 
HETATM    6  C   LIG     1      -0.050   2.801   0.846  1.00  0.00     0.233 C 
HETATM    7  C   LIG     1      -1.412   0.726  -0.659  1.00  0.00     0.042 C 
HETATM    8  C   LIG     1       0.514   2.346  -0.500  1.00  0.00     0.042 C 
ENDROOT
BRANCH   4   9
HETATM    9  C   LIG     1       0.899  -0.116  -0.063  1.00  0.00     0.263 C 
HETATM   10  O   LIG     1       1.748   0.146   0.777  1.00  0.00    -0.265 OA
BRANCH   9  11
HETATM   11  O   LIG     1       0.578  -1.375  -0.480  1.00  0.00    -0.322 OA
BRANCH  11  12
HETATM   12  C   LIG     1       1.342  -2.442   0.103  1.00  0.00     0.174 C 
HETATM   13  C   LIG     1       0.774  -2.835   1.454  1.00  0.00     0.034 C 
ENDBRANCH  11  12
ENDBRANCH   9  11
ENDBRANCH   4   9
TORSDOF 3
