REMARK  2 active torsions:
REMARK  status: ('A' for Active; 'I' for Inactive)
REMARK    1  A    between atoms: C_1  and  C_2 
REMARK    2  A    between atoms: C_2  and  O_8 
ROOT
HETATM    1  C   LIG     1      -0.141  -0.861  -0.295  1.00  0.00     0.070 A 
HETATM    2  C   LIG     1       1.098  -0.453   0.170  1.00  0.00     0.065 A 
HETATM    3  C   LIG     1      -0.984   0.287  -0.184  1.00  0.00     0.044 A 
HETATM    4  O   LIG     1       1.059   0.862   0.530  1.00  0.00    -0.326 OA
HETATM    5  C   LIG     1      -0.202   1.304   0.305  1.00  0.00     0.143 A 
HETATM    6  C   LIG     1       2.413  -1.116   0.319  1.00  0.00     0.077 C 
ENDROOT
BRANCH   1   7
HETATM    7  C   LIG     1      -0.480  -2.171  -0.817  1.00  0.00     0.295 C 
HETATM    8  O   LIG     1       0.319  -3.097  -0.922  1.00  0.00    -0.259 OA
BRANCH   7   9
HETATM    9  O   LIG     1      -1.785  -2.231  -1.213  1.00  0.00    -0.322 OA
HETATM   10  C   LIG     1      -2.149  -3.438  -1.880  1.00  0.00     0.213 C 
ENDBRANCH   7   9
ENDBRANCH   1   7
TORSDOF 2
