REMARK  3 active torsions:
REMARK  status: ('A' for Active; 'I' for Inactive)
REMARK    1  A    between atoms: N_1  and  C_2 
REMARK    2  A    between atoms: C_2  and  C_12 
REMARK    3  A    between atoms: C_7  and  N_8 
ROOT
HETATM    1  N   LIG     1       0.011   0.849  -0.120  1.00  0.00     0.092 N 
HETATM    2  C   LIG     1       0.313  -1.222   1.292  1.00  0.00     0.063 C 
HETATM    3  C   LIG     1      -1.968  -0.611   0.410  1.00  0.00     0.063 C 
HETATM    4  C   LIG     1       0.763   0.209   0.973  1.00  0.00     0.275 C 
HETATM    5  C   LIG     1      -1.432   0.799   0.160  1.00  0.00     0.275 C 
HETATM    6  C   LIG     1      -1.195  -1.280   1.549  1.00  0.00     0.186 C 
ENDROOT
BRANCH   1   7
HETATM    7  C   LIG     1       0.387   0.285  -1.430  1.00  0.00     0.311 C 
BRANCH   7   8
HETATM    8  C   LIG     1      -0.287   0.947  -2.614  1.00  0.00    -0.030 A 
HETATM    9  C   LIG     1      -0.114   2.314  -2.867  1.00  0.00     0.009 A 
HETATM   10  C   LIG     1      -0.738   2.916  -3.961  1.00  0.00     0.001 A 
HETATM   11  C   LIG     1      -1.538   2.158  -4.814  1.00  0.00     0.000 A 
HETATM   12  C   LIG     1      -1.716   0.797  -4.575  1.00  0.00     0.001 A 
HETATM   13  C   LIG     1      -1.093   0.194  -3.482  1.00  0.00     0.009 A 
ENDBRANCH   7   8
ENDBRANCH   1   7
BRANCH   6  14
HETATM   14  N   LIG     1      -1.627  -2.668   1.728  1.00  0.00    -0.075 N 
ATOM     15  HN3 LIG     1      -1.352  -3.256   0.941  1.00  0.00     0.274 HD
ATOM     16  HN2 LIG     1      -1.098  -3.140   2.461  1.00  0.00     0.274 HD
ATOM     17  HN1 LIG     1      -2.632  -2.707   1.899  1.00  0.00     0.274 HD
ENDBRANCH   6  14
TORSDOF 3
