REMARK  1 active torsions:
REMARK  status: ('A' for Active; 'I' for Inactive)
REMARK    1  A    between atoms: C_1  and  C_2 
ROOT
HETATM    1  C   LIG     1       0.631  -0.829   1.125  1.00  0.00    -0.051 A 
HETATM    2  C   LIG     1       0.956  -2.193   1.210  1.00  0.00     0.010 A 
HETATM    3  C   LIG     1      -0.159  -0.300   2.160  1.00  0.00     0.010 A 
HETATM    4  C   LIG     1      -0.296  -2.454   3.277  1.00  0.00     0.046 A 
HETATM    5  N   LIG     1      -0.623  -3.213   4.407  1.00  0.00    -0.102 NA
HETATM    6  C   LIG     1      -0.590  -1.094   3.231  1.00  0.00     0.027 A 
HETATM    7  C   LIG     1       0.523  -2.983   2.284  1.00  0.00     0.027 A 
ENDROOT
BRANCH   1   8
HETATM    8  C   LIG     1       1.087   0.035  -0.066  1.00  0.00    -0.024 C 
HETATM    9  C   LIG     1       0.019  -0.072  -1.172  1.00  0.00     0.019 C 
HETATM   10  C   LIG     1       2.444  -0.426  -0.646  1.00  0.00     0.019 C 
HETATM   11  C   LIG     1       1.257   1.525   0.310  1.00  0.00     0.019 C 
ENDBRANCH   1   8
TORSDOF 1
