REMARK  2 active torsions:
REMARK  status: ('A' for Active; 'I' for Inactive)
REMARK    1  A    between atoms: C_1  and  O_2 
REMARK    2  A    between atoms: O_2  and  C_3 
ROOT
HETATM    1  C   LIG     1       0.622  -3.183  -0.109  1.00  0.00     0.080 A 
HETATM    2  C   LIG     1       1.294  -3.349  -1.328  1.00  0.00     0.063 A 
HETATM    3  C   LIG     1       1.681  -4.619  -1.769  1.00  0.00     0.049 A 
HETATM    4  N   LIG     1       2.432  -4.754  -2.944  1.00  0.00    -0.102 NA
HETATM    5  C   LIG     1       0.871  -5.543   0.322  1.00  0.00     0.005 A 
HETATM    6  C   LIG     1       0.428  -4.280   0.723  1.00  0.00     0.037 A 
HETATM    7  C   LIG     1       1.504  -5.703  -0.915  1.00  0.00     0.027 A 
ENDROOT
BRANCH   1   8
HETATM    8  O   LIG     1       0.229  -1.901   0.149  1.00  0.00    -0.255 OA
BRANCH   8   9
HETATM    9  C   LIG     1      -0.870  -1.729   1.028  1.00  0.00     0.530 C 
HETATM   10  F   LIG     1      -1.843  -2.642   0.814  1.00  0.00    -0.144 F 
HETATM   11  F   LIG     1      -1.400  -0.503   0.820  1.00  0.00    -0.144 F 
HETATM   12  F   LIG     1      -0.462  -1.801   2.313  1.00  0.00    -0.144 F 
ENDBRANCH   8   9
ENDBRANCH   1   8
TORSDOF 2
