REMARK  0 active torsions:
REMARK  status: ('A' for Active; 'I' for Inactive)
ROOT
HETATM    1  C   LIG     1      -0.785  -0.927  -0.096  1.00  0.00     0.157 C 
HETATM    2  O   LIG     1       1.109   0.358   0.236  1.00  0.00    -0.378 OA
HETATM    3  C   LIG     1       0.709  -1.020   0.079  1.00  0.00     0.186 C 
HETATM    4  O   LIG     1      -1.527  -1.868  -0.363  1.00  0.00    -0.295 OA
HETATM    5  C   LIG     1      -1.255   0.453   0.192  1.00  0.00     0.107 C 
HETATM    6  C   LIG     1       0.013   1.191  -0.168  1.00  0.00     0.176 C 
HETATM    7  C   LIG     1       1.064  -1.767   1.348  1.00  0.00     0.048 C 
ENDROOT
TORSDOF 0
