REMARK  2 active torsions:
REMARK  status: ('A' for Active; 'I' for Inactive)
REMARK    1  A    between atoms: C_2  and  C_7 
REMARK    2  A    between atoms: C_5  and  C_7 
ROOT
HETATM    1  C   LIG     1      -1.441  -0.162  -0.029  1.00  0.00     0.056 A 
HETATM    2  C   LIG     1      -0.681  -1.335  -0.025  1.00  0.00     0.055 A 
HETATM    3  C   LIG     1      -0.801   1.083  -0.051  1.00  0.00     0.033 A 
HETATM    4  C   LIG     1       0.600   1.168  -0.077  1.00  0.00    -0.046 A 
HETATM    5  C   LIG     1       0.715  -1.258  -0.040  1.00  0.00     0.026 A 
HETATM    6 CL   LIG     1      -3.169  -0.177  -0.009  1.00  0.00    -0.083 Cl
HETATM    7  C   LIG     1       1.351  -0.015  -0.064  1.00  0.00     0.009 A 
HETATM    8 CL   LIG     1      -1.399  -2.907  -0.002  1.00  0.00    -0.083 Cl
ENDROOT
BRANCH   4   9
HETATM    9  C   LIG     1       1.288   2.513  -0.085  1.00  0.00     0.151 C 
BRANCH   9  10
HETATM   10  C   LIG     1       1.629   3.029   1.292  1.00  0.00     0.176 C 
HETATM   11  O   LIG     1       1.388   2.515   2.370  1.00  0.00    -0.648 OA
HETATM   12  O   LIG     1       2.280   4.211   1.237  1.00  0.00    -0.648 OA
ENDBRANCH   9  10
ENDBRANCH   4   9
TORSDOF 2
