REMARK  0 active torsions:
REMARK  status: ('A' for Active; 'I' for Inactive)
ROOT
HETATM    1  N   LIG     1      -0.716  -1.197   0.054  1.00  0.00    -0.355 N 
ATOM      2  HN  LIG     1      -1.199  -2.094   0.100  1.00  0.00     0.166 HD
HETATM    3  C   LIG     1      -1.391  -0.037   0.042  1.00  0.00     0.116 A 
HETATM    4  C   LIG     1      -0.766   1.202  -0.010  1.00  0.00     0.051 A 
HETATM    5  N   LIG     1      -2.780  -0.126   0.113  1.00  0.00    -0.083 NA
HETATM    6  C   LIG     1       0.632  -1.124   0.002  1.00  0.00     0.090 A 
HETATM    7  C   LIG     1       0.629   1.261  -0.067  1.00  0.00    -0.058 A 
HETATM    8  C   LIG     1       1.342   0.064  -0.063  1.00  0.00     0.024 A 
HETATM    9  C   LIG     1       1.350   2.573  -0.133  1.00  0.00     0.048 C 
ENDROOT
TORSDOF 0
