REMARK  4 active torsions:
REMARK  status: ('A' for Active; 'I' for Inactive)
REMARK    1  A    between atoms: C_1  and  O_3 
REMARK    2  A    between atoms: C_2  and  C_8 
REMARK    3  A    between atoms: O_3  and  C_9 
REMARK    4  A    between atoms: C_8  and  C_10 
ROOT
HETATM    1  C   LIG     1       0.747   3.034   0.410  1.00  0.00     0.078 A 
HETATM    2  C   LIG     1       1.669   5.600   1.122  1.00  0.00    -0.048 A 
HETATM    3  C   LIG     1       0.081   4.169  -0.044  1.00  0.00     0.037 A 
HETATM    4  C   LIG     1       1.917   3.189   1.160  1.00  0.00     0.037 A 
HETATM    5  C   LIG     1       2.373   4.459   1.522  1.00  0.00     0.010 A 
HETATM    6  C   LIG     1       0.525   5.442   0.331  1.00  0.00     0.010 A 
ENDROOT
BRANCH   1   7
HETATM    7  O   LIG     1       0.384   1.741   0.185  1.00  0.00    -0.255 OA
BRANCH   7   8
HETATM    8  C   LIG     1      -0.973   1.438  -0.105  1.00  0.00     0.530 C 
HETATM    9  F   LIG     1      -1.846   2.396   0.270  1.00  0.00    -0.144 F 
HETATM   10  F   LIG     1      -1.307   0.304   0.554  1.00  0.00    -0.144 F 
HETATM   11  F   LIG     1      -1.113   1.209  -1.429  1.00  0.00    -0.144 F 
ENDBRANCH   7   8
ENDBRANCH   1   7
BRANCH   2  12
HETATM   12  C   LIG     1       2.118   6.978   1.550  1.00  0.00     0.151 C 
BRANCH  12  13
HETATM   13  C   LIG     1       1.530   7.447   2.854  1.00  0.00     0.176 C 
HETATM   14  O   LIG     1       0.746   6.863   3.594  1.00  0.00    -0.648 OA
HETATM   15  O   LIG     1       1.969   8.687   3.181  1.00  0.00    -0.648 OA
ENDBRANCH  12  13
ENDBRANCH   2  12
TORSDOF 4
