REMARK  1 active torsions:
REMARK  status: ('A' for Active; 'I' for Inactive)
REMARK    1  A    between atoms: C_5  and  C_6 
ROOT
HETATM    1  N   LIG     1       5.619   0.269  -0.631  1.00  0.00    -0.375 N 
ATOM      2  HN  LIG     1       6.629   0.317  -0.766  1.00  0.00     0.164 HD
HETATM    3  C   LIG     1       2.828   0.136  -0.257  1.00  0.00    -0.023 A 
HETATM    4  C   LIG     1       4.895   1.358  -0.299  1.00  0.00     0.088 A 
HETATM    5  C   LIG     1       4.939  -0.886  -0.775  1.00  0.00     0.088 A 
HETATM    6  C   LIG     1       3.523   1.342  -0.106  1.00  0.00     0.029 A 
HETATM    7  C   LIG     1       3.568  -1.002  -0.600  1.00  0.00     0.029 A 
ENDROOT
BRANCH   3   8
HETATM    8  C   LIG     1       1.372   0.067  -0.062  1.00  0.00    -0.023 A 
HETATM    9  C   LIG     1       0.802  -0.857   0.823  1.00  0.00     0.029 A 
HETATM   10  C   LIG     1      -0.575  -0.884   0.974  1.00  0.00     0.088 A 
HETATM   11  N   LIG     1      -1.419  -0.066   0.312  1.00  0.00    -0.375 N 
HETATM   12  C   LIG     1      -0.859   0.818  -0.538  1.00  0.00     0.088 A 
ATOM     13  HN  LIG     1      -2.429  -0.114   0.448  1.00  0.00     0.164 HD
HETATM   14  C   LIG     1       0.506   0.922  -0.754  1.00  0.00     0.029 A 
ENDBRANCH   3   8
TORSDOF 1
