REMARK  2 active torsions:
REMARK  status: ('A' for Active; 'I' for Inactive)
REMARK    1  A    between atoms: C_2  and  C_12 
REMARK    2  A    between atoms: N_4  and  C_12 
ROOT
HETATM    1  C   LIG     1      -1.429  -0.081   0.050  1.00  0.00     0.116 A 
HETATM    2  C   LIG     1       1.358   0.028  -0.095  1.00  0.00    -0.033 A 
HETATM    3  F   LIG     1      -2.765  -0.136   0.121  1.00  0.00    -0.206 F 
HETATM    4  C   LIG     1      -0.800   1.148  -0.105  1.00  0.00     0.043 A 
HETATM    5  C   LIG     1      -0.691  -1.257   0.131  1.00  0.00     0.043 A 
HETATM    6  C   LIG     1       0.592   1.203  -0.179  1.00  0.00     0.012 A 
HETATM    7  C   LIG     1       0.702  -1.204   0.057  1.00  0.00     0.012 A 
ENDROOT
BRANCH   2   8
HETATM    8  C   LIG     1       2.862   0.094  -0.178  1.00  0.00     0.268 C 
BRANCH   8   9
HETATM    9  N   LIG     1       3.301   0.496  -1.508  1.00  0.00    -0.075 N 
ATOM     10  HN3 LIG     1       2.912  -0.111  -2.230  1.00  0.00     0.274 HD
ATOM     11  HN2 LIG     1       2.871   1.376  -1.794  1.00  0.00     0.274 HD
ATOM     12  HN1 LIG     1       4.318   0.541  -1.564  1.00  0.00     0.274 HD
ENDBRANCH   8   9
ENDBRANCH   2   8
TORSDOF 2
