REMARK  2 active torsions:
REMARK  status: ('A' for Active; 'I' for Inactive)
REMARK    1  A    between atoms: C_3  and  C_7 
REMARK    2  A    between atoms: C_7  and  C_8 
ROOT
HETATM    1  N   LIG     1      -0.318  -0.305  -0.699  1.00  0.00    -0.363 N 
ATOM      2  HN  LIG     1      -0.584  -1.022  -1.374  1.00  0.00     0.165 HD
HETATM    3  C   LIG     1       0.829  -0.260  -0.054  1.00  0.00     0.050 A 
HETATM    4  S   LIG     1       1.014   1.062   1.033  1.00  0.00    -0.087 SA
HETATM    5  C   LIG     1      -1.106   0.765  -0.323  1.00  0.00     0.095 A 
HETATM    6  C   LIG     1      -0.551   1.614   0.609  1.00  0.00     0.068 A 
ENDROOT
BRANCH   3   7
HETATM    7  C   LIG     1       1.927  -1.264  -0.224  1.00  0.00     0.064 C 
BRANCH   7   8
HETATM    8  C   LIG     1       2.789  -0.943  -1.445  1.00  0.00     0.002 C 
HETATM    9  C   LIG     1       3.903  -1.961  -1.624  1.00  0.00     0.005 C 
ENDBRANCH   7   8
ENDBRANCH   3   7
TORSDOF 2
