REMARK  2 active torsions:
REMARK  status: ('A' for Active; 'I' for Inactive)
REMARK       I    between atoms: C_1  and  N_6 
REMARK    1  A    between atoms: C_1  and  C_5 
REMARK    2  A    between atoms: N_6  and  C_13 
ROOT
HETATM    1  N   LIG     1      -0.593   1.744  -1.479  1.00  0.00    -0.058 N 
ATOM      2  HN1 LIG     1      -1.115   0.873  -1.574  1.00  0.00     0.278 HD
ATOM      3  HN2 LIG     1      -0.013   1.680  -2.315  1.00  0.00     0.278 HD
HETATM    4  C   LIG     1       0.236   1.735  -0.256  1.00  0.00     0.281 C 
HETATM    5  C   LIG     1       1.111   2.989  -0.127  1.00  0.00     0.082 C 
HETATM    6  C   LIG     1       0.402   4.265  -0.518  1.00  0.00    -0.048 A 
HETATM    7  C   LIG     1      -1.484   2.900  -1.546  1.00  0.00     0.272 C 
HETATM    8  C   LIG     1      -0.810   4.216  -1.229  1.00  0.00    -0.026 A 
HETATM    9  C   LIG     1       0.976   5.503  -0.199  1.00  0.00     0.008 A 
HETATM   10  C   LIG     1      -1.442   5.417  -1.583  1.00  0.00     0.009 A 
HETATM   11  C   LIG     1       0.342   6.688  -0.565  1.00  0.00     0.001 A 
HETATM   12  C   LIG     1      -0.866   6.646  -1.257  1.00  0.00     0.001 A 
ENDROOT
BRANCH   4  13
HETATM   13  C   LIG     1      -0.613   1.388   0.994  1.00  0.00     0.249 C 
HETATM   14  N   LIG     1      -1.184   2.443   1.670  1.00  0.00    -0.351 N 
ATOM     15  HN  LIG     1      -1.002   3.380   1.310  1.00  0.00     0.163 HD
HETATM   16  O   LIG     1      -0.815   0.211   1.299  1.00  0.00    -0.271 OA
BRANCH  14  17
HETATM   17  C   LIG     1      -2.034   2.336   2.866  1.00  0.00     0.022 C 
HETATM   18  C   LIG     1      -2.477   3.757   3.262  1.00  0.00     0.037 C 
HETATM   19  C   LIG     1      -3.296   1.503   2.589  1.00  0.00     0.037 C 
HETATM   20  C   LIG     1      -1.250   1.729   4.039  1.00  0.00     0.037 C 
ENDBRANCH  14  17
ENDBRANCH   4  13
TORSDOF 2
