REMARK  0 active torsions:
REMARK  status: ('A' for Active; 'I' for Inactive)
ROOT
HETATM    1  N   LIG     1       1.017   0.090   0.142  1.00  0.00    -0.191 NA
HETATM    2  C   LIG     1       2.178   0.103   0.090  1.00  0.00     0.099 C 
HETATM    3  C   LIG     1       3.609   0.120   0.008  1.00  0.00     0.044 A 
HETATM    4  C   LIG     1       6.382   0.153  -0.235  1.00  0.00     0.116 A 
HETATM    5  F   LIG     1       7.713   0.169  -0.374  1.00  0.00    -0.206 F 
HETATM    6  C   LIG     1       4.295   1.341  -0.041  1.00  0.00     0.026 A 
HETATM    7  C   LIG     1       4.324  -1.084  -0.046  1.00  0.00     0.026 A 
HETATM    8  C   LIG     1       5.686   1.355  -0.168  1.00  0.00     0.044 A 
HETATM    9  C   LIG     1       5.715  -1.066  -0.167  1.00  0.00     0.044 A 
ENDROOT
TORSDOF 0
