REMARK  0 active torsions:
REMARK  status: ('A' for Active; 'I' for Inactive)
ROOT
HETATM    1  C   LIG     1      -0.691  -0.977   0.239  1.00  0.00     0.319 C 
HETATM    2  N   LIG     1       0.672  -0.997  -0.083  1.00  0.00    -0.337 N 
HETATM    3  N   LIG     1      -1.080   0.360   0.282  1.00  0.00    -0.337 N 
HETATM    4  O   LIG     1      -1.394  -1.946   0.476  1.00  0.00    -0.247 OA
HETATM    5  C   LIG     1       1.229   0.332   0.022  1.00  0.00     0.147 C 
HETATM    6  C   LIG     1       0.013   1.242  -0.058  1.00  0.00     0.147 C 
HETATM    7  C   LIG     1       1.482  -2.176   0.096  1.00  0.00     0.154 C 
HETATM    8  C   LIG     1      -2.384   0.830   0.672  1.00  0.00     0.154 C 
ENDROOT
TORSDOF 0
