REMARK  2 active torsions:
REMARK  status: ('A' for Active; 'I' for Inactive)
REMARK    1  A    between atoms: N_1  and  C_10 
REMARK    2  A    between atoms: C_9  and  C_10 
ROOT
HETATM    1  N   LIG     1       4.736  -2.511   1.405  1.00  0.00    -0.197 NA
HETATM    2  C   LIG     1       3.652  -2.103   1.463  1.00  0.00     0.060 C 
HETATM    3  C   LIG     1       2.285  -1.577   1.514  1.00  0.00     0.144 C 
ENDROOT
BRANCH   3   4
HETATM    4  C   LIG     1       1.911  -0.958   0.174  1.00  0.00     0.144 C 
BRANCH   4   5
HETATM    5  N   LIG     1       0.562  -0.425   0.186  1.00  0.00    -0.345 N 
HETATM    6  C   LIG     1       0.175   0.851   0.522  1.00  0.00     0.079 A 
HETATM    7  N   LIG     1      -1.135   0.970   0.434  1.00  0.00    -0.355 N 
HETATM    8  C   LIG     1       1.111   1.933   0.921  1.00  0.00     0.089 C 
HETATM    9  C   LIG     1      -1.600  -0.247   0.016  1.00  0.00     0.106 A 
ATOM     10  HN  LIG     1      -1.690   1.802   0.637  1.00  0.00     0.166 HD
HETATM   11  C   LIG     1      -0.562  -1.132  -0.146  1.00  0.00     0.109 A 
ENDBRANCH   4   5
ENDBRANCH   3   4
TORSDOF 2
