REMARK  1 active torsions:
REMARK  status: ('A' for Active; 'I' for Inactive)
REMARK    1  A    between atoms: C_1  and  C_2 
ROOT
HETATM    1  C   LIG     1      -1.340  -0.081  -0.211  1.00  0.00     0.012 A 
HETATM    2  C   LIG     1      -0.690   1.155  -0.280  1.00  0.00     0.057 A 
HETATM    3  C   LIG     1       0.692   1.210  -0.125  1.00  0.00     0.117 A 
HETATM    4  F   LIG     1       1.311   2.396  -0.191  1.00  0.00    -0.206 F 
HETATM    5  C   LIG     1      -0.585  -1.244   0.015  1.00  0.00     0.015 A 
HETATM    6  C   LIG     1       0.802  -1.173   0.168  1.00  0.00     0.004 A 
HETATM    7  C   LIG     1       1.443   0.061   0.098  1.00  0.00     0.042 A 
ENDROOT
BRANCH   1   8
HETATM    8  C   LIG     1      -2.818  -0.211  -0.369  1.00  0.00     0.155 C 
HETATM    9  O   LIG     1      -3.347  -1.317  -0.278  1.00  0.00    -0.293 OA
HETATM   10  C   LIG     1      -3.637   1.024  -0.637  1.00  0.00     0.096 C 
ENDBRANCH   1   8
TORSDOF 1
