REMARK  2 active torsions:
REMARK  status: ('A' for Active; 'I' for Inactive)
REMARK    1  A    between atoms: C_1  and  C_7 
REMARK    2  A    between atoms: C_2  and  C_7 
ROOT
HETATM    1  C   LIG     1      -0.344   0.883  -0.055  1.00  0.00    -0.042 A 
HETATM    2  C   LIG     1       0.752  -1.711  -0.161  1.00  0.00     0.084 A 
HETATM    3  C   LIG     1      -0.620  -1.525  -0.077  1.00  0.00     0.119 A 
HETATM    4  C   LIG     1       1.574  -0.594  -0.180  1.00  0.00     0.119 A 
HETATM    5  C   LIG     1      -1.175  -0.247  -0.021  1.00  0.00     0.050 A 
HETATM    6  C   LIG     1       1.044   0.695  -0.124  1.00  0.00     0.050 A 
HETATM    7  F   LIG     1       2.901  -0.754  -0.261  1.00  0.00    -0.206 F 
HETATM    8  F   LIG     1      -1.429  -2.593  -0.057  1.00  0.00    -0.206 F 
ENDROOT
BRANCH   1   9
HETATM    9  C   LIG     1      -0.931   2.273  -0.002  1.00  0.00     0.151 C 
BRANCH   9  10
HETATM   10  C   LIG     1      -1.140   2.802   1.396  1.00  0.00     0.176 C 
HETATM   11  O   LIG     1      -0.935   2.236   2.455  1.00  0.00    -0.648 OA
HETATM   12  O   LIG     1      -1.620   4.065   1.384  1.00  0.00    -0.648 OA
ENDBRANCH   9  10
ENDBRANCH   1   9
TORSDOF 2
