REMARK  7 active torsions:
REMARK  status: ('A' for Active; 'I' for Inactive)
REMARK    1  A    between atoms: C_1  and  N_3 
REMARK    2  A    between atoms: N_3  and  C_12 
REMARK    3  A    between atoms: N_3  and  C_13 
REMARK    4  A    between atoms: O_7  and  C_15 
REMARK    5  A    between atoms: O_9  and  C_16 
REMARK    6  A    between atoms: C_12  and  C_16 
REMARK    7  A    between atoms: C_13  and  C_15 
ROOT
HETATM    1  N   LIG     1      -2.381  -0.162  -0.315  1.00  0.00    -0.377 N 
ENDROOT
BRANCH   1   2
HETATM    2  C   LIG     1      -1.016  -0.193  -0.609  1.00  0.00     0.031 A 
HETATM    3  C   LIG     1      -0.299   0.927  -1.057  1.00  0.00     0.053 A 
HETATM    4  C   LIG     1       1.045   0.860  -1.437  1.00  0.00     0.036 A 
HETATM    5  C   LIG     1       1.763  -0.321  -1.292  1.00  0.00     0.024 A 
HETATM    6 CL   LIG     1       1.814   2.241  -2.118  1.00  0.00    -0.084 Cl
HETATM    7  C   LIG     1       1.114  -1.429  -0.778  1.00  0.00     0.004 A 
HETATM    8  C   LIG     1      -0.249  -1.370  -0.463  1.00  0.00     0.029 A 
ENDBRANCH   1   2
BRANCH   1   9
HETATM    9  C   LIG     1      -3.198  -1.401  -0.439  1.00  0.00     0.149 C 
BRANCH   9  10
HETATM   10  C   LIG     1      -3.250  -2.242   0.846  1.00  0.00     0.183 C 
BRANCH  10  11
HETATM   11  O   LIG     1      -3.795  -1.495   1.929  1.00  0.00    -0.399 OA
ATOM     12  HO  LIG     1      -3.827  -2.015   2.723  1.00  0.00     0.209 HD
ENDBRANCH  10  11
ENDBRANCH   9  10
ENDBRANCH   1   9
BRANCH   1  13
HETATM   13  C   LIG     1      -3.154   1.108  -0.409  1.00  0.00     0.149 C 
BRANCH  13  14
HETATM   14  C   LIG     1      -3.378   1.604  -1.852  1.00  0.00     0.183 C 
BRANCH  14  15
HETATM   15  O   LIG     1      -4.063   0.645  -2.651  1.00  0.00    -0.399 OA
ATOM     16  HO  LIG     1      -4.201   0.951  -3.540  1.00  0.00     0.209 HD
ENDBRANCH  14  15
ENDBRANCH  13  14
ENDBRANCH   1  13
TORSDOF 7
