REMARK  0 active torsions:
REMARK  status: ('A' for Active; 'I' for Inactive)
ROOT
HETATM    1  C   LIG     1      -0.694   1.234   0.001  1.00  0.00     0.052 A 
HETATM    2  C   LIG     1      -0.681  -1.187   0.009  1.00  0.00     0.121 A 
HETATM    3  C   LIG     1       1.386  -0.005   0.008  1.00  0.00     0.121 A 
HETATM    4  C   LIG     1      -1.382   0.018  -0.029  1.00  0.00     0.069 A 
HETATM    5  C   LIG     1       0.702   1.210  -0.029  1.00  0.00     0.069 A 
HETATM    6  C   LIG     1       0.704  -1.212   0.035  1.00  0.00     0.084 A 
HETATM    7  N   LIG     1      -1.383   2.439  -0.177  1.00  0.00    -0.102 NA
HETATM    8  F   LIG     1      -1.361  -2.342   0.004  1.00  0.00    -0.206 F 
HETATM    9  F   LIG     1       2.725  -0.006   0.003  1.00  0.00    -0.206 F 
ENDROOT
TORSDOF 0
