REMARK  3 active torsions:
REMARK  status: ('A' for Active; 'I' for Inactive)
REMARK    1  A    between atoms: C_1  and  C_3 
REMARK    2  A    between atoms: C_2  and  N_8 
REMARK    3  A    between atoms: C_3  and  O_11 
ROOT
HETATM    1  C   LIG     1       0.484  -0.089   0.162  1.00  0.00     0.106 A 
HETATM    2  C   LIG     1      -0.730  -0.723  -0.035  1.00  0.00     0.049 A 
HETATM    3  S   LIG     1       0.268   1.621   0.197  1.00  0.00    -0.094 SA
HETATM    4  C   LIG     1      -1.817   0.184  -0.167  1.00  0.00     0.038 A 
HETATM    5  C   LIG     1      -1.411   1.494  -0.062  1.00  0.00     0.053 A 
ENDROOT
BRANCH   1   6
HETATM    6  C   LIG     1       1.801  -0.685   0.328  1.00  0.00     0.302 C 
HETATM    7  O   LIG     1       2.037  -1.892   0.354  1.00  0.00    -0.259 OA
BRANCH   6   8
HETATM    8  O   LIG     1       2.766   0.275   0.449  1.00  0.00    -0.322 OA
HETATM    9  C   LIG     1       4.097  -0.212   0.603  1.00  0.00     0.213 C 
ENDBRANCH   6   8
ENDBRANCH   1   6
BRANCH   2  10
HETATM   10  N   LIG     1      -0.903  -2.057  -0.105  1.00  0.00    -0.398 N 
ATOM     11  HN2 LIG     1      -0.123  -2.708  -0.010  1.00  0.00     0.156 HD
ATOM     12  HN1 LIG     1      -1.798  -2.524  -0.250  1.00  0.00     0.156 HD
ENDBRANCH   2  10
TORSDOF 3
