REMARK  3 active torsions:
REMARK  status: ('A' for Active; 'I' for Inactive)
REMARK    1  A    between atoms: C_1  and  C_2 
REMARK    2  A    between atoms: C_1  and  O_3 
REMARK    3  A    between atoms: O_3  and  C_5 
ROOT
HETATM    1  C   LIG     1       0.813   0.113  -1.337  1.00  0.00     0.070 A 
HETATM    2  C   LIG     1       0.700  -0.310  -4.121  1.00  0.00     0.034 A 
HETATM    3 CL   LIG     1       0.633  -0.542  -5.823  1.00  0.00    -0.084 Cl
HETATM    4  C   LIG     1       1.113   1.135  -2.240  1.00  0.00     0.038 A 
HETATM    5  C   LIG     1       0.474  -1.145  -1.857  1.00  0.00     0.038 A 
HETATM    6  C   LIG     1       1.046   0.934  -3.619  1.00  0.00     0.026 A 
HETATM    7  C   LIG     1       0.418  -1.357  -3.246  1.00  0.00     0.026 A 
ENDROOT
BRANCH   1   8
HETATM    8  O   LIG     1       0.807   0.243   0.033  1.00  0.00    -0.330 OA
BRANCH   8   9
HETATM    9  C   LIG     1       1.157   1.509   0.635  1.00  0.00     0.148 C 
HETATM   10  C   LIG     1       0.806   1.429   2.135  1.00  0.00     0.058 C 
HETATM   11  C   LIG     1       2.682   1.712   0.564  1.00  0.00     0.058 C 
BRANCH   9  12
HETATM   12  C   LIG     1       0.317   2.715   0.158  1.00  0.00     0.209 C 
HETATM   13  O   LIG     1      -0.873   2.703  -0.153  1.00  0.00    -0.646 OA
HETATM   14  O   LIG     1       0.992   3.879   0.105  1.00  0.00    -0.646 OA
ENDBRANCH   9  12
ENDBRANCH   8   9
ENDBRANCH   1   8
TORSDOF 3
