REMARK  3 active torsions:
REMARK  status: ('A' for Active; 'I' for Inactive)
REMARK    1  A    between atoms: C_1  and  C_3 
REMARK    2  A    between atoms: C_2  and  C_3 
REMARK    3  A    between atoms: C_4  and  O_7 
ROOT
HETATM    1  C   LIG     1      -0.744   1.059  -1.793  1.00  0.00    -0.015 A 
HETATM    2  C   LIG     1      -0.672   2.247  -2.531  1.00  0.00     0.072 A 
HETATM    3  C   LIG     1      -1.505  -0.001  -2.304  1.00  0.00     0.010 A 
HETATM    4  C   LIG     1      -1.327   2.383  -3.752  1.00  0.00     0.037 A 
HETATM    5  C   LIG     1      -2.170   0.131  -3.524  1.00  0.00     0.001 A 
HETATM    6  C   LIG     1      -2.080   1.320  -4.247  1.00  0.00     0.003 A 
ENDROOT
BRANCH   1   7
HETATM    7  C   LIG     1      -0.083   0.934  -0.439  1.00  0.00     0.154 C 
BRANCH   7   8
HETATM    8  C   LIG     1      -0.964   1.309   0.731  1.00  0.00     0.177 C 
HETATM    9  O   LIG     1      -0.868   0.773   1.832  1.00  0.00    -0.648 OA
HETATM   10  O   LIG     1      -1.829   2.325   0.521  1.00  0.00    -0.648 OA
ENDBRANCH   7   8
ENDBRANCH   1   7
BRANCH   2  11
HETATM   11  O   LIG     1      -0.004   3.305  -1.987  1.00  0.00    -0.360 OA
ATOM     12  HO  LIG     1       0.045   4.111  -2.488  1.00  0.00     0.217 HD
ENDBRANCH   2  11
TORSDOF 3
