REMARK  0 active torsions:
REMARK  status: ('A' for Active; 'I' for Inactive)
ROOT
HETATM    1  N   LIG     1      -1.352  -0.166  -0.000  1.00  0.00    -0.354 N 
ATOM      2  HN  LIG     1      -2.370  -0.236   0.008  1.00  0.00     0.166 HD
HETATM    3  C   LIG     1      -0.576  -1.260   0.050  1.00  0.00     0.116 A 
HETATM    4  C   LIG     1      -0.728   1.033  -0.061  1.00  0.00     0.096 A 
HETATM    5  N   LIG     1      -1.233  -2.485   0.128  1.00  0.00    -0.083 NA
HETATM    6  C   LIG     1       0.810  -1.201   0.054  1.00  0.00     0.045 A 
HETATM    7  C   LIG     1       0.652   1.198  -0.071  1.00  0.00    -0.046 A 
HETATM    8  C   LIG     1       1.431   0.044  -0.013  1.00  0.00     0.011 A 
HETATM    9  C   LIG     1       1.282   2.551  -0.153  1.00  0.00     0.049 C 
ENDROOT
TORSDOF 0
