REMARK  0 active torsions:
REMARK  status: ('A' for Active; 'I' for Inactive)
ROOT
HETATM    1  C   LIG     1       0.020   0.684   0.022  1.00  0.00    -0.028 A 
HETATM    2  O   LIG     1      -2.417   0.633  -0.304  1.00  0.00    -0.386 OA
HETATM    3  C   LIG     1       0.039  -0.722  -0.014  1.00  0.00    -0.048 A 
HETATM    4  C   LIG     1      -1.291   1.432   0.077  1.00  0.00     0.206 C 
HETATM    5  C   LIG     1      -2.425  -0.613   0.395  1.00  0.00     0.172 C 
HETATM    6  C   LIG     1      -1.262  -1.480  -0.079  1.00  0.00     0.065 C 
HETATM    7  C   LIG     1       1.233   1.386   0.060  1.00  0.00     0.010 A 
HETATM    8  C   LIG     1       1.261  -1.402  -0.055  1.00  0.00     0.008 A 
HETATM    9  C   LIG     1       2.447   0.701   0.033  1.00  0.00     0.001 A 
HETATM   10  C   LIG     1       2.461  -0.692  -0.028  1.00  0.00     0.001 A 
ENDROOT
TORSDOF 0
