REMARK  0 active torsions:
REMARK  status: ('A' for Active; 'I' for Inactive)
ROOT
HETATM    1  S   LIG     1      -0.417  -1.556  -0.016  1.00  0.00    -0.039 SA
HETATM    2  C   LIG     1       1.027  -0.626  -0.041  1.00  0.00     0.158 A 
HETATM    3  N   LIG     1       0.821   0.671  -0.003  1.00  0.00    -0.279 N 
ATOM      4  HN  LIG     1       1.570   1.363   0.008  1.00  0.00     0.189 HD
HETATM    5  N   LIG     1      -0.521   0.994   0.021  1.00  0.00    -0.296 N 
ATOM      6  HN  LIG     1      -0.877   1.949   0.047  1.00  0.00     0.187 HD
HETATM    7  C   LIG     1      -1.286  -0.076   0.007  1.00  0.00     0.066 A 
HETATM    8  N   LIG     1       2.239  -1.207  -0.101  1.00  0.00    -0.379 N 
ATOM      9  HN1 LIG     1       3.096  -0.655  -0.116  1.00  0.00     0.158 HD
ATOM     10  HN2 LIG     1       2.399  -2.214  -0.131  1.00  0.00     0.158 HD
HETATM   11  C   LIG     1      -2.770  -0.049   0.005  1.00  0.00     0.078 C 
ENDROOT
TORSDOF 0
