REMARK  1 active torsions:
REMARK  status: ('A' for Active; 'I' for Inactive)
REMARK    1  A    between atoms: C_1  and  C_4 
ROOT
HETATM    1  C   LIG     1       1.587  -0.155   0.119  1.00  0.00     0.100 A 
HETATM    2  N   LIG     1       0.732  -0.934   0.845  1.00  0.00    -0.360 N 
ATOM      3  HN  LIG     1       1.058  -1.734   1.387  1.00  0.00     0.165 HD
HETATM    4  C   LIG     1       1.139   0.944  -0.622  1.00  0.00     0.035 A 
HETATM    5  N   LIG     1      -0.185   1.280  -0.647  1.00  0.00    -0.366 N 
ATOM      6  HN  LIG     1      -0.525   2.079  -1.182  1.00  0.00     0.165 HD
HETATM    7  C   LIG     1      -0.572  -0.581   0.803  1.00  0.00     0.105 A 
HETATM    8  C   LIG     1      -1.021   0.501   0.073  1.00  0.00     0.105 A 
HETATM    9  C   LIG     1       2.041   1.828  -1.426  1.00  0.00     0.070 C 
ENDROOT
BRANCH   1  10
HETATM   10  C   LIG     1       3.021  -0.570   0.179  1.00  0.00     0.173 C 
HETATM   11  O   LIG     1       3.882  -0.047  -0.525  1.00  0.00    -0.291 OA
HETATM   12  C   LIG     1       3.376  -1.680   1.136  1.00  0.00     0.098 C 
ENDBRANCH   1  10
TORSDOF 1
