REMARK  2 active torsions:
REMARK  status: ('A' for Active; 'I' for Inactive)
REMARK    1  A    between atoms: C_1  and  C_8 
REMARK    2  A    between atoms: N_4  and  C_8 
ROOT
HETATM    1  C   LIG     1      -1.350  -0.205  -0.129  1.00  0.00    -0.011 A 
HETATM    2  C   LIG     1      -0.518  -1.331  -0.022  1.00  0.00     0.042 A 
HETATM    3 CL   LIG     1      -1.153  -2.938   0.018  1.00  0.00    -0.084 Cl
HETATM    4  C   LIG     1      -0.753   1.069  -0.113  1.00  0.00     0.010 A 
HETATM    5  C   LIG     1       0.871  -1.184   0.068  1.00  0.00     0.024 A 
HETATM    6  C   LIG     1       0.633   1.213  -0.022  1.00  0.00     0.001 A 
HETATM    7  C   LIG     1       1.446   0.087   0.065  1.00  0.00     0.002 A 
ENDROOT
BRANCH   1   8
HETATM    8  C   LIG     1      -2.852  -0.300  -0.219  1.00  0.00     0.269 C 
BRANCH   8   9
HETATM    9  N   LIG     1      -3.468  -0.244   1.101  1.00  0.00    -0.075 N 
ATOM     10  HN3 LIG     1      -3.085  -0.956   1.723  1.00  0.00     0.274 HD
ATOM     11  HN2 LIG     1      -3.176   0.587   1.615  1.00  0.00     0.274 HD
ATOM     12  HN1 LIG     1      -4.484  -0.308   1.040  1.00  0.00     0.274 HD
ENDBRANCH   8   9
ENDBRANCH   1   8
TORSDOF 2
