REMARK  2 active torsions:
REMARK  status: ('A' for Active; 'I' for Inactive)
REMARK    1  A    between atoms: C_3  and  O_10 
REMARK    2  A    between atoms: C_4  and  C_9 
ROOT
HETATM    1  N   LIG     1       5.192  -0.155  -2.016  1.00  0.00    -0.197 NA
HETATM    2  C   LIG     1       4.453  -0.134  -1.122  1.00  0.00     0.063 C 
HETATM    3  C   LIG     1       3.493  -0.126  -0.008  1.00  0.00     0.162 C 
ENDROOT
BRANCH   3   4
HETATM    4  C   LIG     1       3.971   0.688   1.171  1.00  0.00    -0.045 A 
HETATM    5  C   LIG     1       3.673   2.055   1.264  1.00  0.00     0.011 A 
HETATM    6  C   LIG     1       4.127   2.813   2.350  1.00  0.00     0.037 A 
HETATM    7  C   LIG     1       4.890   2.218   3.353  1.00  0.00     0.068 A 
HETATM    8  C   LIG     1       5.196   0.859   3.259  1.00  0.00     0.037 A 
HETATM    9  C   LIG     1       4.746   0.097   2.178  1.00  0.00     0.011 A 
BRANCH   7  10
HETATM   10  O   LIG     1       5.393   2.842   4.461  1.00  0.00    -0.356 OA
HETATM   11  C   LIG     1       5.127   4.232   4.592  1.00  0.00     0.210 C 
ENDBRANCH   7  10
ENDBRANCH   3   4
TORSDOF 2
