REMARK  2 active torsions:
REMARK  status: ('A' for Active; 'I' for Inactive)
REMARK    1  A    between atoms: S_1  and  C_2 
REMARK    2  A    between atoms: S_1  and  N_5 
ROOT
HETATM    1  C   LIG     1       0.447   1.179   1.113  1.00  0.00     0.085 A 
HETATM    2  C   LIG     1       0.899   2.506   0.972  1.00  0.00    -0.039 A 
HETATM    3  C   LIG     1      -0.422   0.831   2.157  1.00  0.00     0.026 A 
HETATM    4  C   LIG     1       1.836   2.934  -0.124  1.00  0.00     0.050 C 
HETATM    5  C   LIG     1       0.472   3.461   1.910  1.00  0.00     0.008 A 
HETATM    6  C   LIG     1      -0.840   1.797   3.072  1.00  0.00     0.002 A 
HETATM    7  C   LIG     1      -0.391   3.109   2.949  1.00  0.00     0.001 A 
ENDROOT
BRANCH   1   8
HETATM    8  S   LIG     1       0.984  -0.069  -0.029  1.00  0.00     0.257 S 
HETATM    9  O   LIG     1       2.427  -0.140  -0.000  1.00  0.00    -0.201 OA
HETATM   10  O   LIG     1       0.231   0.075  -1.252  1.00  0.00    -0.201 OA
BRANCH   8  11
HETATM   11  N   LIG     1       0.475  -1.528   0.638  1.00  0.00    -0.324 N 
ATOM     12  HN2 LIG     1      -0.033  -1.652   1.514  1.00  0.00     0.169 HD
ATOM     13  HN1 LIG     1       0.784  -2.245  -0.018  1.00  0.00     0.169 HD
ENDBRANCH   8  11
ENDBRANCH   1   8
TORSDOF 2
