REMARK  2 active torsions:
REMARK  status: ('A' for Active; 'I' for Inactive)
REMARK    1  A    between atoms: C_1  and  C_2 
REMARK    2  A    between atoms: C_3  and  O_11 
ROOT
HETATM    1  C   LIG     1      -1.353   0.099  -0.078  1.00  0.00     0.075 A 
HETATM    2  C   LIG     1      -0.554  -1.059  -0.012  1.00  0.00     0.085 A 
HETATM    3  C   LIG     1      -0.756   1.371  -0.088  1.00  0.00     0.045 A 
HETATM    4  C   LIG     1       0.840  -0.918   0.032  1.00  0.00     0.039 A 
HETATM    5  C   LIG     1       0.628   1.488  -0.037  1.00  0.00     0.035 A 
HETATM    6  C   LIG     1       1.428   0.351   0.018  1.00  0.00     0.026 A 
HETATM    7 CL   LIG     1       1.358   3.046  -0.048  1.00  0.00    -0.084 Cl
ENDROOT
BRANCH   1   8
HETATM    8  C   LIG     1      -2.832  -0.000  -0.169  1.00  0.00     0.212 C 
HETATM    9  O   LIG     1      -3.495  -0.883  -0.677  1.00  0.00    -0.644 OA
HETATM   10  O   LIG     1      -3.431   1.062   0.405  1.00  0.00    -0.644 OA
ENDBRANCH   1   8
BRANCH   2  11
HETATM   11  O   LIG     1      -1.200  -2.263   0.042  1.00  0.00    -0.355 OA
HETATM   12  C   LIG     1      -0.417  -3.449   0.028  1.00  0.00     0.210 C 
ENDBRANCH   2  11
TORSDOF 2
