REMARK  0 active torsions:
REMARK  status: ('A' for Active; 'I' for Inactive)
ROOT
HETATM    1  N   LIG     1      -1.505   0.755   0.105  1.00  0.00    -0.073 N 
ATOM      2  HN1 LIG     1      -2.370   1.162  -0.250  1.00  0.00     0.277 HD
ATOM      3  HN2 LIG     1      -1.624   0.950   1.099  1.00  0.00     0.277 HD
HETATM    4  N   LIG     1       0.958  -1.245  -0.363  1.00  0.00    -0.073 N 
ATOM      5  HN1 LIG     1       0.740  -1.245  -1.360  1.00  0.00     0.277 HD
ATOM      6  HN2 LIG     1       1.560  -2.067  -0.318  1.00  0.00     0.277 HD
HETATM    7  C   LIG     1       0.914   1.204   0.402  1.00  0.00     0.055 C 
HETATM    8  C   LIG     1      -0.339   1.460  -0.428  1.00  0.00     0.234 C 
HETATM    9  C   LIG     1       1.703  -0.043  -0.001  1.00  0.00     0.234 C 
HETATM   10  C   LIG     1      -1.467  -0.691  -0.144  1.00  0.00     0.259 C 
HETATM   11  C   LIG     1      -0.255  -1.453   0.428  1.00  0.00     0.259 C 
ENDROOT
TORSDOF 0
