REMARK  2 active torsions:
REMARK  status: ('A' for Active; 'I' for Inactive)
REMARK    1  A    between atoms: C_1  and  O_2 
REMARK    2  A    between atoms: O_2  and  C_3 
ROOT
HETATM    1  C   LIG     1       0.756   0.377  -2.677  1.00  0.00     0.102 A 
HETATM    2  C   LIG     1       0.783  -0.185  -3.968  1.00  0.00     0.080 A 
HETATM    3  N   LIG     1       0.775  -1.582  -4.145  1.00  0.00    -0.100 NA
HETATM    4  C   LIG     1       0.908   1.759  -2.515  1.00  0.00     0.039 A 
HETATM    5  C   LIG     1       1.028   0.642  -5.070  1.00  0.00     0.029 A 
HETATM    6  C   LIG     1       1.103   2.577  -3.631  1.00  0.00     0.003 A 
HETATM    7  C   LIG     1       1.167   2.020  -4.905  1.00  0.00     0.002 A 
ENDROOT
BRANCH   1   8
HETATM    8  O   LIG     1       0.599  -0.520  -1.651  1.00  0.00    -0.253 OA
BRANCH   8   9
HETATM    9  C   LIG     1      -0.008  -0.035  -0.468  1.00  0.00     0.530 C 
HETATM   10  F   LIG     1      -1.171   0.597  -0.736  1.00  0.00    -0.144 F 
HETATM   11  F   LIG     1       0.816   0.796   0.204  1.00  0.00    -0.144 F 
HETATM   12  F   LIG     1      -0.282  -1.088   0.335  1.00  0.00    -0.144 F 
ENDBRANCH   8   9
ENDBRANCH   1   8
TORSDOF 2
