REMARK  0 active torsions:
REMARK  status: ('A' for Active; 'I' for Inactive)
ROOT
HETATM    1  O   LIG     1      -1.715   0.813  -0.016  1.00  0.00    -0.350 OA
HETATM    2  C   LIG     1      -0.377   0.535  -0.003  1.00  0.00     0.075 A 
HETATM    3  C   LIG     1      -0.079  -0.816  -0.002  1.00  0.00    -0.023 A 
HETATM    4  C   LIG     1      -2.364  -0.479   0.018  1.00  0.00     0.180 A 
HETATM    5  C   LIG     1      -1.327  -1.605  -0.021  1.00  0.00     0.068 A 
HETATM    6  C   LIG     1       0.611   1.499   0.000  1.00  0.00     0.037 A 
HETATM    7  C   LIG     1       1.235  -1.254   0.002  1.00  0.00     0.010 A 
HETATM    8  C   LIG     1       1.941   1.075   0.005  1.00  0.00     0.003 A 
HETATM    9  C   LIG     1       2.251  -0.295   0.006  1.00  0.00     0.001 A 
ENDROOT
TORSDOF 0
