REMARK  1 active torsions:
REMARK  status: ('A' for Active; 'I' for Inactive)
REMARK    1  A    between atoms: C_1  and  C_4 
ROOT
HETATM    1  C   LIG     1       0.081  -1.392   0.107  1.00  0.00     0.082 A 
HETATM    2  C   LIG     1       1.269  -0.658   0.062  1.00  0.00     0.174 A 
HETATM    3  C   LIG     1       1.226   0.730  -0.018  1.00  0.00     0.194 A 
HETATM    4  C   LIG     1      -1.151  -0.717   0.052  1.00  0.00     0.025 A 
HETATM    5  C   LIG     1       0.005   1.391  -0.060  1.00  0.00     0.158 A 
HETATM    6  C   LIG     1      -1.188   0.677  -0.028  1.00  0.00     0.047 A 
HETATM    7  F   LIG     1       2.467  -1.260   0.070  1.00  0.00    -0.202 F 
HETATM    8  F   LIG     1       2.368   1.432  -0.062  1.00  0.00    -0.200 F 
HETATM    9  F   LIG     1      -0.035   2.728  -0.139  1.00  0.00    -0.203 F 
ENDROOT
BRANCH   1  10
HETATM   10  C   LIG     1       0.053  -2.866   0.193  1.00  0.00     0.212 C 
HETATM   11  O   LIG     1      -0.921  -3.557  -0.045  1.00  0.00    -0.644 OA
HETATM   12  O   LIG     1       1.199  -3.403   0.632  1.00  0.00    -0.644 OA
ENDBRANCH   1  10
TORSDOF 1
