REMARK  2 active torsions:
REMARK  status: ('A' for Active; 'I' for Inactive)
REMARK    1  A    between atoms: C_1  and  N_2 
REMARK       I    between atoms: N_2  and  C_4 
REMARK    2  A    between atoms: C_5  and  O_11 
ROOT
HETATM    1  C   LIG     1      -0.522  -0.921  -0.185  1.00  0.00     0.068 A 
HETATM    2  C   LIG     1       0.728  -1.533  -0.019  1.00  0.00     0.092 A 
HETATM    3  C   LIG     1      -0.554   0.494  -0.213  1.00  0.00     0.039 A 
HETATM    4  C   LIG     1       1.891  -0.769   0.112  1.00  0.00     0.039 A 
HETATM    5  C   LIG     1       0.615   1.266  -0.074  1.00  0.00    -0.060 A 
HETATM    6  C   LIG     1       1.841   0.619   0.077  1.00  0.00     0.009 A 
HETATM    7  C   LIG     1       0.585   2.766  -0.144  1.00  0.00     0.048 C 
ENDROOT
BRANCH   1   8
HETATM    8  N   LIG     1      -1.786  -1.560  -0.332  1.00  0.00    -0.325 N 
HETATM    9  C   LIG     1      -2.084  -2.905  -0.339  1.00  0.00     0.218 C 
HETATM   10  O   LIG     1      -1.273  -3.826  -0.217  1.00  0.00    -0.274 OA
HETATM   11  C   LIG     1      -3.549  -3.214  -0.480  1.00  0.00     0.117 C 
ATOM     12  HN  LIG     1      -2.583  -0.934  -0.448  1.00  0.00     0.169 HD
ENDBRANCH   1   8
BRANCH   2  13
HETATM   13  O   LIG     1       0.973  -2.874   0.024  1.00  0.00    -0.358 OA
ATOM     14  HO  LIG     1       1.820  -3.289   0.137  1.00  0.00     0.217 HD
ENDBRANCH   2  13
TORSDOF 2
