REMARK  7 active torsions:
REMARK  status: ('A' for Active; 'I' for Inactive)
REMARK    1  A    between atoms: C_1  and  C_6 
REMARK    2  A    between atoms: C_3  and  C_13 
REMARK    3  A    between atoms: C_6  and  N_7 
REMARK    4  A    between atoms: S_8  and  C_13 
REMARK    5  A    between atoms: S_8  and  C_14 
REMARK    6  A    between atoms: N_9  and  C_17 
REMARK    7  A    between atoms: C_14  and  C_17 
ROOT
HETATM    1  C   LIG     1      -1.343  -0.737  -0.319  1.00  0.00     0.081 A 
HETATM    2  O   LIG     1      -0.040  -0.385  -0.114  1.00  0.00    -0.317 OA
HETATM    3  C   LIG     1       0.046   0.966  -0.238  1.00  0.00     0.062 A 
HETATM    4  C   LIG     1      -2.097   0.393  -0.553  1.00  0.00     0.037 A 
HETATM    5  C   LIG     1      -1.202   1.493  -0.511  1.00  0.00     0.036 A 
ENDROOT
BRANCH   3   6
HETATM    6  C   LIG     1       1.401   1.550  -0.078  1.00  0.00     0.139 C 
BRANCH   6   7
HETATM    7  S   LIG     1       1.767   2.021   1.638  1.00  0.00    -0.161 SA
BRANCH   7   8
HETATM    8  C   LIG     1       1.592   0.405   2.495  1.00  0.00     0.101 C 
BRANCH   8   9
HETATM    9  C   LIG     1       2.546  -0.694   2.009  1.00  0.00     0.239 C 
BRANCH   9  10
HETATM   10  N   LIG     1       3.954  -0.336   2.176  1.00  0.00    -0.079 N 
ATOM     11  HN3 LIG     1       4.161   0.554   1.723  1.00  0.00     0.274 HD
ATOM     12  HN2 LIG     1       4.154  -0.080   3.143  1.00  0.00     0.274 HD
ATOM     13  HN1 LIG     1       4.588  -1.067   1.853  1.00  0.00     0.274 HD
ENDBRANCH   9  10
ENDBRANCH   8   9
ENDBRANCH   7   8
ENDBRANCH   6   7
ENDBRANCH   3   6
BRANCH   1  14
HETATM   14  C   LIG     1      -1.671  -2.194  -0.223  1.00  0.00     0.335 C 
BRANCH  14  15
HETATM   15  N   LIG     1      -1.057  -3.075  -1.234  1.00  0.00     0.086 N 
HETATM   16  C   LIG     1      -1.412  -2.698  -2.598  1.00  0.00     0.309 C 
HETATM   17  C   LIG     1       0.389  -3.202  -1.076  1.00  0.00     0.309 C 
ENDBRANCH  14  15
ENDBRANCH   1  14
TORSDOF 7
