REMARK  3 active torsions:
REMARK  status: ('A' for Active; 'I' for Inactive)
REMARK    1  A    between atoms: C_1  and  O_3 
REMARK    2  A    between atoms: C_2  and  C_4 
REMARK    3  A    between atoms: O_3  and  C_6 
ROOT
HETATM    1  C   LIG     1       1.313  -2.114   4.911  1.00  0.00     0.012 A 
HETATM    2  C   LIG     1       0.927  -1.478   3.725  1.00  0.00     0.052 A 
HETATM    3  C   LIG     1       1.099  -0.093   3.571  1.00  0.00     0.079 A 
HETATM    4  C   LIG     1       1.877  -1.355   5.946  1.00  0.00     0.015 A 
HETATM    5  C   LIG     1       2.055   0.017   5.793  1.00  0.00     0.004 A 
HETATM    6  C   LIG     1       1.669   0.645   4.611  1.00  0.00     0.037 A 
ENDROOT
BRANCH   3   7
HETATM    7  O   LIG     1       0.675   0.421   2.375  1.00  0.00    -0.255 OA
BRANCH   7   8
HETATM    8  C   LIG     1       0.806   1.825   2.193  1.00  0.00     0.530 C 
HETATM    9  F   LIG     1       0.123   2.506   3.139  1.00  0.00    -0.144 F 
HETATM   10  F   LIG     1       0.298   2.163   0.988  1.00  0.00    -0.144 F 
HETATM   11  F   LIG     1       2.104   2.196   2.220  1.00  0.00    -0.144 F 
ENDBRANCH   7   8
ENDBRANCH   3   7
BRANCH   1  12
HETATM   12  C   LIG     1       1.157  -3.585   5.145  1.00  0.00     0.155 C 
HETATM   13  O   LIG     1       1.519  -4.078   6.208  1.00  0.00    -0.293 OA
HETATM   14  C   LIG     1       0.555  -4.439   4.059  1.00  0.00     0.096 C 
ENDBRANCH   1  12
TORSDOF 3
