REMARK  0 active torsions:
REMARK  status: ('A' for Active; 'I' for Inactive)
ROOT
HETATM    1  N   LIG     1       1.389   0.070   0.028  1.00  0.00    -0.375 N 
ATOM      2  HN  LIG     1       2.408   0.125   0.026  1.00  0.00     0.164 HD
HETATM    3  C   LIG     1      -1.416  -0.081  -0.065  1.00  0.00     0.049 A 
HETATM    4  N   LIG     1      -2.811  -0.158   0.033  1.00  0.00    -0.102 NA
HETATM    5  C   LIG     1      -0.770   1.149   0.011  1.00  0.00     0.043 A 
HETATM    6  C   LIG     1      -0.641  -1.237  -0.004  1.00  0.00     0.043 A 
HETATM    7  C   LIG     1       0.740  -1.113   0.024  1.00  0.00     0.089 A 
HETATM    8  C   LIG     1       0.616   1.176   0.035  1.00  0.00     0.089 A 
ENDROOT
TORSDOF 0
