REMARK  1 active torsions:
REMARK  status: ('A' for Active; 'I' for Inactive)
REMARK    1  A    between atoms: C_1  and  C_3 
ROOT
HETATM    1  C   LIG     1      -0.404  -1.060   0.009  1.00  0.00     0.120 A 
HETATM    2  O   LIG     1       0.909  -0.669   0.018  1.00  0.00    -0.319 OA
HETATM    3  C   LIG     1      -1.209   0.066  -0.006  1.00  0.00     0.043 A 
HETATM    4  C   LIG     1       0.932   0.687   0.007  1.00  0.00     0.142 A 
HETATM    5  C   LIG     1      -0.346   1.189  -0.007  1.00  0.00     0.027 A 
ENDROOT
BRANCH   1   6
HETATM    6  C   LIG     1      -0.696  -2.481   0.017  1.00  0.00     0.179 C 
HETATM    7  O   LIG     1       0.166  -3.360   0.035  1.00  0.00    -0.291 OA
HETATM    8  C   LIG     1      -2.157  -2.863   0.000  1.00  0.00     0.099 C 
ENDBRANCH   1   6
TORSDOF 1
