REMARK  6 active torsions:
REMARK  status: ('A' for Active; 'I' for Inactive)
REMARK    1  A    between atoms: C_1  and  O_9 
REMARK    2  A    between atoms: C_1  and  C_2 
REMARK    3  A    between atoms: C_2  and  C_4 
REMARK    4  A    between atoms: C_2  and  N_5 
REMARK    5  A    between atoms: C_4  and  C_10 
REMARK    6  A    between atoms: O_9  and  C_11 
ROOT
HETATM    1 CL   LIG     2       2.250   0.756   1.645  1.00  0.00     0.000 Cl
ENDROOT
TORSDOF 6
