REMARK  0 active torsions:
REMARK  status: ('A' for Active; 'I' for Inactive)
ROOT
HETATM    1  N   LIG     1       0.928   0.024   0.087  1.00  0.00    -0.190 NA
HETATM    2  C   LIG     1       2.088   0.048   0.029  1.00  0.00     0.119 C 
HETATM    3  C   LIG     1       3.519   0.022  -0.050  1.00  0.00     0.129 A 
HETATM    4  N   LIG     1       4.160   1.220  -0.101  1.00  0.00    -0.355 N 
ATOM      5  HN  LIG     1       3.659   2.108  -0.071  1.00  0.00     0.166 HD
HETATM    6  N   LIG     1       5.561  -1.244  -0.178  1.00  0.00    -0.371 N 
ATOM      7  HN  LIG     1       6.065  -2.130  -0.203  1.00  0.00     0.164 HD
HETATM    8  C   LIG     1       4.208  -1.181  -0.085  1.00  0.00     0.128 A 
HETATM    9  C   LIG     1       5.510   1.154  -0.194  1.00  0.00     0.106 A 
HETATM   10  C   LIG     1       6.195  -0.050  -0.235  1.00  0.00     0.104 A 
ENDROOT
TORSDOF 0
