REMARK  3 active torsions:
REMARK  status: ('A' for Active; 'I' for Inactive)
REMARK    1  A    between atoms: C_1  and  C_3 
REMARK       I    between atoms: C_1  and  N_4 
REMARK    2  A    between atoms: C_3  and  C_7 
REMARK    3  A    between atoms: C_8  and  O_13 
ROOT
HETATM    1  C   LIG     1       0.624  -2.322   0.584  1.00  0.00    -0.049 A 
HETATM    2  C   LIG     1       1.057  -5.057   0.203  1.00  0.00     0.065 A 
HETATM    3  C   LIG     1       1.438  -2.773  -0.465  1.00  0.00     0.010 A 
HETATM    4  C   LIG     1       0.040  -3.264   1.446  1.00  0.00     0.010 A 
HETATM    5  C   LIG     1       0.253  -4.631   1.255  1.00  0.00     0.037 A 
HETATM    6  C   LIG     1       1.652  -4.140  -0.654  1.00  0.00     0.037 A 
ENDROOT
BRANCH   1   7
HETATM    7  C   LIG     1       0.394  -0.844   0.794  1.00  0.00     0.141 C 
BRANCH   7   8
HETATM    8  C   LIG     1      -1.066  -0.446   0.715  1.00  0.00     0.219 C 
HETATM    9  O   LIG     1      -1.678   0.069   1.649  1.00  0.00    -0.273 OA
HETATM   10  N   LIG     1      -1.674  -0.653  -0.489  1.00  0.00    -0.370 N 
ATOM     11  HN2 LIG     1      -2.657  -0.385  -0.542  1.00  0.00     0.159 HD
ATOM     12  HN1 LIG     1      -1.166  -1.080  -1.264  1.00  0.00     0.159 HD
ENDBRANCH   7   8
ENDBRANCH   1   7
BRANCH   2  13
HETATM   13  O   LIG     1       1.290  -6.381  -0.022  1.00  0.00    -0.361 OA
ATOM     14  HO  LIG     1       1.839  -6.672  -0.741  1.00  0.00     0.217 HD
ENDBRANCH   2  13
TORSDOF 3
