REMARK  3 active torsions:
REMARK  status: ('A' for Active; 'I' for Inactive)
REMARK    1  A    between atoms: C_1  and  S_2 
REMARK    2  A    between atoms: S_2  and  C_6 
REMARK    3  A    between atoms: C_7  and  O_12 
ROOT
HETATM    1  C   LIG     1       0.869  -2.641  -1.930  1.00  0.00     0.009 A 
HETATM    2  C   LIG     1       1.531  -3.430  -4.527  1.00  0.00     0.065 A 
HETATM    3  C   LIG     1       1.129  -1.681  -2.911  1.00  0.00     0.021 A 
HETATM    4  C   LIG     1       0.951  -4.001  -2.263  1.00  0.00     0.021 A 
HETATM    5  C   LIG     1       1.462  -2.075  -4.211  1.00  0.00     0.038 A 
HETATM    6  C   LIG     1       1.285  -4.395  -3.562  1.00  0.00     0.038 A 
ENDROOT
BRANCH   1   7
HETATM    7  S   LIG     1       0.286  -2.181  -0.311  1.00  0.00    -0.016 SA
BRANCH   7   8
HETATM    8  C   LIG     1       1.838  -1.824   0.519  1.00  0.00     0.448 C 
HETATM    9  F   LIG     1       2.860  -2.599   0.089  1.00  0.00    -0.160 F 
HETATM   10  F   LIG     1       1.717  -2.035   1.854  1.00  0.00    -0.160 F 
HETATM   11  F   LIG     1       2.203  -0.531   0.353  1.00  0.00    -0.160 F 
ENDBRANCH   7   8
ENDBRANCH   1   7
BRANCH   2  12
HETATM   12  O   LIG     1       1.831  -3.768  -5.813  1.00  0.00    -0.361 OA
ATOM     13  HO  LIG     1       2.000  -3.107  -6.474  1.00  0.00     0.217 HD
ENDBRANCH   2  12
TORSDOF 3
