REMARK  2 active torsions:
REMARK  status: ('A' for Active; 'I' for Inactive)
REMARK    1  A    between atoms: C_1  and  O_8 
REMARK    2  A    between atoms: C_5  and  O_9 
ROOT
HETATM    1  C   LIG     1      -0.689  -0.890  -0.616  1.00  0.00     0.095 A 
HETATM    2  C   LIG     1      -0.339   0.401  -0.200  1.00  0.00     0.075 A 
HETATM    3  C   LIG     1       0.240  -1.939  -0.477  1.00  0.00     0.079 A 
HETATM    4  C   LIG     1       1.455  -1.694   0.171  1.00  0.00     0.032 A 
HETATM    5  C   LIG     1       0.912   0.650   0.377  1.00  0.00     0.070 A 
HETATM    6  N   LIG     1      -0.106  -3.271  -0.784  1.00  0.00    -0.100 NA
HETATM    7  C   LIG     1       1.799  -0.402   0.573  1.00  0.00     0.039 A 
ENDROOT
BRANCH   1   8
HETATM    8  O   LIG     1      -1.891  -1.224  -1.197  1.00  0.00    -0.354 OA
HETATM    9  C   LIG     1      -2.845  -0.177  -1.342  1.00  0.00     0.210 C 
ENDBRANCH   1   8
BRANCH   5  10
HETATM   10  O   LIG     1       1.138   1.959   0.709  1.00  0.00    -0.356 OA
HETATM   11  C   LIG     1       2.410   2.257   1.271  1.00  0.00     0.210 C 
ENDBRANCH   5  10
TORSDOF 2
