REMARK  2 active torsions:
REMARK  status: ('A' for Active; 'I' for Inactive)
REMARK    1  A    between atoms: C_1  and  C_4 
REMARK    2  A    between atoms: C_4  and  O_5 
ROOT
HETATM    1  C   LIG     1      -1.377  -0.083  -0.112  1.00  0.00    -0.013 A 
HETATM    2  C   LIG     1      -0.593  -1.242  -0.014  1.00  0.00     0.042 A 
HETATM    3 CL   LIG     1      -1.301  -2.816   0.062  1.00  0.00    -0.084 Cl
HETATM    4  C   LIG     1      -0.727   1.164  -0.119  1.00  0.00     0.011 A 
HETATM    5  C   LIG     1       0.802  -1.156   0.046  1.00  0.00     0.024 A 
HETATM    6  C   LIG     1       0.666   1.248  -0.059  1.00  0.00     0.001 A 
HETATM    7  C   LIG     1       1.431   0.088   0.020  1.00  0.00     0.002 A 
ENDROOT
BRANCH   1   8
HETATM    8  C   LIG     1      -2.881  -0.116  -0.165  1.00  0.00     0.204 C 
BRANCH   8   9
HETATM    9  O   LIG     1      -3.424  -0.141   1.147  1.00  0.00    -0.396 OA
ATOM     10  HO  LIG     1      -4.373  -0.162   1.114  1.00  0.00     0.209 HD
ENDBRANCH   8   9
ENDBRANCH   1   8
TORSDOF 2
