REMARK  3 active torsions:
REMARK  status: ('A' for Active; 'I' for Inactive)
REMARK    1  A    between atoms: C_1  and  C_2 
REMARK    2  A    between atoms: C_3  and  C_10 
REMARK    3  A    between atoms: O_7  and  C_10 
ROOT
HETATM    1  C   LIG     1       0.482  -0.317   1.293  1.00  0.00     0.056 A 
HETATM    2  C   LIG     1       0.176   0.772   2.143  1.00  0.00    -0.020 A 
HETATM    3  C   LIG     1       0.397  -1.627   1.805  1.00  0.00     0.017 A 
HETATM    4  C   LIG     1      -0.218   0.512   3.468  1.00  0.00     0.010 A 
HETATM    5  C   LIG     1       0.004  -1.866   3.120  1.00  0.00     0.001 A 
HETATM    6  C   LIG     1      -0.305  -0.794   3.951  1.00  0.00     0.001 A 
ENDROOT
BRANCH   1   7
HETATM    7  C   LIG     1       0.940  -0.126  -0.140  1.00  0.00     0.418 C 
HETATM    8  F   LIG     1       0.258   0.837  -0.817  1.00  0.00    -0.166 F 
HETATM    9  F   LIG     1       0.789  -1.258  -0.892  1.00  0.00    -0.166 F 
HETATM   10  F   LIG     1       2.262   0.188  -0.228  1.00  0.00    -0.166 F 
ENDBRANCH   1   7
BRANCH   2  11
HETATM   11  C   LIG     1       0.244   2.202   1.665  1.00  0.00     0.203 C 
BRANCH  11  12
HETATM   12  O   LIG     1       1.559   2.524   1.247  1.00  0.00    -0.396 OA
ATOM     13  HO  LIG     1       1.602   3.424   0.946  1.00  0.00     0.209 HD
ENDBRANCH  11  12
ENDBRANCH   2  11
TORSDOF 3
