REMARK  1 active torsions:
REMARK  status: ('A' for Active; 'I' for Inactive)
REMARK    1  A    between atoms: C_1  and  O_11 
ROOT
HETATM    1  C   LIG     1       0.736   0.759   1.121  1.00  0.00     0.059 C 
HETATM    2  C   LIG     1      -1.518   0.280   0.101  1.00  0.00    -0.011 C 
HETATM    3  C   LIG     1       0.256  -1.515   0.147  1.00  0.00    -0.011 C 
HETATM    4  C   LIG     1       0.522   0.481  -1.374  1.00  0.00    -0.011 C 
HETATM    5  C   LIG     1      -0.776   1.031   1.218  1.00  0.00     0.042 C 
HETATM    6  C   LIG     1       0.988  -0.752   1.263  1.00  0.00     0.042 C 
HETATM    7  C   LIG     1       1.254   1.232  -0.249  1.00  0.00     0.042 C 
HETATM    8  C   LIG     1      -1.253  -1.229   0.246  1.00  0.00     0.009 C 
HETATM    9  C   LIG     1      -0.989   0.756  -1.264  1.00  0.00     0.009 C 
HETATM   10  C   LIG     1       0.773  -1.029  -1.219  1.00  0.00     0.009 C 
ENDROOT
BRANCH   1  11
HETATM   11  O   LIG     1       1.420   1.444   2.161  1.00  0.00    -0.390 OA
ATOM     12  HO  LIG     1       2.353   1.276   2.101  1.00  0.00     0.210 HD
ENDBRANCH   1  11
TORSDOF 1
