REMARK  1 active torsions:
REMARK  status: ('A' for Active; 'I' for Inactive)
REMARK    1  A    between atoms: N_1  and  C_2 
ROOT
HETATM    1  C   LIG     1       0.312  -0.527  -1.083  1.00  0.00     0.032 A 
HETATM    2  N   LIG     1      -0.892  -1.448  -3.501  1.00  0.00    -0.375 N 
ATOM      3  HN  LIG     1      -1.314  -1.772  -4.371  1.00  0.00     0.164 HD
HETATM    4  C   LIG     1       0.671  -1.742  -1.682  1.00  0.00     0.046 A 
HETATM    5  C   LIG     1      -0.696   0.194  -1.739  1.00  0.00     0.046 A 
HETATM    6  C   LIG     1      -1.252  -0.290  -2.918  1.00  0.00     0.089 A 
HETATM    7  C   LIG     1       0.060  -2.151  -2.863  1.00  0.00     0.089 A 
ENDROOT
BRANCH   1   8
HETATM    8  N   LIG     1       0.888  -0.087   0.116  1.00  0.00    -0.389 N 
HETATM    9  C   LIG     1       0.668   1.293   0.546  1.00  0.00     0.149 C 
HETATM   10  C   LIG     1       2.140  -0.697   0.564  1.00  0.00     0.149 C 
ENDBRANCH   1   8
TORSDOF 1
