REMARK  3 active torsions:
REMARK  status: ('A' for Active; 'I' for Inactive)
REMARK    1  A    between atoms: C_3  and  C_8 
REMARK    2  A    between atoms: C_8  and  C_13 
REMARK    3  A    between atoms: N_9  and  C_13 
ROOT
HETATM    1 CL   LIG     2       2.434  -1.023  -2.819  1.00  0.00     0.000 Cl
ENDROOT
TORSDOF 3
