REMARK  2 active torsions:
REMARK  status: ('A' for Active; 'I' for Inactive)
REMARK    1  A    between atoms: C_4  and  C_7 
REMARK    2  A    between atoms: C_5  and  N_14 
ROOT
HETATM    1  C   LIG     1       0.258   0.718   0.003  1.00  0.00     0.041 A 
HETATM    2  C   LIG     1       0.149  -0.672   0.008  1.00  0.00     0.089 A 
HETATM    3  C   LIG     1       2.503  -0.003  -0.071  1.00  0.00     0.114 A 
HETATM    4  C   LIG     1      -0.967   1.442   0.034  1.00  0.00     0.065 A 
HETATM    5  C   LIG     1       1.655   1.091  -0.046  1.00  0.00     0.068 A 
HETATM    6  S   LIG     1       1.646  -1.474  -0.030  1.00  0.00    -0.058 SA
HETATM    7  N   LIG     1      -0.981  -1.402   0.034  1.00  0.00    -0.354 N 
ATOM      8  HN  LIG     1      -0.970  -2.422   0.045  1.00  0.00     0.166 HD
HETATM    9  C   LIG     1       3.931   0.039  -0.112  1.00  0.00     0.109 C 
HETATM   10  N   LIG     1       5.089   0.097  -0.136  1.00  0.00    -0.191 NA
HETATM   11  C   LIG     1      -2.162   0.689   0.044  1.00  0.00     0.041 A 
HETATM   12  C   LIG     1      -2.123  -0.697   0.044  1.00  0.00     0.007 A 
HETATM   13  C   LIG     1      -3.393  -1.497   0.052  1.00  0.00     0.068 C 
ENDROOT
BRANCH   5  14
HETATM   14  N   LIG     1       2.097   2.371  -0.072  1.00  0.00    -0.397 N 
ATOM     15  HN2 LIG     1       1.472   3.177  -0.054  1.00  0.00     0.156 HD
ATOM     16  HN1 LIG     1       3.082   2.634  -0.107  1.00  0.00     0.156 HD
ENDBRANCH   5  14
BRANCH   4  17
HETATM   17  C   LIG     1      -1.092   2.944  -0.005  1.00  0.00     0.418 C 
HETATM   18  F   LIG     1      -0.050   3.613   0.562  1.00  0.00    -0.166 F 
HETATM   19  F   LIG     1      -1.198   3.421  -1.275  1.00  0.00    -0.166 F 
HETATM   20  F   LIG     1      -2.200   3.394   0.651  1.00  0.00    -0.166 F 
ENDBRANCH   4  17
TORSDOF 2
