REMARK  0 active torsions:
REMARK  status: ('A' for Active; 'I' for Inactive)
ROOT
HETATM    1  C   LIG     1      -0.327  -1.142   0.002  1.00  0.00     0.041 A 
HETATM    2  S   LIG     1       1.233   0.897  -0.002  1.00  0.00    -0.112 SA
HETATM    3  C   LIG     1      -1.175   0.000   0.000  1.00  0.00     0.031 A 
HETATM    4  C   LIG     1      -0.456   1.177  -0.001  1.00  0.00     0.051 A 
HETATM    5  C   LIG     1       1.006  -0.800  -0.001  1.00  0.00     0.073 A 
HETATM    6 CL   LIG     1      -0.926  -2.741   0.006  1.00  0.00    -0.084 Cl
ENDROOT
TORSDOF 0
