REMARK  1 active torsions:
REMARK  status: ('A' for Active; 'I' for Inactive)
REMARK    1  A    between atoms: C_3  and  C_9 
ROOT
HETATM    1  N   LIG     1       2.721  -2.305   2.428  1.00  0.00    -0.197 NA
HETATM    2  C   LIG     1       2.425  -1.936   1.367  1.00  0.00     0.065 C 
HETATM    3  C   LIG     1       2.071  -1.507   0.010  1.00  0.00     0.188 C 
ENDROOT
BRANCH   3   4
HETATM    4  C   LIG     1       0.822  -0.688   0.028  1.00  0.00     0.064 A 
HETATM    5  N   LIG     1       0.797   0.628  -0.027  1.00  0.00    -0.356 N 
HETATM    6  C   LIG     1      -0.509   1.088   0.004  1.00  0.00     0.012 A 
ATOM      7  HN  LIG     1       1.623   1.224  -0.084  1.00  0.00     0.166 HD
HETATM    8  C   LIG     1      -1.468   0.095   0.061  1.00  0.00     0.076 A 
HETATM    9  C   LIG     1      -0.746   2.553  -0.027  1.00  0.00     0.068 C 
HETATM   10  S   LIG     1      -0.723  -1.447   0.079  1.00  0.00    -0.086 SA
ENDBRANCH   3   4
TORSDOF 1
