REMARK  1 active torsions:
REMARK  status: ('A' for Active; 'I' for Inactive)
REMARK    1  A    between atoms: C_1  and  CA_5 
ROOT
ATOM      1  N   PRO A   1       0.025  -2.069  -0.762  1.00  0.00    -0.061 N 
ATOM      2  HN1 PRO A   1      -0.839  -2.336  -0.291  1.00  0.00     0.278 HD
ATOM      3  HN2 PRO A   1       0.652  -2.240   0.024  1.00  0.00     0.278 HD
ATOM      4  CA  PRO A   1       0.033  -0.646  -1.235  1.00  0.00     0.285 C 
ATOM      5  CD  PRO A   1       0.327  -2.891  -1.941  1.00  0.00     0.233 C 
ATOM      6  CB  PRO A   1       0.715  -0.647  -2.598  1.00  0.00     0.046 C 
ATOM      7  CG  PRO A   1       1.300  -2.042  -2.728  1.00  0.00     0.030 C 
ENDROOT
BRANCH   4   8
ATOM      8  C   PRO A   1       0.815   0.204  -0.225  1.00  0.00     0.204 C 
ATOM      9  O   PRO A   1       0.952   1.416  -0.287  1.00  0.00    -0.646 OA
ATOM     10  OXT PRO A   1       1.363  -0.562   0.753  1.00  0.00    -0.646 OA
ENDBRANCH   4   8
TORSDOF 1
