REMARK  1 active torsions:
REMARK  status: ('A' for Active; 'I' for Inactive)
REMARK    1  A    between atoms: C_1  and  C_4 
ROOT
HETATM    1  C   LIG     1      -0.458  -1.099   0.073  1.00  0.00     0.087 A 
HETATM    2  N   LIG     1       0.880  -0.734   0.195  1.00  0.00    -0.343 N 
ATOM      3  HN  LIG     1       1.672  -1.357   0.356  1.00  0.00     0.167 HD
HETATM    4  C   LIG     1      -1.219   0.035  -0.137  1.00  0.00     0.122 A 
HETATM    5  C   LIG     1       0.920   0.574   0.062  1.00  0.00     0.077 A 
HETATM    6  N   LIG     1      -0.338   1.080  -0.141  1.00  0.00    -0.354 N 
ATOM      7  HN  LIG     1      -0.575   2.063  -0.272  1.00  0.00     0.166 HD
HETATM    8  C   LIG     1       2.121   1.439   0.117  1.00  0.00     0.089 C 
ENDROOT
BRANCH   1   9
HETATM    9  C   LIG     1      -0.863  -2.494   0.171  1.00  0.00     0.122 C 
HETATM   10  S   LIG     1      -2.446  -2.969   0.031  1.00  0.00    -0.059 SA
HETATM   11  N   LIG     1       0.149  -3.383   0.388  1.00  0.00    -0.388 N 
ATOM     12  HN2 LIG     1       1.122  -3.091   0.474  1.00  0.00     0.157 HD
ATOM     13  HN1 LIG     1      -0.135  -4.360   0.457  1.00  0.00     0.157 HD
ENDBRANCH   1   9
TORSDOF 1
