REMARK  2 active torsions:
REMARK  status: ('A' for Active; 'I' for Inactive)
REMARK    1  A    between atoms: C_6  and  C_8 
REMARK    2  A    between atoms: C_8  and  C_9 
ROOT
HETATM    1  C   LIG     1      -0.440   2.022  -0.417  1.00  0.00     0.361 C 
HETATM    2  N   LIG     1      -0.248   0.675  -0.542  1.00  0.00    -0.330 N 
ATOM      3  HN  LIG     1      -0.892   0.032  -1.002  1.00  0.00     0.165 HD
HETATM    4  O   LIG     1       0.439   2.529   0.498  1.00  0.00    -0.302 OA
HETATM    5  O   LIG     1      -1.245   2.679  -1.055  1.00  0.00    -0.239 OA
HETATM    6  C   LIG     1       0.990   0.300   0.068  1.00  0.00     0.115 C 
HETATM    7  C   LIG     1       1.135   1.419   1.087  1.00  0.00     0.206 C 
ENDROOT
BRANCH   6   8
HETATM    8  C   LIG     1       2.158   0.290  -0.935  1.00  0.00     0.066 C 
BRANCH   8   9
HETATM    9  C   LIG     1       1.982  -0.716  -2.052  1.00  0.00    -0.056 A 
HETATM   10  C   LIG     1       2.440  -2.032  -1.908  1.00  0.00     0.007 A 
HETATM   11  C   LIG     1       2.300  -2.949  -2.952  1.00  0.00     0.001 A 
HETATM   12  C   LIG     1       1.694  -2.564  -4.147  1.00  0.00     0.000 A 
HETATM   13  C   LIG     1       1.218  -1.263  -4.295  1.00  0.00     0.001 A 
HETATM   14  C   LIG     1       1.358  -0.344  -3.253  1.00  0.00     0.007 A 
ENDBRANCH   8   9
ENDBRANCH   6   8
TORSDOF 2
