REMARK  3 active torsions:
REMARK  status: ('A' for Active; 'I' for Inactive)
REMARK    1  A    between atoms: C_3  and  C_7 
REMARK    2  A    between atoms: C_4  and  C_9 
REMARK    3  A    between atoms: C_7  and  C_8 
REMARK       I    between atoms: C_8  and  N_13 
ROOT
HETATM    1  N   LIG     1       0.548   0.611   0.042  1.00  0.00    -0.352 N 
ATOM      2  HN  LIG     1       1.303   1.291   0.132  1.00  0.00     0.166 HD
HETATM    3  C   LIG     1       0.710  -0.699   0.018  1.00  0.00     0.060 A 
HETATM    4  C   LIG     1      -0.801   0.928  -0.073  1.00  0.00     0.049 A 
HETATM    5  S   LIG     1      -0.737  -1.615  -0.148  1.00  0.00    -0.086 SA
HETATM    6  C   LIG     1      -1.641  -0.163  -0.189  1.00  0.00     0.081 A 
ENDROOT
BRANCH   4   7
HETATM    7  C   LIG     1      -1.269   2.312  -0.091  1.00  0.00    -0.009 A 
HETATM    8  C   LIG     1      -0.421   3.330  -0.554  1.00  0.00     0.017 A 
HETATM    9  C   LIG     1      -0.855   4.659  -0.581  1.00  0.00     0.043 A 
HETATM   10  C   LIG     1      -2.135   4.972  -0.139  1.00  0.00     0.116 A 
HETATM   11  C   LIG     1      -2.992   3.982   0.323  1.00  0.00     0.043 A 
HETATM   12  F   LIG     1      -2.549   6.245  -0.156  1.00  0.00    -0.206 F 
HETATM   13  C   LIG     1      -2.560   2.654   0.347  1.00  0.00     0.017 A 
ENDBRANCH   4   7
BRANCH   3  14
HETATM   14  C   LIG     1       2.032  -1.390   0.088  1.00  0.00     0.167 C 
BRANCH  14  15
HETATM   15  C   LIG     1       2.371  -1.723   1.525  1.00  0.00     0.221 C 
HETATM   16  O   LIG     1       2.496  -2.871   1.937  1.00  0.00    -0.273 OA
HETATM   17  N   LIG     1       2.604  -0.663   2.355  1.00  0.00    -0.370 N 
ATOM     18  HN2 LIG     1       2.500   0.292   2.012  1.00  0.00     0.159 HD
ATOM     19  HN1 LIG     1       2.832  -0.887   3.323  1.00  0.00     0.159 HD
ENDBRANCH  14  15
ENDBRANCH   3  14
TORSDOF 3
