REMARK  5 active torsions:
REMARK  status: ('A' for Active; 'I' for Inactive)
REMARK    1  A    between atoms: CA_3  and  C_8 
REMARK    2  A    between atoms: C_6  and  C_11 
REMARK    3  A    between atoms: C_8  and  O_9 
REMARK    4  A    between atoms: C_11  and  C_12 
REMARK    5  A    between atoms: C_12  and  C_13 
ROOT
HETATM    1  N   LIG     1      -0.263   0.912   0.427  1.00  0.00    -0.346 N 
ATOM      2  HN  LIG     1       0.685   0.826   0.794  1.00  0.00     0.167 HD
HETATM    3  CA  LIG     1      -1.062   2.040   0.439  1.00  0.00     0.049 A 
HETATM    4  N   LIG     1      -2.206   0.456  -0.532  1.00  0.00    -0.354 N 
ATOM      5  HN  LIG     1      -2.939  -0.070  -1.008  1.00  0.00     0.166 HD
HETATM    6  C   LIG     1      -0.976  -0.029  -0.156  1.00  0.00     0.081 A 
HETATM    7  C   LIG     1      -2.274   1.769  -0.155  1.00  0.00     0.116 A 
ENDROOT
BRANCH   6   8
HETATM    8  C   LIG     1      -0.571  -1.447  -0.395  1.00  0.00     0.076 C 
BRANCH   8   9
HETATM    9  C   LIG     1       0.116  -1.615  -1.753  1.00  0.00     0.007 C 
BRANCH   9  10
HETATM   10  C   LIG     1       0.521  -3.068  -2.007  1.00  0.00    -0.004 C 
HETATM   11  C   LIG     1       1.206  -3.235  -3.356  1.00  0.00     0.005 C 
ENDBRANCH   9  10
ENDBRANCH   8   9
ENDBRANCH   6   8
BRANCH   3  12
HETATM   12  C   LIG     1      -0.569   3.313   1.041  1.00  0.00     0.222 C 
BRANCH  12  13
HETATM   13  O   LIG     1       0.765   3.191   1.532  1.00  0.00    -0.395 OA
ATOM     14  HO  LIG     1       1.079   4.002   1.915  1.00  0.00     0.209 HD
ENDBRANCH  12  13
ENDBRANCH   3  12
TORSDOF 5
