REMARK  3 active torsions:
REMARK  status: ('A' for Active; 'I' for Inactive)
REMARK    1  A    between atoms: N_1  and  C_7 
REMARK    2  A    between atoms: C_6  and  C_7 
REMARK    3  A    between atoms: C_6  and  C_8 
ROOT
HETATM    1  N   LIG     1       1.289  -0.843  -0.128  1.00  0.00    -0.355 N 
HETATM    2  C   LIG     1       2.181   0.185   0.034  1.00  0.00     0.099 A 
HETATM    3  C   LIG     1       1.484   1.376   0.032  1.00  0.00    -0.034 A 
HETATM    4  C   LIG     1       0.004  -0.349  -0.210  1.00  0.00     0.045 A 
HETATM    5  C   LIG     1       0.100   1.045  -0.122  1.00  0.00    -0.002 A 
HETATM    6  C   LIG     1       2.078   2.731   0.173  1.00  0.00     0.050 C 
HETATM    7  C   LIG     1      -1.234  -0.999  -0.352  1.00  0.00     0.030 A 
HETATM    8  C   LIG     1      -1.084   1.810  -0.187  1.00  0.00     0.014 A 
HETATM    9  C   LIG     1      -2.391  -0.216  -0.406  1.00  0.00     0.002 A 
HETATM   10  C   LIG     1      -2.320   1.171  -0.328  1.00  0.00     0.001 A 
ENDROOT
BRANCH   1  11
HETATM   11  C   LIG     1       1.672  -2.245  -0.171  1.00  0.00     0.139 C 
BRANCH  11  12
HETATM   12  C   LIG     1       1.998  -2.712  -1.583  1.00  0.00     0.133 C 
BRANCH  12  13
HETATM   13  C   LIG     1       2.381  -4.161  -1.566  1.00  0.00     0.174 C 
HETATM   14  O   LIG     1       2.414  -4.903  -0.598  1.00  0.00    -0.648 OA
HETATM   15  O   LIG     1       2.712  -4.615  -2.789  1.00  0.00    -0.648 OA
ENDBRANCH  12  13
ENDBRANCH  11  12
ENDBRANCH   1  11
TORSDOF 3
