REMARK  2 active torsions:
REMARK  status: ('A' for Active; 'I' for Inactive)
REMARK    1  A    between atoms: C_1  and  N_2 
REMARK    2  A    between atoms: N_2  and  C_10 
ROOT
HETATM    1  N   LIG     1      -4.118  -0.466   1.423  1.00  0.00    -0.375 N 
ATOM      2  HN  LIG     1      -5.101  -0.320   1.654  1.00  0.00     0.164 HD
HETATM    3  C   LIG     1      -1.404  -0.867   0.836  1.00  0.00     0.036 A 
HETATM    4  C   LIG     1      -1.957   0.414   0.818  1.00  0.00     0.046 A 
HETATM    5  C   LIG     1      -2.235  -1.947   1.117  1.00  0.00     0.046 A 
HETATM    6  C   LIG     1      -3.569  -1.698   1.403  1.00  0.00     0.090 A 
HETATM    7  C   LIG     1      -3.301   0.562   1.122  1.00  0.00     0.090 A 
ENDROOT
BRANCH   3   8
HETATM    8  N   LIG     1      -0.037  -0.983   0.504  1.00  0.00    -0.333 N 
ATOM      9  HN  LIG     1       0.371  -0.135   0.110  1.00  0.00     0.168 HD
BRANCH   8  10
HETATM   10  C   LIG     1       0.831  -2.016   0.614  1.00  0.00     0.169 C 
HETATM   11  S   LIG     1       2.287  -1.980  -0.189  1.00  0.00    -0.041 SA
HETATM   12  N   LIG     1       0.532  -3.055   1.415  1.00  0.00    -0.376 N 
ATOM     13  HN2 LIG     1      -0.361  -3.077   1.907  1.00  0.00     0.158 HD
ATOM     14  HN1 LIG     1       1.186  -3.833   1.498  1.00  0.00     0.158 HD
ENDBRANCH   8  10
ENDBRANCH   3   8
TORSDOF 2
