REMARK  1 active torsions:
REMARK  status: ('A' for Active; 'I' for Inactive)
REMARK    1  A    between atoms: C_3  and  C_7 
ROOT
HETATM    1  C   LIG     1       2.099   1.441  -0.062  1.00  0.00    -0.001 A 
HETATM    2  C   LIG     1       1.919   2.821  -0.233  1.00  0.00     0.015 A 
HETATM    3  C   LIG     1       3.410   0.945  -0.019  1.00  0.00     0.015 A 
HETATM    4  C   LIG     1       4.509   1.803  -0.144  1.00  0.00     0.007 A 
HETATM    5  C   LIG     1       3.016   3.680  -0.359  1.00  0.00     0.007 A 
HETATM    6  C   LIG     1       4.319   3.177  -0.322  1.00  0.00    -0.062 A 
HETATM    7  C   LIG     1       5.488   4.109  -0.440  1.00  0.00     0.048 C 
ENDROOT
BRANCH   1   8
HETATM    8  C   LIG     1       0.962   0.539   0.069  1.00  0.00     0.102 A 
HETATM    9  C   LIG     1       0.791  -0.819   0.246  1.00  0.00     0.127 A 
HETATM   10  N   LIG     1      -0.545  -1.132   0.304  1.00  0.00    -0.354 N 
HETATM   11  C   LIG     1      -1.133   0.033   0.162  1.00  0.00     0.233 A 
ATOM     12  HN  LIG     1      -0.976  -2.048   0.428  1.00  0.00     0.166 HD
HETATM   13  O   LIG     1      -0.294   1.093   0.014  1.00  0.00    -0.304 OA
ENDBRANCH   1   8
TORSDOF 1
