REMARK  3 active torsions:
REMARK  status: ('A' for Active; 'I' for Inactive)
REMARK    1  A    between atoms: C_1  and  C_2 
REMARK    2  A    between atoms: C_1  and  C_7 
REMARK    3  A    between atoms: C_10  and  O_13 
ROOT
HETATM    1  C   LIG     1       1.437  -0.960  -0.635  1.00  0.00     0.163 C 
HETATM    2  O   LIG     1       1.286  -1.488  -1.727  1.00  0.00    -0.292 OA
ENDROOT
BRANCH   1   3
HETATM    3  C   LIG     1       0.247  -0.825   0.274  1.00  0.00     0.008 A 
HETATM    4  C   LIG     1       0.172   0.251   1.183  1.00  0.00     0.015 A 
HETATM    5  C   LIG     1      -0.901   0.357   2.077  1.00  0.00     0.162 A 
HETATM    6  C   LIG     1      -1.912  -0.609   2.095  1.00  0.00     0.068 A 
HETATM    7 CL   LIG     2      -1.486   1.427   1.554  1.00  0.00    -0.114 Cl
HETATM    8  C   LIG     1      -1.852  -1.679   1.182  1.00  0.00     0.035 A 
HETATM    9  C   LIG     1      -0.788  -1.783   0.282  1.00  0.00     0.017 A 
BRANCH   6  10
HETATM   10  O   LIG     1      -2.914  -0.492   3.009  1.00  0.00    -0.358 OA
HETATM   11  C   LIG     1      -3.397   0.702   3.508  1.00  0.00     0.209 C 
ENDBRANCH   6  10
ENDBRANCH   1   3
BRANCH   1  12
HETATM   12  C   LIG     1       2.799  -0.359  -0.271  1.00  0.00     0.064 C 
HETATM   13  C   LIG     1       3.729  -1.303   0.527  1.00  0.00     0.040 C 
HETATM   14  C   LIG     1       3.253  -1.504   1.976  1.00  0.00     0.233 C 
HETATM   15  N   LIG     1       3.124  -0.214   2.666  1.00  0.00    -0.075 N 
HETATM   16  C   LIG     1       2.176   0.668   1.968  1.00  0.00     0.233 C 
ATOM     17  HN2 LIG     1       2.871  -0.336   3.646  1.00  0.00     0.277 HD
ATOM     18  HN1 LIG     1       4.031   0.236   2.794  1.00  0.00     0.277 HD
HETATM   19  C   LIG     1       2.646   0.955   0.529  1.00  0.00     0.040 C 
ENDBRANCH   1  12
TORSDOF 3
