REMARK  4 active torsions:
REMARK  status: ('A' for Active; 'I' for Inactive)
REMARK    1  A    between atoms: C_1  and  C_8 
REMARK    2  A    between atoms: C_2  and  N_9 
REMARK    3  A    between atoms: C_3  and  C_6 
REMARK    4  A    between atoms: C_8  and  N_15 
ROOT
HETATM    1  C   LIG     1      -0.874   2.472   0.011  1.00  0.00     0.097 A 
HETATM    2  C   LIG     1      -1.916   1.603  -0.378  1.00  0.00     0.061 A 
HETATM    3  C   LIG     1      -0.356  -0.216   0.202  1.00  0.00     0.065 A 
HETATM    4  N   LIG     1       0.324   2.059   0.548  1.00  0.00    -0.361 N 
ATOM      5  HN  LIG     1       1.014   2.732   0.881  1.00  0.00     0.165 HD
HETATM    6  C   LIG     1      -1.593   0.235  -0.290  1.00  0.00     0.049 A 
HETATM    7  C   LIG     1       0.551   0.735   0.618  1.00  0.00     0.104 A 
ENDROOT
BRANCH   1   8
HETATM    8  C   LIG     1      -0.873   3.963  -0.172  1.00  0.00     0.123 C 
HETATM    9  S   LIG     1      -1.286   4.800  -1.561  1.00  0.00    -0.058 SA
BRANCH   8  10
HETATM   10  N   LIG     1      -0.334   4.670   0.882  1.00  0.00    -0.388 N 
ATOM     11  HN2 LIG     1      -0.082   4.160   1.729  1.00  0.00     0.157 HD
ATOM     12  HN1 LIG     1      -0.333   5.682   0.758  1.00  0.00     0.157 HD
ENDBRANCH   8  10
ENDBRANCH   1   8
BRANCH   2  13
HETATM   13  N   LIG     1      -3.182   1.990  -0.789  1.00  0.00    -0.379 N 
HETATM   14  C   LIG     1      -4.065   1.150  -1.600  1.00  0.00     0.123 C 
HETATM   15  C   LIG     1      -5.349   1.968  -1.680  1.00  0.00     0.021 C 
HETATM   16  C   LIG     1      -5.431   2.563  -0.285  1.00  0.00     0.021 C 
HETATM   17  C   LIG     1      -3.975   2.919   0.033  1.00  0.00     0.123 C 
ENDBRANCH   2  13
BRANCH   3  18
HETATM   18  C   LIG     1      -0.005  -1.668   0.290  1.00  0.00     0.418 C 
HETATM   19  F   LIG     1      -1.018  -2.499  -0.081  1.00  0.00    -0.166 F 
HETATM   20  F   LIG     1       1.054  -1.994  -0.501  1.00  0.00    -0.166 F 
HETATM   21  F   LIG     1       0.342  -2.044   1.551  1.00  0.00    -0.166 F 
ENDBRANCH   3  18
TORSDOF 4
