REMARK  0 active torsions:
REMARK  status: ('A' for Active; 'I' for Inactive)
ROOT
HETATM    1  C   LIG     1       0.001   0.723   0.050  1.00  0.00     0.001 A 
HETATM    2  C   LIG     1      -0.006  -0.670  -0.007  1.00  0.00     0.080 A 
HETATM    3  O   LIG     1      -1.163  -1.398  -0.030  1.00  0.00    -0.326 OA
HETATM    4  C   LIG     1       1.227   1.402   0.101  1.00  0.00     0.038 A 
HETATM    5  O   LIG     1      -2.370   0.641  -0.334  1.00  0.00    -0.362 OA
HETATM    6  C   LIG     1      -2.309  -0.620   0.321  1.00  0.00     0.345 C 
HETATM    7  C   LIG     1       1.190  -1.379  -0.041  1.00  0.00     0.039 A 
HETATM    8  C   LIG     1       2.437   0.703   0.027  1.00  0.00     0.047 A 
HETATM    9  C   LIG     1      -1.297   1.466   0.108  1.00  0.00     0.212 C 
HETATM   10  N   LIG     1       3.650   1.378   0.211  1.00  0.00    -0.102 NA
HETATM   11  C   LIG     1       2.406  -0.693   0.002  1.00  0.00     0.029 A 
ENDROOT
TORSDOF 0
