REMARK  1 active torsions:
REMARK  status: ('A' for Active; 'I' for Inactive)
REMARK    1  A    between atoms: C_3  and  C_7 
ROOT
HETATM    1  N   LIG     1      -0.533  -1.132   0.120  1.00  0.00    -0.354 N 
ATOM      2  HN  LIG     1      -0.963  -2.054   0.195  1.00  0.00     0.166 HD
HETATM    3  C   LIG     1       0.971   0.553   0.004  1.00  0.00     0.102 A 
HETATM    4  C   LIG     1      -1.122   0.034  -0.007  1.00  0.00     0.233 A 
HETATM    5  O   LIG     1      -0.284   1.103  -0.084  1.00  0.00    -0.304 OA
HETATM    6  C   LIG     1       0.802  -0.810   0.128  1.00  0.00     0.127 A 
ENDROOT
BRANCH   3   7
HETATM    7  C   LIG     1       2.107   1.464  -0.051  1.00  0.00    -0.001 A 
HETATM    8  C   LIG     1       1.925   2.851  -0.164  1.00  0.00     0.014 A 
HETATM    9  C   LIG     1       3.020   3.719  -0.216  1.00  0.00     0.001 A 
HETATM   10  C   LIG     1       4.315   3.211  -0.155  1.00  0.00     0.000 A 
HETATM   11  C   LIG     1       4.516   1.838  -0.043  1.00  0.00     0.001 A 
HETATM   12  C   LIG     1       3.420   0.971   0.009  1.00  0.00     0.014 A 
ENDBRANCH   3   7
TORSDOF 1
