REMARK  2 active torsions:
REMARK  status: ('A' for Active; 'I' for Inactive)
REMARK    1  A    between atoms: C_2  and  C_4 
REMARK    2  A    between atoms: C_3  and  C_8 
ROOT
HETATM    1  S   LIG     1       1.381  -1.156   0.026  1.00  0.00    -0.086 SA
HETATM    2  C   LIG     1      -0.312  -1.442   0.027  1.00  0.00     0.022 A 
HETATM    3  C   LIG     1       1.201   0.539  -0.043  1.00  0.00     0.051 A 
HETATM    4  C   LIG     1      -1.000  -0.242  -0.029  1.00  0.00     0.021 A 
HETATM    5  C   LIG     1      -0.134   0.892  -0.069  1.00  0.00     0.024 A 
ENDROOT
BRANCH   2   6
HETATM    6  C   LIG     1      -0.846  -2.789   0.082  1.00  0.00     0.021 A 
HETATM    7  S   LIG     1      -2.540  -3.095   0.100  1.00  0.00    -0.101 SA
HETATM    8  C   LIG     1      -2.317  -4.786   0.168  1.00  0.00     0.050 A 
HETATM    9  C   LIG     1      -0.986  -5.130   0.176  1.00  0.00     0.008 A 
HETATM   10  C   LIG     1      -0.142  -3.983   0.127  1.00  0.00     0.021 A 
ENDBRANCH   2   6
BRANCH   3  11
HETATM   11  C   LIG     1       2.347   1.440  -0.067  1.00  0.00     0.162 C 
HETATM   12  O   LIG     1       2.215   2.666  -0.116  1.00  0.00    -0.292 OA
HETATM   13  C   LIG     1       3.738   0.848  -0.028  1.00  0.00     0.097 C 
ENDBRANCH   3  11
TORSDOF 2
