REMARK  1 active torsions:
REMARK  status: ('A' for Active; 'I' for Inactive)
REMARK    1  A    between atoms: C_3  and  C_4 
ROOT
HETATM    1  C   LIG     1       2.120   1.470  -0.041  1.00  0.00     0.001 A 
HETATM    2  C   LIG     1       1.947   2.864  -0.094  1.00  0.00     0.041 A 
HETATM    3  C   LIG     1       3.038   3.735  -0.191  1.00  0.00     0.047 A 
HETATM    4  N   LIG     1       2.844   5.120  -0.117  1.00  0.00    -0.102 NA
HETATM    5  C   LIG     1       3.427   0.963  -0.042  1.00  0.00     0.014 A 
HETATM    6  C   LIG     1       4.524   1.825  -0.075  1.00  0.00     0.003 A 
HETATM    7  C   LIG     1       4.327   3.204  -0.127  1.00  0.00     0.026 A 
ENDROOT
BRANCH   1   8
HETATM    8  C   LIG     1       0.978   0.568   0.027  1.00  0.00     0.102 A 
HETATM    9  C   LIG     1       0.799  -0.792   0.170  1.00  0.00     0.127 A 
HETATM   10  N   LIG     1      -0.538  -1.106   0.161  1.00  0.00    -0.354 N 
HETATM   11  C   LIG     1      -1.119   0.063   0.016  1.00  0.00     0.233 A 
ATOM     12  HN  LIG     1      -0.974  -2.024   0.246  1.00  0.00     0.166 HD
HETATM   13  O   LIG     1      -0.273   1.124  -0.074  1.00  0.00    -0.304 OA
ENDBRANCH   1   8
TORSDOF 1
