REMARK  1 active torsions:
REMARK  status: ('A' for Active; 'I' for Inactive)
REMARK    1  A    between atoms: N_1  and  C_7 
ROOT
HETATM    1  N   LIG     1       0.779  -0.830   0.046  1.00  0.00    -0.261 N 
HETATM    2  N   LIG     1       0.939   0.517   0.192  1.00  0.00    -0.298 N 
ATOM      3  HN  LIG     1       1.809   1.017   0.377  1.00  0.00     0.187 HD
HETATM    4  C   LIG     1      -0.573  -1.150  -0.065  1.00  0.00     0.032 A 
HETATM    5  C   LIG     1      -1.251   0.052  -0.121  1.00  0.00     0.052 A 
HETATM    6  C   LIG     1      -0.275   1.045   0.043  1.00  0.00     0.024 A 
HETATM    7  C   LIG     1      -1.162  -2.512  -0.057  1.00  0.00     0.070 C 
HETATM    8  C   LIG     1      -0.459   2.515   0.088  1.00  0.00     0.070 C 
ENDROOT
BRANCH   1   9
HETATM    9  C   LIG     1       1.943  -1.662   0.036  1.00  0.00     0.056 A 
HETATM   10  C   LIG     1       1.926  -2.981  -0.424  1.00  0.00     0.033 A 
HETATM   11  C   LIG     1       3.098  -3.751  -0.413  1.00  0.00     0.029 A 
HETATM   12  C   LIG     1       4.295  -3.238   0.088  1.00  0.00     0.046 A 
HETATM   13  N   LIG     1       5.480  -3.975  -0.019  1.00  0.00    -0.102 NA
HETATM   14  C   LIG     1       4.331  -1.898   0.470  1.00  0.00     0.029 A 
HETATM   15  C   LIG     1       3.168  -1.120   0.459  1.00  0.00     0.033 A 
ENDBRANCH   1   9
TORSDOF 1
