REMARK  2 active torsions:
REMARK  status: ('A' for Active; 'I' for Inactive)
REMARK    1  A    between atoms: C_1  and  N_4 
REMARK       I    between atoms: N_4  and  C_8 
REMARK    2  A    between atoms: C_9  and  O_13 
ROOT
HETATM    1  C   LIG     1      -1.131   0.003   0.426  1.00  0.00     0.078 A 
HETATM    2  C   LIG     1      -0.973  -1.387   0.309  1.00  0.00     0.065 A 
HETATM    3  C   LIG     1       0.015   0.811   0.342  1.00  0.00     0.065 A 
HETATM    4  C   LIG     1       0.296  -1.958   0.193  1.00  0.00     0.063 A 
HETATM    5  C   LIG     1       1.288   0.235   0.229  1.00  0.00     0.063 A 
HETATM    6  C   LIG     1       1.432  -1.151   0.180  1.00  0.00     0.071 A 
HETATM    7 CL   LIG     1      -0.060   2.537   0.179  1.00  0.00    -0.082 Cl
HETATM    8 CL   LIG     1      -2.342  -2.448   0.346  1.00  0.00    -0.082 Cl
ENDROOT
BRANCH   1   9
HETATM    9  N   LIG     1      -2.447   0.526   0.574  1.00  0.00    -0.325 N 
HETATM   10  C   LIG     1      -2.770   1.464   1.533  1.00  0.00     0.218 C 
HETATM   11  O   LIG     1      -2.022   1.857   2.423  1.00  0.00    -0.274 OA
HETATM   12  C   LIG     1      -4.193   1.950   1.437  1.00  0.00     0.117 C 
ATOM     13  HN  LIG     1      -3.180   0.194  -0.053  1.00  0.00     0.169 HD
ENDBRANCH   1   9
BRANCH   6  14
HETATM   14  O   LIG     1       2.619  -1.817   0.056  1.00  0.00    -0.356 OA
HETATM   15  C   LIG     1       3.769  -1.136   0.550  1.00  0.00     0.210 C 
ENDBRANCH   6  14
TORSDOF 2
