REMARK  0 active torsions:
REMARK  status: ('A' for Active; 'I' for Inactive)
ROOT
HETATM    1  S   LIG     1      -1.331   1.714   0.152  1.00  0.00     0.176 S 
HETATM    2  C   LIG     1       0.132   0.735   0.093  1.00  0.00     0.073 A 
HETATM    3  C   LIG     1       0.062  -0.657   0.016  1.00  0.00     0.033 A 
HETATM    4  C   LIG     1      -1.221  -1.416   0.026  1.00  0.00     0.162 C 
HETATM    5  C   LIG     1      -2.595   0.615  -0.418  1.00  0.00     0.153 C 
HETATM    6  O   LIG     1      -1.180   2.764  -0.835  1.00  0.00    -0.223 OA
HETATM    7  O   LIG     1      -1.569   2.007   1.550  1.00  0.00    -0.223 OA
HETATM    8  C   LIG     1       1.365   1.399   0.083  1.00  0.00     0.026 A 
HETATM    9  C   LIG     1      -2.511  -0.694   0.326  1.00  0.00     0.099 C 
HETATM   10  C   LIG     1       1.257  -1.389  -0.069  1.00  0.00     0.040 A 
HETATM   11  O   LIG     1      -1.208  -2.629  -0.162  1.00  0.00    -0.292 OA
HETATM   12  C   LIG     1       2.487  -0.729  -0.072  1.00  0.00     0.035 A 
HETATM   13  C   LIG     1       2.546   0.661   0.005  1.00  0.00     0.025 A 
HETATM   14 CL   LIG     1       3.943  -1.638  -0.170  1.00  0.00    -0.084 Cl
ENDROOT
TORSDOF 0
