REMARK  3 active torsions:
REMARK  status: ('A' for Active; 'I' for Inactive)
REMARK    1  A    between atoms: C_1  and  C_7 
REMARK    2  A    between atoms: C_2  and  C_8 
REMARK    3  A    between atoms: C_5  and  N_9 
ROOT
HETATM    1  C   LIG     1      -0.128  -1.034   0.442  1.00  0.00     0.147 A 
HETATM    2  C   LIG     1       1.133  -0.678  -0.145  1.00  0.00     0.052 A 
HETATM    3  N   LIG     1      -0.941   0.041   0.529  1.00  0.00    -0.292 N 
ATOM      4  HN  LIG     1      -1.897   0.073   0.884  1.00  0.00     0.187 HD
HETATM    5  C   LIG     1       1.025   0.682  -0.414  1.00  0.00     0.129 A 
HETATM    6  N   LIG     1      -0.212   1.057   0.045  1.00  0.00    -0.280 N 
HETATM    7  C   LIG     1      -0.775   2.387   0.048  1.00  0.00     0.179 C 
ENDROOT
BRANCH   2   8
HETATM    8  C   LIG     1       2.324  -1.469  -0.438  1.00  0.00    -0.020 A 
HETATM    9  C   LIG     1       2.225  -2.725  -1.051  1.00  0.00     0.012 A 
HETATM   10  C   LIG     1       3.372  -3.483  -1.310  1.00  0.00     0.001 A 
HETATM   11  C   LIG     1       4.632  -2.983  -0.988  1.00  0.00     0.000 A 
HETATM   12  C   LIG     1       4.747  -1.729  -0.395  1.00  0.00     0.001 A 
HETATM   13  C   LIG     1       3.600  -0.985  -0.110  1.00  0.00     0.012 A 
ENDBRANCH   2   8
BRANCH   1  14
HETATM   14  C   LIG     1      -0.601  -2.375   0.940  1.00  0.00     0.434 C 
HETATM   15  F   LIG     1       0.362  -3.334   0.949  1.00  0.00    -0.165 F 
HETATM   16  F   LIG     1      -1.076  -2.316   2.216  1.00  0.00    -0.165 F 
HETATM   17  F   LIG     1      -1.614  -2.870   0.174  1.00  0.00    -0.165 F 
ENDBRANCH   1  14
BRANCH   5  18
HETATM   18  N   LIG     1       1.882   1.553  -0.995  1.00  0.00    -0.384 N 
ATOM     19  HN2 LIG     1       2.802   1.274  -1.336  1.00  0.00     0.157 HD
ATOM     20  HN1 LIG     1       1.803   2.551  -1.192  1.00  0.00     0.157 HD
ENDBRANCH   5  18
TORSDOF 3
