REMARK  4 active torsions:
REMARK  status: ('A' for Active; 'I' for Inactive)
REMARK    1  A    between atoms: C_1  and  C_2 
REMARK    2  A    between atoms: C_2  and  O_10 
REMARK    3  A    between atoms: C_3  and  C_7 
REMARK    4  A    between atoms: O_10  and  C_16 
ROOT
HETATM    1  C   LIG     1       0.227   1.323   0.048  1.00  0.00     0.098 C 
HETATM    2  C   LIG     1       1.269   0.295  -0.449  1.00  0.00     0.037 C 
HETATM    3  C   LIG     1      -0.533  -1.477   0.030  1.00  0.00    -0.030 C 
HETATM    4  C   LIG     1      -1.500  -0.557  -0.081  1.00  0.00    -0.030 C 
HETATM    5  C   LIG     1      -1.230   0.913  -0.218  1.00  0.00     0.042 C 
HETATM    6  C   LIG     1       0.932  -1.151  -0.006  1.00  0.00     0.037 C 
ENDROOT
BRANCH   2   7
HETATM    7  C   LIG     1       1.519   0.427  -1.945  1.00  0.00    -0.037 A 
HETATM    8  C   LIG     1       2.520   1.282  -2.406  1.00  0.00     0.095 A 
HETATM    9  N   LIG     1       2.841   1.458  -3.708  1.00  0.00    -0.375 N 
HETATM   10  C   LIG     1       2.131   0.748  -4.608  1.00  0.00     0.087 A 
ATOM     11  HN  LIG     1       3.583   2.096  -3.995  1.00  0.00     0.164 HD
HETATM   12  C   LIG     1       1.111  -0.120  -4.265  1.00  0.00     0.018 A 
HETATM   13  C   LIG     1       0.800  -0.276  -2.917  1.00  0.00     0.010 A 
ENDBRANCH   2   7
BRANCH   1  14
HETATM   14  C   LIG     1       0.439   1.560   1.533  1.00  0.00     0.264 C 
HETATM   15  O   LIG     1      -0.104   0.932   2.433  1.00  0.00    -0.265 OA
BRANCH  14  16
HETATM   16  O   LIG     1       1.357   2.550   1.730  1.00  0.00    -0.322 OA
BRANCH  16  17
HETATM   17  C   LIG     1       1.716   2.790   3.099  1.00  0.00     0.174 C 
HETATM   18  C   LIG     1       0.691   3.668   3.795  1.00  0.00     0.034 C 
ENDBRANCH  16  17
ENDBRANCH  14  16
ENDBRANCH   1  14
TORSDOF 4
