REMARK  1 active torsions:
REMARK  status: ('A' for Active; 'I' for Inactive)
REMARK    1  A    between atoms: C_1  and  C_7 
ROOT
HETATM    1  C   LIG     1       0.906  -0.687   0.009  1.00  0.00     0.076 A 
HETATM    2  N   LIG     1      -0.330  -1.122   0.329  1.00  0.00    -0.299 N 
ATOM      3  HN  LIG     1      -0.619  -2.076   0.547  1.00  0.00     0.187 HD
HETATM    4  N   LIG     1      -1.094  -0.020   0.297  1.00  0.00    -0.311 N 
ATOM      5  HN  LIG     1      -2.094  -0.030   0.499  1.00  0.00     0.186 HD
HETATM    6  C   LIG     1       0.887   0.718  -0.224  1.00  0.00     0.052 A 
HETATM    7  C   LIG     1      -0.414   1.112  -0.030  1.00  0.00     0.109 A 
ENDROOT
BRANCH   1   8
HETATM    8  C   LIG     1       2.072  -1.577  -0.075  1.00  0.00     0.060 A 
HETATM    9  N   LIG     1       3.256  -0.992  -0.402  1.00  0.00    -0.364 N 
HETATM   10  C   LIG     1       4.339  -1.795  -0.483  1.00  0.00     0.088 A 
ATOM     11  HN  LIG     1       3.323   0.010  -0.578  1.00  0.00     0.165 HD
HETATM   12  C   LIG     1       4.308  -3.161  -0.255  1.00  0.00     0.017 A 
HETATM   13  C   LIG     1       3.092  -3.743   0.079  1.00  0.00     0.004 A 
HETATM   14  C   LIG     1       1.955  -2.943   0.171  1.00  0.00     0.032 A 
ENDBRANCH   1   8
TORSDOF 1
