REMARK  2 active torsions:
REMARK  status: ('A' for Active; 'I' for Inactive)
REMARK    1  A    between atoms: N_1  and  C_8 
REMARK    2  A    between atoms: C_8  and  C_9 
ROOT
HETATM    1  N   LIG     1       2.342  -5.297  -1.724  1.00  0.00    -0.197 NA
HETATM    2  C   LIG     1       2.095  -4.164  -1.709  1.00  0.00     0.060 C 
HETATM    3  C   LIG     1       1.783  -2.733  -1.672  1.00  0.00     0.144 C 
ENDROOT
BRANCH   3   4
HETATM    4  C   LIG     1       1.658  -2.261  -0.230  1.00  0.00     0.142 C 
BRANCH   4   5
HETATM    5  N   LIG     1       1.353  -0.842  -0.155  1.00  0.00    -0.355 N 
HETATM    6  C   LIG     1       2.302   0.141  -0.064  1.00  0.00     0.099 A 
HETATM    7  C   LIG     1       1.663   1.363  -0.019  1.00  0.00    -0.034 A 
HETATM    8  C   LIG     1       0.258   1.099  -0.086  1.00  0.00    -0.002 A 
HETATM    9  C   LIG     1       2.328   2.689   0.084  1.00  0.00     0.050 C 
HETATM   10  C   LIG     1       0.090  -0.288  -0.167  1.00  0.00     0.045 A 
HETATM   11  C   LIG     1      -0.891   1.918  -0.081  1.00  0.00     0.014 A 
HETATM   12  C   LIG     1      -1.182  -0.881  -0.243  1.00  0.00     0.030 A 
HETATM   13  C   LIG     1      -2.301  -0.044  -0.235  1.00  0.00     0.002 A 
HETATM   14  C   LIG     1      -2.161   1.337  -0.156  1.00  0.00     0.001 A 
ENDBRANCH   4   5
ENDBRANCH   3   4
TORSDOF 2
