REMARK  0 active torsions:
REMARK  status: ('A' for Active; 'I' for Inactive)
ROOT
HETATM    1  C   LIG     1       0.012   0.734   0.031  1.00  0.00     0.046 A 
HETATM    2  C   LIG     1      -1.259   1.480  -0.038  1.00  0.00     0.164 C 
HETATM    3  C   LIG     1      -0.023  -0.662  -0.036  1.00  0.00     0.082 A 
HETATM    4  C   LIG     1       1.229   1.414   0.105  1.00  0.00     0.060 A 
HETATM    5  O   LIG     1      -1.180  -1.390  -0.117  1.00  0.00    -0.350 OA
HETATM    6  O   LIG     1      -1.285   2.700   0.066  1.00  0.00    -0.292 OA
HETATM    7  C   LIG     1       1.171  -1.384  -0.063  1.00  0.00     0.041 A 
HETATM    8  C   LIG     1       2.408   0.680   0.088  1.00  0.00     0.117 A 
HETATM    9  C   LIG     1      -2.483   0.660  -0.332  1.00  0.00     0.110 C 
HETATM   10  C   LIG     1      -2.328  -0.679   0.359  1.00  0.00     0.183 C 
HETATM   11  C   LIG     1       2.391  -0.710   0.001  1.00  0.00     0.045 A 
HETATM   12  F   LIG     1       3.584   1.320   0.141  1.00  0.00    -0.206 F 
ENDROOT
TORSDOF 0
