REMARK  0 active torsions:
REMARK  status: ('A' for Active; 'I' for Inactive)
REMARK       I    between atoms: N_1  and  C_2 
ROOT
HETATM    1  N   LIG     1       0.683   1.130  -0.461  1.00  0.00    -0.352 N 
HETATM    2  C   LIG     1       1.306   2.309  -0.871  1.00  0.00     0.215 C 
HETATM    3  N   LIG     1      -2.086  -3.472  -0.238  1.00  0.00    -0.197 NA
HETATM    4  C   LIG     1      -1.504  -2.496  -0.003  1.00  0.00     0.064 C 
HETATM    5  C   LIG     1       1.425  -0.049  -0.015  1.00  0.00     0.127 C 
HETATM    6  C   LIG     1      -0.701   1.233  -0.002  1.00  0.00     0.127 C 
HETATM    7  O   LIG     1       0.707   3.381  -0.960  1.00  0.00    -0.274 OA
HETATM    8  C   LIG     1      -0.760  -1.263   0.301  1.00  0.00     0.096 C 
HETATM    9  C   LIG     1      -1.488  -0.043  -0.267  1.00  0.00     0.039 C 
HETATM   10  C   LIG     1       0.657  -1.339  -0.273  1.00  0.00     0.039 C 
HETATM   11  C   LIG     1       2.769   2.230  -1.228  1.00  0.00     0.117 C 
ENDROOT
TORSDOF 0
