REMARK  0 active torsions:
REMARK  status: ('A' for Active; 'I' for Inactive)
ROOT
HETATM    1  C   LIG     1       0.058   0.649   0.010  1.00  0.00     0.028 A 
HETATM    2  C   LIG     1      -1.223   1.404  -0.014  1.00  0.00     0.161 C 
HETATM    3  C   LIG     1       0.100  -0.751  -0.070  1.00  0.00     0.014 A 
HETATM    4  S   LIG     1      -1.343  -1.795  -0.164  1.00  0.00    -0.129 SA
HETATM    5  C   LIG     1       1.251   1.387   0.090  1.00  0.00     0.040 A 
HETATM    6  O   LIG     1      -1.220   2.620   0.169  1.00  0.00    -0.292 OA
HETATM    7  C   LIG     1       1.347  -1.392  -0.089  1.00  0.00     0.021 A 
HETATM    8  C   LIG     1       2.478   0.732   0.074  1.00  0.00     0.035 A 
HETATM    9  C   LIG     1      -2.500   0.672  -0.342  1.00  0.00     0.094 C 
HETATM   10  C   LIG     1      -2.602  -0.629   0.418  1.00  0.00     0.087 C 
HETATM   11  C   LIG     1       2.532  -0.655  -0.018  1.00  0.00     0.025 A 
HETATM   12 CL   LIG     1       3.937   1.639   0.156  1.00  0.00    -0.084 Cl
ENDROOT
TORSDOF 0
