REMARK  2 active torsions:
REMARK  status: ('A' for Active; 'I' for Inactive)
REMARK    1  A    between atoms: C_2  and  C_10 
REMARK    2  A    between atoms: C_15  and  O_18 
ROOT
HETATM    1  C   LIG     1      -0.456   0.043  -0.661  1.00  0.00    -0.010 A 
HETATM    2  C   LIG     1       0.551   1.065  -0.173  1.00  0.00     0.253 C 
HETATM    3  C   LIG     1      -0.143  -1.299  -0.785  1.00  0.00    -0.007 A 
HETATM    4  S   LIG     1      -1.421  -2.247  -1.371  1.00  0.00    -0.106 SA
HETATM    5  N   LIG     1       1.796   0.433   0.306  1.00  0.00    -0.062 N 
ATOM      6  HN1 LIG     1       1.710   0.168   1.287  1.00  0.00     0.278 HD
ATOM      7  HN2 LIG     1       2.544   1.123   0.380  1.00  0.00     0.278 HD
HETATM    8  C   LIG     1      -1.787   0.287  -1.142  1.00  0.00     0.018 A 
HETATM    9  C   LIG     1      -2.421  -0.870  -1.545  1.00  0.00     0.051 A 
HETATM   10  C   LIG     1       1.198  -1.858  -0.441  1.00  0.00     0.074 C 
HETATM   11  C   LIG     1       2.227  -0.712  -0.502  1.00  0.00     0.238 C 
ENDROOT
BRANCH   2  12
HETATM   12  C   LIG     1      -0.105   1.818   0.972  1.00  0.00    -0.023 A 
HETATM   13  C   LIG     1      -0.305   3.202   0.896  1.00  0.00     0.012 A 
HETATM   14  C   LIG     1      -0.851   3.903   1.978  1.00  0.00     0.037 A 
HETATM   15  C   LIG     1      -1.205   3.237   3.155  1.00  0.00     0.068 A 
HETATM   16  C   LIG     1      -1.019   1.861   3.238  1.00  0.00     0.037 A 
HETATM   17  C   LIG     1      -0.471   1.159   2.161  1.00  0.00     0.012 A 
BRANCH  15  18
HETATM   18  O   LIG     1      -1.708   4.038   4.144  1.00  0.00    -0.356 OA
HETATM   19  C   LIG     1      -2.036   3.396   5.372  1.00  0.00     0.210 C 
ENDBRANCH  15  18
ENDBRANCH   2  12
TORSDOF 2
