REMARK  2 active torsions:
REMARK  status: ('A' for Active; 'I' for Inactive)
REMARK    1  A    between atoms: C_1  and  C_3 
REMARK    2  A    between atoms: C_2  and  N_4 
ROOT
HETATM    1  C   LIG     1       0.715  -0.499   1.137  1.00  0.00     0.086 A 
HETATM    2  C   LIG     1       2.087  -0.486   0.873  1.00  0.00     0.097 A 
HETATM    3  N   LIG     1       2.889   0.474   1.398  1.00  0.00    -0.356 N 
ATOM      4  HN  LIG     1       3.887   0.483   1.188  1.00  0.00     0.166 HD
HETATM    5  C   LIG     1       0.191   0.492   1.989  1.00  0.00     0.021 A 
HETATM    6  C   LIG     1       2.353   1.417   2.200  1.00  0.00     0.089 A 
HETATM    7  C   LIG     1       1.016   1.466   2.529  1.00  0.00     0.018 A 
ENDROOT
BRANCH   2   8
HETATM    8  N   LIG     1       2.678  -1.462   0.055  1.00  0.00    -0.266 NA
HETATM    9  C   LIG     1       3.867  -0.954  -0.668  1.00  0.00     0.124 C 
HETATM   10  C   LIG     1       4.442  -2.057  -1.585  1.00  0.00     0.247 C 
HETATM   11  N   LIG     1       4.795  -3.294  -0.853  1.00  0.00    -0.073 N 
HETATM   12  C   LIG     1       3.597  -3.762  -0.124  1.00  0.00     0.247 C 
ATOM     13  HN2 LIG     1       5.603  -3.171  -0.242  1.00  0.00     0.277 HD
ATOM     14  HN1 LIG     1       5.189  -4.011  -1.462  1.00  0.00     0.277 HD
HETATM   15  C   LIG     1       2.984  -2.695   0.815  1.00  0.00     0.124 C 
ENDBRANCH   2   8
BRANCH   1  16
HETATM   16  C   LIG     1      -0.219  -1.529   0.575  1.00  0.00     0.420 C 
HETATM   17  F   LIG     1       0.168  -2.145  -0.575  1.00  0.00    -0.166 F 
HETATM   18  F   LIG     1      -0.461  -2.533   1.469  1.00  0.00    -0.166 F 
HETATM   19  F   LIG     1      -1.451  -1.005   0.293  1.00  0.00    -0.166 F 
ENDBRANCH   1  16
TORSDOF 2
