REMARK  1 active torsions:
REMARK  status: ('A' for Active; 'I' for Inactive)
REMARK    1  A    between atoms: C_3  and  C_9 
ROOT
HETATM    1  N   LIG     1       4.383   3.112  -0.173  1.00  0.00    -0.375 N 
ATOM      2  HN  LIG     1       5.192   3.731  -0.227  1.00  0.00     0.164 HD
HETATM    3  C   LIG     1       2.152   1.406  -0.026  1.00  0.00     0.002 A 
HETATM    4  C   LIG     1       3.123   3.587  -0.232  1.00  0.00     0.088 A 
HETATM    5  C   LIG     1       4.520   1.777  -0.039  1.00  0.00     0.088 A 
HETATM    6  C   LIG     1       3.452   0.897   0.037  1.00  0.00     0.031 A 
HETATM    7  C   LIG     1       1.992   2.788  -0.164  1.00  0.00     0.031 A 
ENDROOT
BRANCH   3   8
HETATM    8  C   LIG     1       0.992   0.529   0.049  1.00  0.00     0.102 A 
HETATM    9  C   LIG     1      -0.377   0.691   0.004  1.00  0.00     0.127 A 
HETATM   10  N   LIG     1      -1.009  -0.521   0.129  1.00  0.00    -0.354 N 
HETATM   11  C   LIG     1      -0.014  -1.369   0.245  1.00  0.00     0.233 A 
ATOM     12  HN  LIG     1      -2.010  -0.716   0.131  1.00  0.00     0.166 HD
HETATM   13  O   LIG     1       1.227  -0.815   0.206  1.00  0.00    -0.304 OA
ENDBRANCH   3   8
TORSDOF 1
