REMARK  3 active torsions:
REMARK  status: ('A' for Active; 'I' for Inactive)
REMARK    1  A    between atoms: C_1  and  C_3 
REMARK    2  A    between atoms: C_2  and  N_7 
REMARK    3  A    between atoms: N_7  and  N_11 
ROOT
HETATM    1  C   LIG     1      -0.315   0.068   2.883  1.00  0.00     0.121 A 
HETATM    2  C   LIG     1       0.700  -1.064   0.992  1.00  0.00     0.052 A 
HETATM    3  C   LIG     1       0.239   0.112   1.603  1.00  0.00     0.066 A 
HETATM    4  N   LIG     1      -0.390  -1.109   3.558  1.00  0.00    -0.351 N 
ATOM      5  HN  LIG     1      -0.780  -1.142   4.500  1.00  0.00     0.166 HD
HETATM    6  C   LIG     1       0.059  -2.234   2.963  1.00  0.00     0.090 A 
HETATM    7  C   LIG     1       0.602  -2.264   1.695  1.00  0.00     0.033 A 
ENDROOT
BRANCH   1   8
HETATM    8  N   LIG     1      -0.775   1.239   3.537  1.00  0.00    -0.288 N 
HETATM    9  C   LIG     1      -1.456   2.233   2.706  1.00  0.00     0.179 C 
BRANCH   8  10
HETATM   10  N   LIG     1      -1.304   1.042   4.851  1.00  0.00    -0.342 N 
ATOM     11  HN2 LIG     1      -0.829   0.349   5.430  1.00  0.00     0.177 HD
ATOM     12  HN1 LIG     1      -1.635   1.884   5.321  1.00  0.00     0.177 HD
ENDBRANCH   8  10
ENDBRANCH   1   8
BRANCH   2  13
HETATM   13  C   LIG     1       1.305  -1.040  -0.384  1.00  0.00     0.417 C 
HETATM   14  F   LIG     1       1.236   0.178  -0.989  1.00  0.00    -0.166 F 
HETATM   15  F   LIG     1       0.697  -1.913  -1.234  1.00  0.00    -0.166 F 
HETATM   16  F   LIG     1       2.623  -1.382  -0.378  1.00  0.00    -0.166 F 
ENDBRANCH   2  13
TORSDOF 3
