REMARK  2 active torsions:
REMARK  status: ('A' for Active; 'I' for Inactive)
REMARK    1  A    between atoms: C_1  and  C_2 
REMARK    2  A    between atoms: C_2  and  O_9 
ROOT
HETATM    1  C   LIG     1      -0.181  -1.128   0.011  1.00  0.00     0.108 A 
HETATM    2  N   LIG     1      -1.072  -0.076   0.019  1.00  0.00    -0.361 N 
ATOM      3  HN  LIG     1      -2.087  -0.171   0.042  1.00  0.00     0.165 HD
HETATM    4  C   LIG     1       1.088  -0.572  -0.006  1.00  0.00     0.037 A 
HETATM    5  C   LIG     1      -0.397   1.115  -0.008  1.00  0.00     0.088 A 
HETATM    6  C   LIG     1       0.950   0.837  -0.022  1.00  0.00     0.019 A 
ENDROOT
BRANCH   1   7
HETATM    7  C   LIG     1      -0.619  -2.502   0.014  1.00  0.00     0.309 C 
HETATM    8  O   LIG     1      -1.790  -2.856   0.033  1.00  0.00    -0.258 OA
BRANCH   7   9
HETATM    9  O   LIG     1       0.455  -3.339  -0.018  1.00  0.00    -0.321 OA
HETATM   10  C   LIG     1       0.109  -4.723  -0.061  1.00  0.00     0.213 C 
ENDBRANCH   7   9
ENDBRANCH   1   7
TORSDOF 2
