REMARK  2 active torsions:
REMARK  status: ('A' for Active; 'I' for Inactive)
REMARK    1  A    between atoms: C_1  and  C_4 
REMARK    2  A    between atoms: C_3  and  S_8 
ROOT
HETATM    1  C   LIG     1      -0.426  -1.389   0.059  1.00  0.00     0.082 A 
HETATM    2  S   LIG     1       1.245  -1.009   0.046  1.00  0.00    -0.076 SA
HETATM    3  C   LIG     1       0.943   0.672   0.018  1.00  0.00     0.041 A 
HETATM    4  C   LIG     1      -1.197  -0.242   0.027  1.00  0.00     0.028 A 
HETATM    5  C   LIG     1      -0.407   0.945  -0.004  1.00  0.00     0.027 A 
ENDROOT
BRANCH   1   6
HETATM    6  C   LIG     1      -0.841  -2.771   0.097  1.00  0.00     0.216 C 
HETATM    7  O   LIG     1      -0.153  -3.781   0.120  1.00  0.00    -0.643 OA
HETATM    8  O   LIG     1      -2.190  -2.881   0.113  1.00  0.00    -0.643 OA
ENDBRANCH   1   6
BRANCH   3   9
HETATM    9  S   LIG     1       2.214   1.883  -0.037  1.00  0.00    -0.127 SA
HETATM   10  C   LIG     1       3.100   1.526   1.497  1.00  0.00     0.096 C 
ENDBRANCH   3   9
TORSDOF 2
