REMARK  1 active torsions:
REMARK  status: ('A' for Active; 'I' for Inactive)
REMARK    1  A    between atoms: C_1  and  C_6 
ROOT
HETATM    1  C   LIG     1      -2.260   0.108  -0.072  1.00  0.00     0.083 A 
HETATM    2  S   LIG     1      -1.379   1.580  -0.162  1.00  0.00    -0.082 SA
HETATM    3  C   LIG     1      -1.440  -1.001   0.034  1.00  0.00     0.046 A 
HETATM    4  C   LIG     1       0.129   0.716  -0.060  1.00  0.00     0.023 A 
HETATM    5  C   LIG     1      -0.062  -0.634   0.039  1.00  0.00     0.023 A 
HETATM    6  S   LIG     1       1.447  -1.504   0.142  1.00  0.00    -0.101 SA
HETATM    7  C   LIG     1       1.508   1.086  -0.055  1.00  0.00     0.027 A 
HETATM    8  C   LIG     1       2.311  -0.027   0.050  1.00  0.00     0.052 A 
ENDROOT
BRANCH   1   9
HETATM    9  C   LIG     1      -3.708   0.079  -0.105  1.00  0.00     0.216 C 
HETATM   10  O   LIG     1      -4.422  -0.912  -0.045  1.00  0.00    -0.643 OA
HETATM   11  O   LIG     1      -4.274   1.302  -0.216  1.00  0.00    -0.643 OA
ENDBRANCH   1   9
TORSDOF 1
