REMARK  2 active torsions:
REMARK  status: ('A' for Active; 'I' for Inactive)
REMARK    1  A    between atoms: C_1  and  C_2 
REMARK    2  A    between atoms: C_2  and  N_8 
ROOT
HETATM    1  C   LIG     1       0.537   1.238  -0.150  1.00  0.00     0.085 A 
HETATM    2  N   LIG     1       1.360   0.161  -0.329  1.00  0.00    -0.361 N 
ATOM      3  HN  LIG     1       2.349   0.263  -0.557  1.00  0.00     0.165 HD
HETATM    4  N   LIG     1      -1.390  -0.138   0.306  1.00  0.00    -0.372 N 
ATOM      5  HN  LIG     1      -2.378  -0.247   0.534  1.00  0.00     0.164 HD
HETATM    6  C   LIG     1      -0.809   1.082   0.161  1.00  0.00     0.120 A 
HETATM    7  C   LIG     1       0.773  -1.050  -0.183  1.00  0.00     0.105 A 
HETATM    8  C   LIG     1      -0.569  -1.197   0.127  1.00  0.00     0.104 A 
ENDROOT
BRANCH   1   9
HETATM    9  C   LIG     1       1.196   2.571  -0.313  1.00  0.00     0.122 C 
HETATM   10  S   LIG     1       0.473   4.070  -0.157  1.00  0.00    -0.059 SA
BRANCH   9  11
HETATM   11  N   LIG     1       2.534   2.521  -0.624  1.00  0.00    -0.388 N 
ATOM     12  HN2 LIG     1       2.975   1.606  -0.719  1.00  0.00     0.157 HD
ATOM     13  HN1 LIG     1       2.983   3.430  -0.735  1.00  0.00     0.157 HD
ENDBRANCH   9  11
ENDBRANCH   1   9
TORSDOF 2
