REMARK  1 active torsions:
REMARK  status: ('A' for Active; 'I' for Inactive)
REMARK    1  A    between atoms: C_3  and  C_9 
ROOT
HETATM    1  N   LIG     1      -2.095  -7.671  -0.471  1.00  0.00    -0.191 NA
HETATM    2  C   LIG     1      -1.803  -6.552  -0.371  1.00  0.00     0.099 C 
HETATM    3  C   LIG     1      -0.712  -2.456  -0.004  1.00  0.00    -0.009 A 
HETATM    4  C   LIG     1       0.226  -3.471   0.235  1.00  0.00     0.015 A 
HETATM    5  C   LIG     1      -2.019  -2.824  -0.359  1.00  0.00     0.015 A 
HETATM    6  C   LIG     1      -1.437  -5.171  -0.247  1.00  0.00     0.044 A 
HETATM    7  C   LIG     1      -2.381  -4.170  -0.482  1.00  0.00     0.023 A 
HETATM    8  C   LIG     1      -0.133  -4.819   0.114  1.00  0.00     0.023 A 
ENDROOT
BRANCH   3   9
HETATM    9  C   LIG     1      -0.377  -1.039   0.117  1.00  0.00     0.049 A 
HETATM   10  N   LIG     1      -1.371  -0.085   0.287  1.00  0.00    -0.353 N 
HETATM   11  C   LIG     1      -0.843   1.116   0.372  1.00  0.00     0.047 A 
ATOM     12  HN  LIG     1      -2.369  -0.287   0.339  1.00  0.00     0.166 HD
HETATM   13  S   LIG     1       0.868   1.182   0.236  1.00  0.00    -0.087 SA
HETATM   14  C   LIG     1      -1.623   2.368   0.569  1.00  0.00     0.076 C 
HETATM   15  C   LIG     1       0.904  -0.524   0.054  1.00  0.00     0.081 A 
ENDBRANCH   3   9
TORSDOF 1
