REMARK  2 active torsions:
REMARK  status: ('A' for Active; 'I' for Inactive)
REMARK    1  A    between atoms: C_1  and  C_6 
REMARK    2  A    between atoms: C_6  and  O_9 
ROOT
HETATM    1  C   LIG     1       0.760  -0.552   0.056  1.00  0.00     0.063 A 
HETATM    2  C   LIG     1      -0.572  -0.943  -0.034  1.00  0.00     0.021 A 
HETATM    3  N   LIG     1      -1.350   0.191  -0.041  1.00  0.00    -0.363 N 
ATOM      4  HN  LIG     1      -2.368   0.201  -0.101  1.00  0.00     0.165 HD
HETATM    5  C   LIG     1       0.751   0.875   0.105  1.00  0.00     0.044 A 
HETATM    6  C   LIG     1      -0.557   1.306   0.044  1.00  0.00     0.006 A 
HETATM    7  C   LIG     1      -1.180  -2.298  -0.122  1.00  0.00     0.069 C 
HETATM    8  C   LIG     1      -1.115   2.680   0.054  1.00  0.00     0.068 C 
ENDROOT
BRANCH   1   9
HETATM    9  C   LIG     1       1.924  -1.436   0.088  1.00  0.00     0.294 C 
HETATM   10  O   LIG     1       1.859  -2.659   0.052  1.00  0.00    -0.259 OA
BRANCH   9  11
HETATM   11  O   LIG     1       3.094  -0.732   0.155  1.00  0.00    -0.322 OA
HETATM   12  C   LIG     1       4.266  -1.544   0.163  1.00  0.00     0.213 C 
ENDBRANCH   9  11
ENDBRANCH   1   9
TORSDOF 2
