REMARK  3 active torsions:
REMARK  status: ('A' for Active; 'I' for Inactive)
REMARK    1  A    between atoms: C_1  and  C_6 
REMARK    2  A    between atoms: N_2  and  C_7 
REMARK    3  A    between atoms: C_7  and  C_8 
ROOT
HETATM    1  C   LIG     1      -0.717  -1.485   0.135  1.00  0.00     0.065 C 
HETATM    2  N   LIG     1       0.425   0.451   0.097  1.00  0.00    -0.349 N 
HETATM    3  C   LIG     1       0.561  -0.932   0.089  1.00  0.00     0.025 C 
HETATM    4  C   LIG     1      -1.618  -0.401   0.315  1.00  0.00     0.045 C 
HETATM    5  C   LIG     1      -0.895   0.773   0.358  1.00  0.00     0.009 C 
HETATM    6  C   LIG     1       1.875  -1.638   0.002  1.00  0.00     0.069 C 
HETATM    7  C   LIG     1      -1.402   2.152   0.596  1.00  0.00     0.068 C 
ENDROOT
BRANCH   2   8
HETATM    8  C   LIG     1       1.500   1.424  -0.119  1.00  0.00     0.174 C 
BRANCH   8   9
HETATM    9  C   LIG     1       1.633   1.795  -1.570  1.00  0.00     0.001 A 
HETATM   10  S   LIG     1       1.501   3.439  -2.048  1.00  0.00    -0.105 SA
HETATM   11  C   LIG     1       1.806   3.062  -3.686  1.00  0.00     0.050 A 
HETATM   12  C   LIG     1       1.998   1.714  -3.878  1.00  0.00     0.008 A 
HETATM   13  C   LIG     1       1.898   0.984  -2.659  1.00  0.00     0.017 A 
ENDBRANCH   8   9
ENDBRANCH   2   8
BRANCH   1  14
HETATM   14  C   LIG     1      -1.058  -2.897   0.041  1.00  0.00     0.211 C 
HETATM   15  O   LIG     1      -0.279  -3.825  -0.116  1.00  0.00    -0.644 OA
HETATM   16  O   LIG     1      -2.385  -3.150   0.133  1.00  0.00    -0.644 OA
ENDBRANCH   1  14
TORSDOF 3
