REMARK  2 active torsions:
REMARK  status: ('A' for Active; 'I' for Inactive)
REMARK    1  A    between atoms: C_2  and  C_7 
REMARK    2  A    between atoms: C_7  and  N_8 
ROOT
HETATM    1  N   LIG     1       0.912  -0.741  -0.001  1.00  0.00    -0.357 N 
HETATM    2  C   LIG     1       0.979   0.640  -0.029  1.00  0.00     0.036 A 
HETATM    3  C   LIG     1      -0.408  -1.142   0.007  1.00  0.00     0.007 A 
HETATM    4  C   LIG     1      -1.187  -0.002  -0.046  1.00  0.00     0.027 A 
HETATM    5  C   LIG     1      -0.321   1.110  -0.072  1.00  0.00     0.029 A 
HETATM    6  C   LIG     1       2.062  -1.622   0.020  1.00  0.00     0.156 C 
HETATM    7  C   LIG     1      -0.843  -2.564   0.060  1.00  0.00     0.068 C 
ENDROOT
BRANCH   2   8
HETATM    8  C   LIG     1       2.249   1.420  -0.008  1.00  0.00     0.286 C 
BRANCH   8   9
HETATM    9  N   LIG     1       2.581   1.848  -1.356  1.00  0.00    -0.074 N 
ATOM     10  HN3 LIG     1       2.621   1.066  -2.009  1.00  0.00     0.274 HD
ATOM     11  HN2 LIG     1       1.819   2.366  -1.794  1.00  0.00     0.274 HD
ATOM     12  HN1 LIG     1       3.450   2.382  -1.342  1.00  0.00     0.274 HD
ENDBRANCH   8   9
ENDBRANCH   2   8
TORSDOF 2
