REMARK  2 active torsions:
REMARK  status: ('A' for Active; 'I' for Inactive)
REMARK    1  A    between atoms: C_3  and  C_5 
REMARK    2  A    between atoms: C_4  and  C_9 
ROOT
HETATM    1  N   UNK     1       0.037   0.595  -0.816  1.00  0.00    -0.344 N 
ATOM      2  HN  UNK     1      -0.028   1.388  -1.454  1.00  0.00     0.167 HD
HETATM    3  C   UNK     1       1.084   0.332  -0.057  1.00  0.00     0.086 A 
HETATM    4  C   UNK     1      -0.971  -0.354  -0.632  1.00  0.00     0.117 A 
HETATM    5  S   UNK     1       0.889  -1.042   0.963  1.00  0.00    -0.081 SA
HETATM    6  C   UNK     1      -0.645  -1.345   0.275  1.00  0.00     0.088 A 
ENDROOT
BRANCH   3   7
HETATM    7  C   UNK     1       2.256   1.226   0.040  1.00  0.00     0.021 A 
HETATM    8  C   UNK     1       3.603   0.815   0.115  1.00  0.00     0.068 A 
HETATM    9  C   UNK     1       4.621   1.783   0.238  1.00  0.00     0.056 A 
HETATM   10 CL   UNK     1       4.054  -0.860  -0.024  1.00  0.00    -0.082 Cl
HETATM   11 CL   UNK     1       6.298   1.364   0.378  1.00  0.00    -0.083 Cl
HETATM   12  C   UNK     1       4.316   3.147   0.249  1.00  0.00     0.026 A 
HETATM   13  C   UNK     1       2.996   3.563   0.133  1.00  0.00     0.003 A 
HETATM   14  C   UNK     1       1.981   2.612   0.033  1.00  0.00     0.016 A 
ENDBRANCH   3   7
BRANCH   4  15
HETATM   15  C   UNK     1      -2.259  -0.291  -1.318  1.00  0.00     0.227 C 
HETATM   16  O   UNK     1      -3.231  -0.982  -1.054  1.00  0.00    -0.643 OA
HETATM   17  O   UNK     1      -2.330   0.623  -2.314  1.00  0.00    -0.643 OA
ENDBRANCH   4  15
TORSDOF 2
