REMARK  1 active torsions:
REMARK  status: ('A' for Active; 'I' for Inactive)
REMARK    1  A    between atoms: C_1  and  N_2 
ROOT
HETATM    1  C   LIG     1      -0.819   1.215   0.207  1.00  0.00     0.077 A 
HETATM    2  C   LIG     1      -1.017   0.716   1.510  1.00  0.00     0.077 A 
HETATM    3  C   LIG     1      -0.054   0.410  -0.667  1.00  0.00     0.077 A 
HETATM    4  N   LIG     1       0.272  -1.289   1.028  1.00  0.00    -0.372 N 
ATOM      5  HN  LIG     1       0.662  -2.184   1.325  1.00  0.00     0.164 HD
HETATM    6 CL   LIG     1      -1.924   1.542   2.728  1.00  0.00    -0.080 Cl
HETATM    7 CL   LIG     1       0.275   0.884  -2.298  1.00  0.00    -0.080 Cl
HETATM    8  C   LIG     1       0.456  -0.804  -0.220  1.00  0.00     0.113 A 
HETATM    9  C   LIG     1      -0.461  -0.514   1.859  1.00  0.00     0.113 A 
ENDROOT
BRANCH   1  10
HETATM   10  N   LIG     1      -1.322   2.438  -0.277  1.00  0.00    -0.375 N 
HETATM   11  C   LIG     1      -2.782   2.502  -0.466  1.00  0.00     0.150 C 
HETATM   12  C   LIG     1      -3.156   3.779  -1.257  1.00  0.00     0.252 C 
HETATM   13  N   LIG     1      -2.632   5.023  -0.650  1.00  0.00    -0.072 N 
HETATM   14  C   LIG     1      -1.164   4.896  -0.512  1.00  0.00     0.252 C 
ATOM     15  HN2 LIG     1      -3.090   5.251   0.232  1.00  0.00     0.277 HD
ATOM     16  HN1 LIG     1      -2.906   5.857  -1.169  1.00  0.00     0.277 HD
HETATM   17  C   LIG     1      -0.726   3.655   0.303  1.00  0.00     0.150 C 
ENDBRANCH   1  10
TORSDOF 1
