REMARK  3 active torsions:
REMARK  status: ('A' for Active; 'I' for Inactive)
REMARK    1  A    between atoms: C_1  and  N_2 
REMARK    2  A    between atoms: N_2  and  C_4 
REMARK    3  A    between atoms: C_6  and  O_10 
ROOT
HETATM    1  C   LIG     1      -1.907   0.526  -1.061  1.00  0.00     0.068 A 
HETATM    2  C   LIG     1      -2.509   1.218   0.010  1.00  0.00     0.095 A 
HETATM    3  C   LIG     1      -2.694   0.145  -2.155  1.00  0.00     0.032 A 
HETATM    4  C   LIG     1      -3.881   1.495  -0.024  1.00  0.00     0.039 A 
HETATM    5  C   LIG     1      -4.066   0.401  -2.167  1.00  0.00     0.002 A 
HETATM    6  C   LIG     1      -4.657   1.073  -1.105  1.00  0.00     0.003 A 
ENDROOT
BRANCH   1   7
HETATM    7  N   LIG     1      -0.510   0.306  -1.008  1.00  0.00    -0.331 N 
ATOM      8  HN  LIG     1      -0.037   0.810  -0.258  1.00  0.00     0.168 HD
BRANCH   7   9
HETATM    9  C   LIG     1       0.312  -0.449  -1.769  1.00  0.00     0.170 C 
HETATM   10  S   LIG     1       1.955  -0.192  -1.774  1.00  0.00    -0.041 SA
HETATM   11  N   LIG     1      -0.209  -1.458  -2.503  1.00  0.00    -0.376 N 
ATOM     12  HN2 LIG     1      -1.217  -1.616  -2.500  1.00  0.00     0.158 HD
ATOM     13  HN1 LIG     1       0.412  -2.028  -3.078  1.00  0.00     0.158 HD
ENDBRANCH   7   9
ENDBRANCH   1   7
BRANCH   2  14
HETATM   14  O   LIG     1      -1.673   1.600   1.036  1.00  0.00    -0.354 OA
HETATM   15  C   LIG     1      -2.304   1.928   2.270  1.00  0.00     0.210 C 
ENDBRANCH   2  14
TORSDOF 3
