REMARK  3 active torsions:
REMARK  status: ('A' for Active; 'I' for Inactive)
REMARK    1  A    between atoms: C_1  and  C_4 
REMARK    2  A    between atoms: C_2  and  C_3 
REMARK    3  A    between atoms: C_4  and  N_12 
ROOT
HETATM    1  C   LIG     1       1.416   1.004  -0.012  1.00  0.00     0.032 A 
HETATM    2  C   LIG     1       1.735  -0.334   0.259  1.00  0.00     0.063 A 
HETATM    3  N   LIG     1      -0.959   0.455   0.090  1.00  0.00    -0.374 N 
ATOM      4  HN  LIG     1      -1.934   0.749   0.032  1.00  0.00     0.164 HD
HETATM    5  C   LIG     1       0.059   1.337  -0.084  1.00  0.00     0.102 A 
HETATM    6  C   LIG     1       0.685  -1.257   0.440  1.00  0.00     0.034 A 
HETATM    7  C   LIG     1      -0.627  -0.819   0.341  1.00  0.00     0.088 A 
ENDROOT
BRANCH   1   8
HETATM    8  C   LIG     1       2.424   2.075  -0.251  1.00  0.00     0.106 C 
HETATM    9  S   LIG     1       2.300   3.261  -1.426  1.00  0.00    -0.060 SA
BRANCH   8  10
HETATM   10  N   LIG     1       3.531   2.101   0.554  1.00  0.00    -0.389 N 
ATOM     11  HN2 LIG     1       3.607   1.378   1.270  1.00  0.00     0.157 HD
ATOM     12  HN1 LIG     1       4.221   2.834   0.390  1.00  0.00     0.157 HD
ENDBRANCH   8  10
ENDBRANCH   1   8
BRANCH   2  13
HETATM   13  C   LIG     1       3.150  -0.834   0.342  1.00  0.00     0.418 C 
HETATM   14  F   LIG     1       3.821  -0.317   1.412  1.00  0.00    -0.166 F 
HETATM   15  F   LIG     1       3.235  -2.189   0.493  1.00  0.00    -0.166 F 
HETATM   16  F   LIG     1       3.894  -0.545  -0.759  1.00  0.00    -0.166 F 
ENDBRANCH   2  13
TORSDOF 3
