REMARK  1 active torsions:
REMARK  status: ('A' for Active; 'I' for Inactive)
REMARK    1  A    between atoms: C_1  and  O_6 
ROOT
HETATM    1  C   LIG     1       1.534   0.147   0.212  1.00  0.00     0.166 A 
HETATM    2  N   LIG     1       0.696  -0.828   0.635  1.00  0.00    -0.345 N 
ATOM      3  HN  LIG     1       1.043  -1.721   0.986  1.00  0.00     0.167 HD
HETATM    4  C   LIG     1       1.117   1.375  -0.330  1.00  0.00     0.097 A 
HETATM    5  N   LIG     1       2.022   2.406  -0.645  1.00  0.00    -0.098 NA
HETATM    6  C   LIG     1      -0.624  -0.554   0.567  1.00  0.00     0.090 A 
HETATM    7  C   LIG     1      -0.254   1.626  -0.335  1.00  0.00     0.032 A 
HETATM    8  C   LIG     1      -1.141   0.644   0.102  1.00  0.00     0.019 A 
ENDROOT
BRANCH   1   9
HETATM    9  O   LIG     1       2.905  -0.065   0.259  1.00  0.00    -0.339 OA
HETATM   10  C   LIG     1       3.253  -1.291   0.893  1.00  0.00     0.211 C 
ENDBRANCH   1   9
TORSDOF 1
