REMARK  2 active torsions:
REMARK  status: ('A' for Active; 'I' for Inactive)
REMARK    1  A    between atoms: C_1  and  N_2 
REMARK    2  A    between atoms: N_2  and  C_4 
ROOT
HETATM    1  C   LIG     1      -1.320  -0.349  -1.304  1.00  0.00     0.040 A 
HETATM    2  C   LIG     1      -2.016   0.337  -2.322  1.00  0.00    -0.035 A 
HETATM    3  C   LIG     1      -2.037  -1.182  -0.435  1.00  0.00     0.030 A 
HETATM    4  C   LIG     1      -1.325   1.275  -3.276  1.00  0.00     0.050 C 
HETATM    5  C   LIG     1      -3.401   0.139  -2.465  1.00  0.00     0.009 A 
HETATM    6  C   LIG     1      -3.413  -1.370  -0.591  1.00  0.00     0.002 A 
HETATM    7  C   LIG     1      -4.093  -0.715  -1.610  1.00  0.00     0.001 A 
ENDROOT
BRANCH   1   8
HETATM    8  N   LIG     1       0.067  -0.121  -1.154  1.00  0.00    -0.333 N 
ATOM      9  HN  LIG     1       0.406   0.717  -1.627  1.00  0.00     0.168 HD
BRANCH   8  10
HETATM   10  C   LIG     1       1.027  -0.813  -0.496  1.00  0.00     0.170 C 
HETATM   11  S   LIG     1       2.518  -0.131  -0.218  1.00  0.00    -0.041 SA
HETATM   12  N   LIG     1       0.788  -2.084  -0.118  1.00  0.00    -0.376 N 
ATOM     13  HN2 LIG     1      -0.127  -2.502  -0.289  1.00  0.00     0.158 HD
ATOM     14  HN1 LIG     1       1.511  -2.605   0.378  1.00  0.00     0.158 HD
ENDBRANCH   8  10
ENDBRANCH   1   8
TORSDOF 2
