REMARK  3 active torsions:
REMARK  status: ('A' for Active; 'I' for Inactive)
REMARK    1  A    between atoms: C_1  and  C_7 
REMARK    2  A    between atoms: C_10  and  O_14 
REMARK    3  A    between atoms: O_14  and  C_15 
ROOT
HETATM    1  N   LIG     1       8.094  -5.057   0.091  1.00  0.00    -0.195 NA
HETATM    2  C   LIG     1       7.377  -4.199  -0.219  1.00  0.00     0.085 C 
HETATM    3  C   LIG     1       6.491  -3.079  -0.588  1.00  0.00     0.299 C 
ENDROOT
BRANCH   3   4
HETATM    4  O   LIG     1       5.227  -3.580  -1.044  1.00  0.00    -0.338 OA
BRANCH   4   5
HETATM    5  C   LIG     1       4.163  -2.749  -0.827  1.00  0.00     0.070 A 
HETATM    6  C   LIG     1       2.948  -3.381  -0.569  1.00  0.00     0.038 A 
HETATM    7  C   LIG     1       1.799  -2.629  -0.307  1.00  0.00     0.017 A 
HETATM    8  C   LIG     1       1.849  -1.229  -0.312  1.00  0.00    -0.003 A 
HETATM    9  C   LIG     1       3.068  -0.601  -0.609  1.00  0.00     0.017 A 
HETATM   10  C   LIG     1       4.217  -1.356  -0.876  1.00  0.00     0.038 A 
BRANCH   8  11
HETATM   11  C   LIG     1       0.661  -0.388  -0.015  1.00  0.00     0.076 C 
HETATM   12  N   LIG     1       0.690   0.909  -0.022  1.00  0.00    -0.383 N 
HETATM   13  C   LIG     1      -0.635   1.437   0.370  1.00  0.00     0.131 C 
ATOM     14  HN  LIG     1       1.502   1.478  -0.261  1.00  0.00     0.160 HD
HETATM   15  C   LIG     1      -1.714   0.429   0.021  1.00  0.00     0.100 C 
HETATM   16  S   LIG     1      -0.886  -1.131   0.347  1.00  0.00    -0.110 SA
ENDBRANCH   8  11
ENDBRANCH   4   5
ENDBRANCH   3   4
TORSDOF 3
