REMARK  2 active torsions:
REMARK  status: ('A' for Active; 'I' for Inactive)
REMARK    1  A    between atoms: C_1  and  C_2 
REMARK    2  A    between atoms: C_2  and  N_9 
ROOT
HETATM    1  C   LIG     1      -0.484  -1.087   0.095  1.00  0.00     0.137 A 
HETATM    2  N   LIG     1       0.927   0.660   0.305  1.00  0.00    -0.272 N 
ATOM      3  HN  LIG     1       1.768   1.215   0.464  1.00  0.00     0.194 HD
HETATM    4  O   LIG     1       0.805  -0.717   0.372  1.00  0.00    -0.235 OA
HETATM    5  C   LIG     1      -1.212   0.058  -0.156  1.00  0.00     0.061 A 
HETATM    6  C   LIG     1      -0.288   1.106  -0.012  1.00  0.00     0.117 A 
ENDROOT
BRANCH   1   7
HETATM    7  C   LIG     1      -0.797  -2.491   0.119  1.00  0.00     0.130 C 
HETATM    8  S   LIG     1      -2.326  -3.063  -0.204  1.00  0.00    -0.058 SA
BRANCH   7   9
HETATM    9  N   LIG     1       0.213  -3.362   0.420  1.00  0.00    -0.388 N 
ATOM     10  HN2 LIG     1       1.150  -3.011   0.618  1.00  0.00     0.157 HD
ATOM     11  HN1 LIG     1      -0.009  -4.357   0.437  1.00  0.00     0.157 HD
ENDBRANCH   7   9
ENDBRANCH   1   7
TORSDOF 2
