REMARK  0 active torsions:
REMARK  status: ('A' for Active; 'I' for Inactive)
ROOT
HETATM    1  C   LIG     1      -0.625  -1.294  -0.032  1.00  0.00     0.112 A 
HETATM    2  C   LIG     1      -1.424  -0.034  -0.035  1.00  0.00     0.266 A 
HETATM    3  N   LIG     1      -0.703   1.141  -0.033  1.00  0.00    -0.326 N 
ATOM      4  HN  LIG     1      -1.224   2.018  -0.020  1.00  0.00     0.169 HD
HETATM    5  C   LIG     1       0.717  -1.204   0.008  1.00  0.00     0.030 A 
HETATM    6  C   LIG     1      -1.287  -2.545  -0.095  1.00  0.00     0.105 C 
HETATM    7  N   LIG     1      -1.770  -3.601  -0.165  1.00  0.00    -0.191 NA
HETATM    8  C   LIG     1       0.671   1.214  -0.047  1.00  0.00     0.008 A 
HETATM    9  C   LIG     1       1.385   0.078  -0.011  1.00  0.00     0.026 A 
HETATM   10  O   LIG     1      -2.650  -0.027  -0.046  1.00  0.00    -0.267 OA
HETATM   11  C   LIG     1       1.303   2.568  -0.136  1.00  0.00     0.068 C 
ENDROOT
TORSDOF 0
