REMARK  3 active torsions:
REMARK  status: ('A' for Active; 'I' for Inactive)
REMARK    1  A    between atoms: C_2  and  C_8 
REMARK    2  A    between atoms: C_3  and  C_8 
REMARK    3  A    between atoms: C_3  and  O_9 
ROOT
HETATM    1  S   LIG     1      -0.154   1.909  -0.811  1.00  0.00    -0.113 SA
HETATM    2  C   LIG     1      -0.021  -0.632  -0.360  1.00  0.00    -0.042 A 
HETATM    3  C   LIG     1      -0.918   0.414  -0.490  1.00  0.00     0.057 A 
HETATM    4  C   LIG     1       1.393   1.187  -0.774  1.00  0.00     0.050 A 
HETATM    5  C   LIG     1       1.326  -0.166  -0.520  1.00  0.00     0.015 A 
ENDROOT
BRANCH   2   6
HETATM    6  C   LIG     1      -0.411  -2.061  -0.102  1.00  0.00     0.150 C 
BRANCH   6   7
HETATM    7  C   LIG     1      -0.655  -2.839  -1.382  1.00  0.00     0.262 C 
HETATM    8  O   LIG     1      -0.532  -2.415  -2.523  1.00  0.00    -0.265 OA
BRANCH   7   9
HETATM    9  O   LIG     1      -1.043  -4.114  -1.072  1.00  0.00    -0.326 OA
HETATM   10  C   LIG     1      -1.296  -4.936  -2.215  1.00  0.00     0.213 C 
ENDBRANCH   7   9
ENDBRANCH   6   7
ENDBRANCH   2   6
TORSDOF 3
