REMARK  5 active torsions:
REMARK  status: ('A' for Active; 'I' for Inactive)
REMARK    1  A    between atoms: C_1  and  C_3 
REMARK    2  A    between atoms: C_2  and  C_11 
REMARK    3  A    between atoms: C_3  and  N_15 
REMARK    4  A    between atoms: C_6  and  O_10 
REMARK    5  A    between atoms: O_10  and  C_11 
ROOT
HETATM    1  C   LIG     1       1.319   2.998  -0.307  1.00  0.00     0.017 A 
HETATM    2  N   LIG     1       0.016   1.004   0.195  1.00  0.00    -0.346 N 
ATOM      3  HN  LIG     1      -0.872   0.572   0.450  1.00  0.00     0.167 HD
HETATM    4  C   LIG     1       1.128   0.269  -0.002  1.00  0.00     0.142 A 
HETATM    5  C   LIG     1       0.136   2.348   0.037  1.00  0.00     0.104 A 
HETATM    6  C   LIG     1       2.451   2.200  -0.500  1.00  0.00     0.020 A 
HETATM    7  C   LIG     1       2.356   0.815  -0.343  1.00  0.00     0.057 A 
ENDROOT
BRANCH   4   8
HETATM    8  O   LIG     1       1.075  -1.101   0.136  1.00  0.00    -0.327 OA
BRANCH   8   9
HETATM    9  C   LIG     1      -0.253  -1.582   0.400  1.00  0.00     0.294 C 
BRANCH   9  10
HETATM   10  C   LIG     1      -0.262  -3.095   0.527  1.00  0.00     0.408 C 
HETATM   11  F   LIG     1       0.171  -3.697  -0.604  1.00  0.00    -0.169 F 
HETATM   12  F   LIG     1       0.517  -3.519   1.547  1.00  0.00    -0.169 F 
HETATM   13  F   LIG     1      -1.517  -3.544   0.766  1.00  0.00    -0.169 F 
ENDBRANCH   9  10
ENDBRANCH   8   9
ENDBRANCH   4   8
BRANCH   1  14
HETATM   14  C   LIG     1       1.375   4.474  -0.473  1.00  0.00     0.105 C 
HETATM   15  S   LIG     1       0.112   5.439  -0.992  1.00  0.00    -0.060 SA
BRANCH  14  16
HETATM   16  N   LIG     1       2.564   5.090  -0.171  1.00  0.00    -0.389 N 
ATOM     17  HN2 LIG     1       3.334   4.501   0.146  1.00  0.00     0.157 HD
ATOM     18  HN1 LIG     1       2.602   6.103  -0.285  1.00  0.00     0.157 HD
ENDBRANCH  14  16
ENDBRANCH   1  14
TORSDOF 5
