REMARK  4 active torsions:
REMARK  status: ('A' for Active; 'I' for Inactive)
REMARK    1  A    between atoms: C_3  and  C_8 
REMARK    2  A    between atoms: C_4  and  C_9 
REMARK    3  A    between atoms: C_7  and  O_10 
REMARK    4  A    between atoms: O_10  and  C_17 
ROOT
HETATM    1  C   LIG     1       1.119   1.254   0.046  1.00  0.00    -0.002 A 
HETATM    2  C   LIG     1       1.210   2.652  -0.031  1.00  0.00     0.017 A 
HETATM    3  C   LIG     1       2.316   0.523  -0.020  1.00  0.00     0.017 A 
HETATM    4  C   LIG     1       3.629   2.545  -0.259  1.00  0.00     0.078 A 
HETATM    5  C   LIG     1       2.449   3.286  -0.182  1.00  0.00     0.038 A 
HETATM    6  C   LIG     1       3.557   1.157  -0.168  1.00  0.00     0.038 A 
ENDROOT
BRANCH   1   7
HETATM    7  C   LIG     1      -0.159   0.526   0.193  1.00  0.00     0.085 A 
HETATM    8  N   LIG     1      -0.251  -0.790   0.292  1.00  0.00    -0.347 N 
HETATM    9  C   LIG     1      -1.577  -1.186   0.439  1.00  0.00     0.085 A 
ATOM     10  HN  LIG     1       0.544  -1.429   0.264  1.00  0.00     0.167 HD
HETATM   11  C   LIG     1      -2.485  -0.146   0.434  1.00  0.00     0.085 A 
HETATM   12  S   LIG     1      -1.677   1.345   0.245  1.00  0.00    -0.081 SA
BRANCH   9  13
HETATM   13  C   LIG     1      -1.956  -2.592   0.586  1.00  0.00     0.172 C 
HETATM   14  O   LIG     1      -3.131  -2.932   0.742  1.00  0.00    -0.291 OA
HETATM   15  C   LIG     1      -0.857  -3.620   0.528  1.00  0.00     0.098 C 
ENDBRANCH   9  13
ENDBRANCH   1   7
BRANCH   4  16
HETATM   16  O   LIG     1       4.761   3.289  -0.423  1.00  0.00    -0.255 OA
BRANCH  16  17
HETATM   17  C   LIG     1       5.990   2.593  -0.532  1.00  0.00     0.530 C 
HETATM   18  F   LIG     1       5.977   1.734  -1.574  1.00  0.00    -0.144 F 
HETATM   19  F   LIG     1       6.981   3.488  -0.741  1.00  0.00    -0.144 F 
HETATM   20  F   LIG     1       6.265   1.919   0.605  1.00  0.00    -0.144 F 
ENDBRANCH  16  17
ENDBRANCH   4  16
TORSDOF 4
