REMARK  3 active torsions:
REMARK  status: ('A' for Active; 'I' for Inactive)
REMARK    1  A    between atoms: C_3  and  C_8 
REMARK    2  A    between atoms: C_4  and  C_10 
REMARK    3  A    between atoms: C_6  and  C_9 
ROOT
HETATM    1  C   LIG     1       4.265   3.023  -0.324  1.00  0.00     0.048 A 
HETATM    2  C   LIG     1       1.862   1.574   0.107  1.00  0.00    -0.002 A 
HETATM    3  C   LIG     1       4.271   1.622  -0.299  1.00  0.00     0.017 A 
HETATM    4  C   LIG     1       3.049   3.693  -0.131  1.00  0.00     0.017 A 
HETATM    5  C   LIG     1       3.085   0.910  -0.081  1.00  0.00     0.015 A 
HETATM    6  C   LIG     1       1.866   2.978   0.084  1.00  0.00     0.015 A 
ENDROOT
BRANCH   2   7
HETATM    7  C   LIG     1       0.637   0.785   0.344  1.00  0.00     0.085 A 
HETATM    8  N   LIG     1       0.620  -0.433   0.855  1.00  0.00    -0.347 N 
HETATM    9  C   LIG     1      -0.687  -0.906   0.959  1.00  0.00     0.085 A 
ATOM     10  HN  LIG     1       1.450  -0.956   1.135  1.00  0.00     0.167 HD
HETATM   11  C   LIG     1      -1.648  -0.033   0.487  1.00  0.00     0.085 A 
HETATM   12  S   LIG     1      -0.918   1.399  -0.088  1.00  0.00    -0.081 SA
BRANCH   9  13
HETATM   13  C   LIG     1      -0.998  -2.223   1.522  1.00  0.00     0.172 C 
HETATM   14  O   LIG     1      -2.156  -2.629   1.619  1.00  0.00    -0.291 OA
HETATM   15  C   LIG     1       0.160  -3.074   1.976  1.00  0.00     0.098 C 
ENDBRANCH   9  13
ENDBRANCH   2   7
BRANCH   1  16
HETATM   16  C   LIG     1       5.532   3.816  -0.540  1.00  0.00     0.417 C 
HETATM   17  F   LIG     1       6.639   3.043  -0.715  1.00  0.00    -0.166 F 
HETATM   18  F   LIG     1       5.461   4.621  -1.637  1.00  0.00    -0.166 F 
HETATM   19  F   LIG     1       5.812   4.639   0.508  1.00  0.00    -0.166 F 
ENDBRANCH   1  16
TORSDOF 3
