REMARK  3 active torsions:
REMARK  status: ('A' for Active; 'I' for Inactive)
REMARK    1  A    between atoms: C_1  and  C_5 
REMARK    2  A    between atoms: C_5  and  O_9 
REMARK    3  A    between atoms: O_9  and  C_11 
ROOT
HETATM    1  C   LIG     1      -0.311  -0.857  -0.024  1.00  0.00     0.115 A 
HETATM    2  N   LIG     1       1.012  -0.410   0.005  1.00  0.00    -0.349 N 
ATOM      3  HN  LIG     1       1.832  -1.016   0.030  1.00  0.00     0.166 HD
HETATM    4  C   LIG     1      -1.249   0.161  -0.050  1.00  0.00     0.087 A 
HETATM    5  C   LIG     1       1.049   0.904  -0.004  1.00  0.00     0.047 A 
HETATM    6  S   LIG     1      -0.478   1.688  -0.046  1.00  0.00    -0.087 SA
HETATM    7  C   LIG     1       2.300   1.710   0.017  1.00  0.00     0.076 C 
ENDROOT
BRANCH   1   8
HETATM    8  C   LIG     1      -0.671  -2.277  -0.030  1.00  0.00     0.310 C 
HETATM    9  O   LIG     1      -1.832  -2.671  -0.050  1.00  0.00    -0.258 OA
BRANCH   8  10
HETATM   10  O   LIG     1       0.420  -3.097  -0.008  1.00  0.00    -0.317 OA
BRANCH  10  11
HETATM   11  C   LIG     1       0.141  -4.502  -0.021  1.00  0.00     0.175 C 
HETATM   12  C   LIG     1      -0.120  -4.997   1.390  1.00  0.00     0.034 C 
ENDBRANCH  10  11
ENDBRANCH   8  10
ENDBRANCH   1   8
TORSDOF 3
