REMARK  4 active torsions:
REMARK  status: ('A' for Active; 'I' for Inactive)
REMARK    1  A    between atoms: C_1  and  O_11 
REMARK    2  A    between atoms: C_2  and  C_5 
REMARK    3  A    between atoms: C_5  and  O_13 
REMARK    4  A    between atoms: O_13  and  C_14 
ROOT
HETATM    1  C   LIG     1      -1.256   2.040  -0.171  1.00  0.00     0.109 A 
HETATM    2  C   LIG     1       0.388  -0.212   0.068  1.00  0.00     0.043 A 
HETATM    3  C   LIG     1      -1.813   0.757  -0.173  1.00  0.00     0.069 A 
HETATM    4  C   LIG     1       0.127   2.194  -0.049  1.00  0.00     0.069 A 
HETATM    5  C   LIG     1       0.949   1.073   0.071  1.00  0.00     0.044 A 
HETATM    6  C   LIG     1      -0.999  -0.367  -0.055  1.00  0.00     0.044 A 
HETATM    7 CL   LIG     1       0.865   3.753  -0.048  1.00  0.00    -0.081 Cl
HETATM    8 CL   LIG     1      -3.518   0.547  -0.325  1.00  0.00    -0.081 Cl
ENDROOT
BRANCH   2   9
HETATM    9  C   LIG     1       1.219  -1.433   0.194  1.00  0.00     0.293 C 
HETATM   10  O   LIG     1       0.756  -2.563   0.173  1.00  0.00    -0.259 OA
BRANCH   9  11
HETATM   11  O   LIG     1       2.521  -1.101   0.354  1.00  0.00    -0.318 OA
BRANCH  11  12
HETATM   12  C   LIG     1       3.421  -2.200   0.539  1.00  0.00     0.174 C 
HETATM   13  C   LIG     1       3.391  -2.656   1.986  1.00  0.00     0.034 C 
ENDBRANCH  11  12
ENDBRANCH   9  11
ENDBRANCH   2   9
BRANCH   1  14
HETATM   14  O   LIG     1      -2.054   3.148  -0.289  1.00  0.00    -0.357 OA
ATOM     15  HO  LIG     1      -1.676   4.019  -0.288  1.00  0.00     0.217 HD
ENDBRANCH   1  14
TORSDOF 4
