REMARK  3 active torsions:
REMARK  status: ('A' for Active; 'I' for Inactive)
REMARK    1  A    between atoms: S_1  and  C_2 
REMARK    2  A    between atoms: S_1  and  C_4 
REMARK    3  A    between atoms: C_2  and  C_3 
ROOT
HETATM    1  S   LIG     1       0.965  -0.139   0.231  1.00  0.00     0.181 S 
HETATM    2  O   LIG     1       1.004   1.308   0.305  1.00  0.00    -0.222 OA
HETATM    3  O   LIG     1       2.143  -0.899  -0.153  1.00  0.00    -0.222 OA
ENDROOT
BRANCH   1   4
HETATM    4  C   LIG     1      -0.381  -0.642  -0.810  1.00  0.00     0.214 C 
BRANCH   4   5
HETATM    5  C   LIG     1      -0.128  -0.220  -2.230  1.00  0.00     0.085 C 
HETATM    6  S   LIG     1      -1.137   0.829  -3.044  1.00  0.00    -0.065 SA
HETATM    7  N   LIG     1       0.909  -0.808  -2.893  1.00  0.00    -0.393 N 
ATOM      8  HN2 LIG     1       1.526  -1.450  -2.395  1.00  0.00     0.156 HD
ATOM      9  HN1 LIG     1       1.081  -0.522  -3.857  1.00  0.00     0.156 HD
ENDBRANCH   4   5
ENDBRANCH   1   4
BRANCH   1  10
HETATM   10  C   LIG     1       0.463  -0.731   1.834  1.00  0.00     0.059 A 
HETATM   11  C   LIG     1       0.833  -2.015   2.243  1.00  0.00     0.025 A 
HETATM   12  C   LIG     1       0.437  -2.473   3.502  1.00  0.00     0.025 A 
HETATM   13  C   LIG     1      -0.311  -1.645   4.340  1.00  0.00     0.034 A 
HETATM   14  C   LIG     1      -0.663  -0.356   3.935  1.00  0.00     0.025 A 
HETATM   15 CL   LIG     1      -0.799  -2.215   5.888  1.00  0.00    -0.084 Cl
HETATM   16  C   LIG     1      -0.272   0.109   2.678  1.00  0.00     0.025 A 
ENDBRANCH   1  10
TORSDOF 3
