REMARK  2 active torsions:
REMARK  status: ('A' for Active; 'I' for Inactive)
REMARK    1  A    between atoms: C_1  and  C_4 
REMARK    2  A    between atoms: C_7  and  C_13 
ROOT
HETATM    1  N   LIG     1      -0.069  -3.389  -0.013  1.00  0.00    -0.345 N 
ATOM      2  HN  LIG     1       0.946  -3.302  -0.054  1.00  0.00     0.167 HD
HETATM    3  C   LIG     1      -0.913  -2.376   0.027  1.00  0.00     0.102 A 
HETATM    4  C   LIG     1      -0.766  -4.596   0.009  1.00  0.00     0.085 A 
HETATM    5  S   LIG     1      -2.575  -2.806   0.086  1.00  0.00    -0.080 SA
HETATM    6  C   LIG     1      -2.141  -4.461   0.064  1.00  0.00     0.085 A 
ENDROOT
BRANCH   3   7
HETATM    7  C   LIG     1      -0.446  -0.946   0.021  1.00  0.00     0.073 A 
HETATM    8  N   LIG     1      -1.323   0.129   0.057  1.00  0.00    -0.352 N 
HETATM    9  C   LIG     1      -0.648   1.258   0.042  1.00  0.00     0.047 A 
ATOM     10  HN  LIG     1      -2.340   0.055   0.090  1.00  0.00     0.166 HD
HETATM   11  S   LIG     1       1.063   1.098  -0.014  1.00  0.00    -0.087 SA
HETATM   12  C   LIG     1      -1.270   2.609   0.069  1.00  0.00     0.076 C 
HETATM   13  C   LIG     1       0.891  -0.606  -0.019  1.00  0.00     0.083 A 
ENDBRANCH   3   7
BRANCH   4  14
HETATM   14  C   LIG     1      -0.074  -5.886  -0.024  1.00  0.00     0.172 C 
HETATM   15  O   LIG     1      -0.687  -6.953   0.016  1.00  0.00    -0.291 OA
HETATM   16  C   LIG     1       1.431  -5.861  -0.113  1.00  0.00     0.098 C 
ENDBRANCH   4  14
TORSDOF 2
