REMARK  3 active torsions:
REMARK  status: ('A' for Active; 'I' for Inactive)
REMARK    1  A    between atoms: C_1  and  C_2 
REMARK    2  A    between atoms: C_2  and  N_9 
REMARK    3  A    between atoms: C_6  and  O_13 
ROOT
HETATM    1  C   LIG     1       0.739   1.304  -0.098  1.00  0.00     0.017 A 
HETATM    2  N   LIG     1      -1.131  -0.222   0.193  1.00  0.00    -0.346 N 
ATOM      3  HN  LIG     1      -2.130  -0.378   0.330  1.00  0.00     0.167 HD
HETATM    4  C   LIG     1      -0.614   1.029   0.082  1.00  0.00     0.104 A 
HETATM    5  C   LIG     1      -0.258  -1.248   0.113  1.00  0.00     0.141 A 
HETATM    6  C   LIG     1       1.611   0.214  -0.180  1.00  0.00     0.020 A 
HETATM    7  C   LIG     1       1.106  -1.081  -0.072  1.00  0.00     0.057 A 
ENDROOT
BRANCH   1   8
HETATM    8  C   LIG     1       1.245   2.696  -0.202  1.00  0.00     0.105 C 
HETATM    9  S   LIG     1       0.423   3.976  -0.892  1.00  0.00    -0.060 SA
BRANCH   8  10
HETATM   10  N   LIG     1       2.492   2.937   0.320  1.00  0.00    -0.389 N 
ATOM     11  HN2 LIG     1       2.994   2.155   0.741  1.00  0.00     0.157 HD
ATOM     12  HN1 LIG     1       2.840   3.893   0.249  1.00  0.00     0.157 HD
ENDBRANCH   8  10
ENDBRANCH   1   8
BRANCH   5  13
HETATM   13  O   LIG     1      -0.706  -2.549   0.216  1.00  0.00    -0.341 OA
HETATM   14  C   LIG     1      -2.117  -2.642   0.378  1.00  0.00     0.211 C 
ENDBRANCH   5  13
TORSDOF 3
