REMARK  3 active torsions:
REMARK  status: ('A' for Active; 'I' for Inactive)
REMARK    1  A    between atoms: C_1  and  C_3 
REMARK    2  A    between atoms: C_9  and  O_10 
REMARK    3  A    between atoms: O_10  and  C_11 
ROOT
HETATM    1  N   LIG     1      -0.131  -1.611  -7.139  1.00  0.00    -0.195 NA
HETATM    2  C   LIG     1      -0.075  -0.791  -6.322  1.00  0.00     0.085 C 
HETATM    3  C   LIG     1      -0.007   0.302  -5.335  1.00  0.00     0.299 C 
ENDROOT
BRANCH   3   4
HETATM    4  O   LIG     1       0.117  -0.215  -4.004  1.00  0.00    -0.338 OA
BRANCH   4   5
HETATM    5  C   LIG     1       0.293   0.701  -3.000  1.00  0.00     0.070 A 
HETATM    6  C   LIG     1       0.460   0.156  -1.721  1.00  0.00     0.052 A 
HETATM    7  C   LIG     1       0.684   0.979  -0.604  1.00  0.00     0.050 A 
HETATM    8  C   LIG     1       0.754   2.367  -0.791  1.00  0.00     0.016 A 
HETATM    9  C   LIG     1       0.563   2.917  -2.057  1.00  0.00     0.004 A 
HETATM   10  C   LIG     1       0.320   2.088  -3.156  1.00  0.00     0.037 A 
BRANCH   7  11
HETATM   11  C   LIG     1       0.844   0.406   0.782  1.00  0.00     0.417 C 
HETATM   12  F   LIG     1       0.748  -0.951   0.832  1.00  0.00    -0.166 F 
HETATM   13  F   LIG     1      -0.097   0.879   1.648  1.00  0.00    -0.166 F 
HETATM   14  F   LIG     1       2.048   0.717   1.339  1.00  0.00    -0.166 F 
ENDBRANCH   7  11
ENDBRANCH   4   5
ENDBRANCH   3   4
TORSDOF 3
