REMARK  1 active torsions:
REMARK  status: ('A' for Active; 'I' for Inactive)
REMARK    1  A    between atoms: C_5  and  O_10 
ROOT
HETATM    1  N   LIG     1       0.942  -0.285   0.324  1.00  0.00    -0.191 NA
HETATM    2  N   LIG     1       5.669  -0.998  -0.278  1.00  0.00    -0.345 N 
ATOM      3  HN  LIG     1       6.257  -1.831  -0.304  1.00  0.00     0.167 HD
HETATM    4  C   LIG     1       2.082  -0.153   0.158  1.00  0.00     0.101 C 
HETATM    5  C   LIG     1       6.191   0.236  -0.434  1.00  0.00     0.141 A 
HETATM    6  C   LIG     1       3.486   0.016  -0.045  1.00  0.00     0.060 A 
HETATM    7  C   LIG     1       4.331  -1.083  -0.085  1.00  0.00     0.112 A 
HETATM    8  C   LIG     1       5.423   1.394  -0.425  1.00  0.00     0.057 A 
HETATM    9  C   LIG     1       4.048   1.279  -0.219  1.00  0.00     0.028 A 
ENDROOT
BRANCH   5  10
HETATM   10  O   LIG     1       7.536   0.258  -0.679  1.00  0.00    -0.341 OA
HETATM   11  C   LIG     1       8.237   1.106   0.224  1.00  0.00     0.211 C 
ENDBRANCH   5  10
TORSDOF 1
