REMARK  3 active torsions:
REMARK  status: ('A' for Active; 'I' for Inactive)
REMARK    1  A    between atoms: C_1  and  C_5 
REMARK    2  A    between atoms: O_4  and  C_5 
REMARK    3  A    between atoms: O_4  and  C_9 
ROOT
HETATM    1  C   LIG     1       1.105  -1.079   3.320  1.00  0.00     0.060 A 
HETATM    2  C   LIG     1       0.886   0.280   3.550  1.00  0.00     0.070 A 
HETATM    3  C   LIG     1       0.681  -2.018   4.265  1.00  0.00     0.036 A 
HETATM    4 CL   LIG     1       0.956  -3.695   3.982  1.00  0.00    -0.084 Cl
HETATM    5  C   LIG     1      -0.184  -0.262   5.665  1.00  0.00     0.004 A 
HETATM    6  C   LIG     1       0.239   0.679   4.724  1.00  0.00     0.037 A 
HETATM    7  C   LIG     1       0.038  -1.618   5.435  1.00  0.00     0.024 A 
ENDROOT
BRANCH   2   8
HETATM    8  O   LIG     1       1.246   1.309   2.722  1.00  0.00    -0.344 OA
BRANCH   8   9
HETATM    9  C   LIG     1       1.919   0.963   1.513  1.00  0.00     0.244 C 
BRANCH   9  10
HETATM   10  C   LIG     1       2.259   2.217   0.710  1.00  0.00     0.095 C 
HETATM   11  S   LIG     1       3.172   2.156  -0.685  1.00  0.00    -0.064 SA
HETATM   12  N   LIG     1       1.770   3.409   1.155  1.00  0.00    -0.392 N 
ATOM     13  HN2 LIG     1       1.997   4.246   0.619  1.00  0.00     0.156 HD
ATOM     14  HN1 LIG     1       1.212   3.446   2.008  1.00  0.00     0.156 HD
ENDBRANCH   9  10
ENDBRANCH   8   9
ENDBRANCH   2   8
TORSDOF 3
