REMARK  2 active torsions:
REMARK  status: ('A' for Active; 'I' for Inactive)
REMARK    1  A    between atoms: C_1  and  C_2 
REMARK    2  A    between atoms: C_2  and  O_5 
ROOT
HETATM    1  C   LIG     1      -0.930  -0.519  -0.073  1.00  0.00     0.078 A 
HETATM    2  C   LIG     1       0.133  -1.422  -0.046  1.00  0.00     0.132 A 
HETATM    3  F   LIG     1      -0.070  -2.747  -0.094  1.00  0.00    -0.205 F 
HETATM    4  C   LIG     1      -0.659   0.858  -0.065  1.00  0.00     0.021 A 
HETATM    5  C   LIG     1       1.450  -0.967   0.002  1.00  0.00     0.043 A 
HETATM    6  C   LIG     1       0.660   1.315  -0.014  1.00  0.00     0.001 A 
HETATM    7  C   LIG     1       1.715   0.402   0.020  1.00  0.00     0.003 A 
ENDROOT
BRANCH   1   8
HETATM    8  C   LIG     1      -2.341  -0.954  -0.134  1.00  0.00     0.296 C 
HETATM    9  O   LIG     1      -3.233  -0.263  -0.602  1.00  0.00    -0.259 OA
BRANCH   8  10
HETATM   10  O   LIG     1      -2.497  -2.158   0.464  1.00  0.00    -0.322 OA
HETATM   11  C   LIG     1      -3.844  -2.629   0.500  1.00  0.00     0.213 C 
ENDBRANCH   8  10
ENDBRANCH   1   8
TORSDOF 2
