REMARK  1 active torsions:
REMARK  status: ('A' for Active; 'I' for Inactive)
REMARK    1  A    between atoms: N_1  and  C_3 
REMARK       I    between atoms: N_1  and  C_4 
ROOT
HETATM    1  C   LIG     1       0.216   1.514   1.162  1.00  0.00     0.073 A 
HETATM    2  C   LIG     1      -0.021   2.766   1.737  1.00  0.00     0.143 A 
HETATM    3  F   LIG     1       0.445   3.871   1.133  1.00  0.00    -0.204 F 
HETATM    4  C   LIG     1      -0.268   0.372   1.803  1.00  0.00     0.033 A 
HETATM    5  C   LIG     1      -0.786   2.896   2.892  1.00  0.00     0.044 A 
HETATM    6  C   LIG     1      -1.004   0.493   2.986  1.00  0.00     0.002 A 
HETATM    7  C   LIG     1      -1.279   1.753   3.519  1.00  0.00     0.003 A 
ENDROOT
BRANCH   1   8
HETATM    8  N   LIG     1       0.938   1.470  -0.049  1.00  0.00    -0.325 N 
HETATM    9  C   LIG     1       0.714   0.552  -1.053  1.00  0.00     0.218 C 
HETATM   10  O   LIG     1      -0.143  -0.334  -1.041  1.00  0.00    -0.274 OA
HETATM   11  C   LIG     1       1.630   0.721  -2.235  1.00  0.00     0.117 C 
ATOM     12  HN  LIG     1       1.674   2.162  -0.191  1.00  0.00     0.169 HD
ENDBRANCH   1   8
TORSDOF 1
