REMARK  3 active torsions:
REMARK  status: ('A' for Active; 'I' for Inactive)
REMARK    1  A    between atoms: N_1  and  C_3 
REMARK    2  A    between atoms: C_2  and  C_4 
REMARK    3  A    between atoms: C_2  and  N_11 
ROOT
HETATM    1  C   LIG     1      -0.759  -2.387  -0.055  1.00  0.00     0.039 A 
HETATM    2  C   LIG     1      -2.412  -4.078  -0.683  1.00  0.00     0.004 A 
HETATM    3  C   LIG     1      -2.020  -2.731  -0.570  1.00  0.00     0.044 A 
HETATM    4  C   LIG     1       0.101  -3.414   0.365  1.00  0.00     0.030 A 
HETATM    5  C   LIG     1      -1.539  -5.084  -0.256  1.00  0.00     0.014 A 
HETATM    6  C   LIG     1      -0.291  -4.752   0.268  1.00  0.00     0.003 A 
ENDROOT
BRANCH   1   7
HETATM    7  N   LIG     1      -0.358  -1.016   0.039  1.00  0.00    -0.333 N 
HETATM    8  C   LIG     1       0.848  -0.537   0.521  1.00  0.00     0.096 A 
HETATM    9  C   LIG     1       0.865   0.837   0.440  1.00  0.00     0.019 A 
HETATM   10  C   LIG     1      -0.366   1.236  -0.110  1.00  0.00     0.019 A 
HETATM   11  C   LIG     1      -1.096   0.091  -0.347  1.00  0.00     0.096 A 
ENDBRANCH   1   7
BRANCH   2  12
HETATM   12  C   LIG     1      -3.748  -4.415  -1.253  1.00  0.00     0.104 C 
HETATM   13  S   LIG     1      -4.715  -5.691  -0.773  1.00  0.00    -0.060 SA
BRANCH  12  14
HETATM   14  N   LIG     1      -4.206  -3.605  -2.262  1.00  0.00    -0.390 N 
ATOM     15  HN2 LIG     1      -3.616  -2.826  -2.555  1.00  0.00     0.157 HD
ATOM     16  HN1 LIG     1      -5.120  -3.836  -2.652  1.00  0.00     0.157 HD
ENDBRANCH  12  14
ENDBRANCH   2  12
TORSDOF 3
