REMARK  1 active torsions:
REMARK  status: ('A' for Active; 'I' for Inactive)
REMARK    1  A    between atoms: N_1  and  C_2 
ROOT
HETATM    1  C   LIG     1      -0.812   2.378  -0.049  1.00  0.00     0.064 A 
HETATM    2  C   LIG     1      -2.062   2.786  -0.568  1.00  0.00     0.076 A 
HETATM    3  C   LIG     1      -2.327   4.165  -0.634  1.00  0.00     0.071 A 
HETATM    4  C   LIG     1       0.129   3.341   0.375  1.00  0.00     0.035 A 
HETATM    5  C   LIG     1      -1.377   5.101  -0.238  1.00  0.00     0.118 A 
HETATM    6  N   LIG     1      -3.163   1.932  -0.729  1.00  0.00    -0.100 NA
HETATM    7  C   LIG     1      -0.153   4.702   0.270  1.00  0.00     0.044 A 
HETATM    8  F   LIG     1      -1.662   6.407  -0.323  1.00  0.00    -0.206 F 
ENDROOT
BRANCH   1   9
HETATM    9  N   LIG     1      -0.425   1.011   0.019  1.00  0.00    -0.315 N 
HETATM   10  C   LIG     1       0.427   0.440   0.941  1.00  0.00     0.188 A 
HETATM   11  N   LIG     1       0.627  -0.841   0.721  1.00  0.00    -0.360 N 
HETATM   12  C   LIG     1      -0.094  -1.123  -0.403  1.00  0.00     0.106 A 
ATOM     13  HN  LIG     1       1.197  -1.484   1.271  1.00  0.00     0.166 HD
HETATM   14  C   LIG     1      -0.738   0.000  -0.864  1.00  0.00     0.115 A 
ENDBRANCH   1   9
TORSDOF 1
