REMARK  1 active torsions:
REMARK  status: ('A' for Active; 'I' for Inactive)
REMARK    1  A    between atoms: N_1  and  C_3 
ROOT
HETATM    1  N   LIG     1       0.872   1.447   0.141  1.00  0.00    -0.378 N 
HETATM    2  N   LIG     1      -0.679  -1.098   0.078  1.00  0.00     0.087 N 
HETATM    3  C   LIG     1       1.544   0.149   0.351  1.00  0.00     0.153 C 
HETATM    4  C   LIG     1      -0.552   1.419   0.549  1.00  0.00     0.153 C 
HETATM    5  C   LIG     1      -1.298   0.235  -0.116  1.00  0.00     0.291 C 
HETATM    6  C   LIG     1       0.755  -1.021  -0.287  1.00  0.00     0.291 C 
HETATM    7  C   LIG     1      -0.860  -1.581   1.445  1.00  0.00     0.310 C 
ENDROOT
BRANCH   1   8
HETATM    8  C   LIG     1       1.180   2.238  -0.969  1.00  0.00     0.030 A 
HETATM    9  C   LIG     1       0.803   3.591  -0.990  1.00  0.00     0.031 A 
HETATM   10  C   LIG     1       1.094   4.429  -2.075  1.00  0.00     0.029 A 
HETATM   11  C   LIG     1       1.747   3.933  -3.199  1.00  0.00     0.046 A 
HETATM   12  C   LIG     1       2.205   2.619  -3.161  1.00  0.00     0.029 A 
HETATM   13  N   LIG     1       2.143   4.794  -4.229  1.00  0.00    -0.102 NA
HETATM   14  C   LIG     1       1.914   1.784  -2.071  1.00  0.00     0.031 A 
ENDBRANCH   1   8
TORSDOF 1
