REMARK  2 active torsions:
REMARK  status: ('A' for Active; 'I' for Inactive)
REMARK    1  A    between atoms: C_1  and  C_2 
REMARK    2  A    between atoms: C_5  and  N_12 
ROOT
HETATM    1  C   LIG     1       0.802   1.021   0.727  1.00  0.00     0.049 A 
HETATM    2  C   LIG     1       0.712   3.441   0.985  1.00  0.00     0.073 A 
HETATM    3  C   LIG     1       1.235   2.304   0.363  1.00  0.00     0.045 A 
HETATM    4  C   LIG     1      -0.204   3.298   2.053  1.00  0.00     0.052 A 
HETATM    5  C   LIG     1      -0.147   0.890   1.753  1.00  0.00     0.018 A 
HETATM    6  C   LIG     1      -0.635   2.017   2.419  1.00  0.00     0.032 A 
HETATM    7  N   LIG     1       1.230   4.715   0.670  1.00  0.00    -0.100 NA
ENDROOT
BRANCH   1   8
HETATM    8  C   LIG     1       1.337  -0.206   0.034  1.00  0.00     0.417 C 
HETATM    9  F   LIG     1       2.369   0.051  -0.818  1.00  0.00    -0.166 F 
HETATM   10  F   LIG     1       0.387  -0.835  -0.712  1.00  0.00    -0.166 F 
HETATM   11  F   LIG     1       1.802  -1.141   0.909  1.00  0.00    -0.166 F 
ENDBRANCH   1   8
BRANCH   4  12
HETATM   12  N   LIG     1      -0.638   4.434   2.791  1.00  0.00    -0.393 N 
HETATM   13  C   LIG     1       0.368   4.836   3.777  1.00  0.00     0.146 C 
ATOM     14  HN  LIG     1      -1.531   4.906   2.652  1.00  0.00     0.159 HD
ENDBRANCH   4  12
TORSDOF 2
