REMARK  1 active torsions:
REMARK  status: ('A' for Active; 'I' for Inactive)
REMARK    1  A    between atoms: C_7  and  C_8 
ROOT
HETATM    1  C   LIG     1      -2.447   0.013  -0.002  1.00  0.00     0.178 A 
HETATM    2  N   LIG     1      -1.624  -1.136  -0.002  1.00  0.00    -0.326 N 
HETATM    3  N   LIG     1      -1.593   1.128   0.000  1.00  0.00    -0.331 N 
ATOM      4  HN  LIG     1      -1.890   2.104  -0.000  1.00  0.00     0.168 HD
HETATM    5  C   LIG     1      -0.276   0.683   0.002  1.00  0.00     0.062 A 
HETATM    6  C   LIG     1      -0.282  -0.714   0.001  1.00  0.00     0.063 A 
HETATM    7  C   LIG     1       2.099   0.723   0.008  1.00  0.00     0.050 A 
HETATM    8  C   LIG     1       0.882   1.427   0.006  1.00  0.00     0.048 A 
HETATM    9  S   LIG     1      -4.099   0.120  -0.004  1.00  0.00    -0.040 SA
HETATM   10  C   LIG     1       0.896  -1.429   0.003  1.00  0.00     0.033 A 
HETATM   11  C   LIG     1       2.092  -0.698   0.006  1.00  0.00     0.018 A 
HETATM   12  C   LIG     1      -2.064  -2.509  -0.002  1.00  0.00     0.159 C 
ENDROOT
BRANCH   7  13
HETATM   13  C   LIG     1       3.418   1.460   0.012  1.00  0.00     0.417 C 
HETATM   14  F   LIG     1       3.284   2.815   0.008  1.00  0.00    -0.166 F 
HETATM   15  F   LIG     1       4.174   1.162   1.104  1.00  0.00    -0.166 F 
HETATM   16  F   LIG     1       4.186   1.156  -1.070  1.00  0.00    -0.166 F 
ENDBRANCH   7  13
TORSDOF 1
