REMARK  4 active torsions:
REMARK  status: ('A' for Active; 'I' for Inactive)
REMARK    1  A    between atoms: C_1  and  C_4 
REMARK    2  A    between atoms: C_1  and  O_6 
REMARK    3  A    between atoms: S_2  and  C_4 
REMARK    4  A    between atoms: S_2  and  C_5 
ROOT
HETATM    1  C   LIG     1       0.225   2.281  -2.863  1.00  0.00     0.001 A 
HETATM    2  C   LIG     1      -1.046   2.729  -3.238  1.00  0.00     0.018 A 
HETATM    3  C   LIG     1       1.192   3.214  -2.477  1.00  0.00     0.018 A 
HETATM    4  C   LIG     1      -1.353   4.092  -3.203  1.00  0.00     0.001 A 
HETATM    5  C   LIG     1       0.887   4.577  -2.450  1.00  0.00     0.001 A 
HETATM    6  C   LIG     1      -0.385   5.015  -2.810  1.00  0.00     0.000 A 
ENDROOT
BRANCH   1   7
HETATM    7  S   LIG     1       0.584   0.534  -2.915  1.00  0.00    -0.120 SA
BRANCH   7   8
HETATM    8  C   LIG     1       1.138   0.250  -1.201  1.00  0.00     0.190 C 
BRANCH   8   9
HETATM    9  C   LIG     1       0.038   0.549  -0.207  1.00  0.00     0.268 C 
HETATM   10  O   LIG     1      -1.043  -0.028  -0.161  1.00  0.00    -0.264 OA
BRANCH   9  11
HETATM   11  O   LIG     1       0.425   1.540   0.647  1.00  0.00    -0.326 OA
HETATM   12  C   LIG     1      -0.587   1.944   1.571  1.00  0.00     0.213 C 
ENDBRANCH   9  11
ENDBRANCH   8   9
ENDBRANCH   7   8
ENDBRANCH   1   7
TORSDOF 4
