REMARK  1 active torsions:
REMARK  status: ('A' for Active; 'I' for Inactive)
REMARK    1  A    between atoms: N_1  and  C_3 
REMARK       I    between atoms: N_1  and  C_4 
ROOT
HETATM    1  C   LIG     1       0.054   0.689   1.210  1.00  0.00     0.040 A 
HETATM    2  C   LIG     1      -0.807   0.621   2.321  1.00  0.00    -0.034 A 
HETATM    3  C   LIG     1      -1.207   1.816   2.944  1.00  0.00     0.032 A 
HETATM    4  C   LIG     1       0.545   1.931   0.784  1.00  0.00     0.032 A 
HETATM    5  C   LIG     1      -0.721   3.046   2.500  1.00  0.00     0.034 A 
HETATM    6  C   LIG     1       0.166   3.107   1.433  1.00  0.00     0.026 A 
HETATM    7 CL   LIG     1      -1.237   4.496   3.269  1.00  0.00    -0.084 Cl
HETATM    8  C   LIG     1      -1.421  -0.675   2.778  1.00  0.00     0.050 C 
ENDROOT
BRANCH   1   9
HETATM    9  N   LIG     1       0.423  -0.498   0.542  1.00  0.00    -0.327 N 
HETATM   10  C   LIG     1       0.554  -0.598  -0.829  1.00  0.00     0.218 C 
HETATM   11  O   LIG     1       0.344   0.303  -1.642  1.00  0.00    -0.274 OA
HETATM   12  C   LIG     1       0.976  -1.967  -1.290  1.00  0.00     0.117 C 
ATOM     13  HN  LIG     1       0.603  -1.330   1.104  1.00  0.00     0.169 HD
ENDBRANCH   1   9
TORSDOF 1
