REMARK  2 active torsions:
REMARK  status: ('A' for Active; 'I' for Inactive)
REMARK    1  A    between atoms: C_6  and  C_12 
REMARK    2  A    between atoms: N_8  and  C_12 
ROOT
HETATM    1  C   LIG     1      -1.443  -0.090  -0.097  1.00  0.00     0.040 A 
HETATM    2  C   LIG     1      -0.678  -1.266  -0.094  1.00  0.00    -0.040 A 
HETATM    3  C   LIG     1      -0.825   1.166  -0.107  1.00  0.00     0.033 A 
HETATM    4  C   LIG     1       0.720  -1.154  -0.096  1.00  0.00     0.009 A 
HETATM    5 CL   LIG     1      -3.171  -0.137  -0.086  1.00  0.00    -0.084 Cl
HETATM    6  C   LIG     1       0.572   1.274  -0.117  1.00  0.00    -0.031 A 
HETATM    7  C   LIG     1       1.336   0.100  -0.106  1.00  0.00     0.009 A 
HETATM    8  C   LIG     1      -1.311  -2.628  -0.080  1.00  0.00     0.050 C 
ENDROOT
BRANCH   6   9
HETATM    9  C   LIG     1       1.242   2.622  -0.122  1.00  0.00     0.268 C 
BRANCH   9  10
HETATM   10  N   LIG     1       1.886   2.895   1.156  1.00  0.00    -0.075 N 
ATOM     11  HN3 LIG     1       1.231   2.805   1.933  1.00  0.00     0.274 HD
ATOM     12  HN2 LIG     1       2.537   2.153   1.414  1.00  0.00     0.274 HD
ATOM     13  HN1 LIG     1       2.340   3.808   1.153  1.00  0.00     0.274 HD
ENDBRANCH   9  10
ENDBRANCH   6   9
TORSDOF 2
