REMARK  4 active torsions:
REMARK  status: ('A' for Active; 'I' for Inactive)
REMARK    1  A    between atoms: C_1  and  C_4 
REMARK    2  A    between atoms: C_2  and  O_5 
REMARK    3  A    between atoms: C_3  and  O_5 
REMARK    4  A    between atoms: C_4  and  O_10 
ROOT
HETATM    1  C   LIG     1      -0.543   1.356  -0.229  1.00  0.00     0.073 A 
HETATM    2  C   LIG     1       0.055   0.088  -0.095  1.00  0.00     0.094 A 
HETATM    3  C   LIG     1       0.268   2.495  -0.397  1.00  0.00     0.020 A 
HETATM    4  C   LIG     1       1.455  -0.003  -0.087  1.00  0.00     0.038 A 
HETATM    5  C   LIG     1       1.656   2.382  -0.407  1.00  0.00     0.001 A 
HETATM    6  C   LIG     1       2.247   1.135  -0.247  1.00  0.00     0.003 A 
ENDROOT
BRANCH   2   7
HETATM    7  O   LIG     1      -0.765  -0.993   0.091  1.00  0.00    -0.254 OA
BRANCH   7   8
HETATM    8  C   LIG     1      -0.274  -2.259  -0.322  1.00  0.00     0.530 C 
HETATM    9  F   LIG     1       0.242  -2.207  -1.569  1.00  0.00    -0.144 F 
HETATM   10  F   LIG     1       0.674  -2.706   0.533  1.00  0.00    -0.144 F 
HETATM   11  F   LIG     1      -1.286  -3.153  -0.319  1.00  0.00    -0.144 F 
ENDBRANCH   7   8
ENDBRANCH   2   7
BRANCH   1  12
HETATM   12  C   LIG     1      -2.023   1.516  -0.240  1.00  0.00     0.295 C 
HETATM   13  O   LIG     1      -2.817   0.685  -0.648  1.00  0.00    -0.259 OA
BRANCH  12  14
HETATM   14  O   LIG     1      -2.346   2.729   0.289  1.00  0.00    -0.322 OA
HETATM   15  C   LIG     1      -3.747   2.996   0.359  1.00  0.00     0.213 C 
ENDBRANCH  12  14
ENDBRANCH   1  12
TORSDOF 4
