REMARK  1 active torsions:
REMARK  status: ('A' for Active; 'I' for Inactive)
REMARK    1  A    between atoms: C_1  and  C_4 
ROOT
HETATM    1  C   LIG     1       0.620   1.195   0.057  1.00  0.00     0.011 A 
HETATM    2  C   LIG     1      -1.399  -0.140   0.119  1.00  0.00     0.073 A 
HETATM    3  C   LIG     1      -0.774   1.110   0.171  1.00  0.00     0.042 A 
HETATM    4  C   LIG     1      -0.641  -1.298  -0.046  1.00  0.00     0.138 A 
HETATM    5  C   LIG     1       1.373   0.021  -0.110  1.00  0.00     0.018 A 
HETATM    6  C   LIG     1       0.742  -1.224  -0.161  1.00  0.00     0.045 A 
HETATM    7 CL   LIG     1      -3.113  -0.228   0.260  1.00  0.00    -0.081 Cl
HETATM    8  F   LIG     1      -1.230  -2.501  -0.097  1.00  0.00    -0.204 F 
ENDROOT
BRANCH   1   9
HETATM    9  C   LIG     1       1.344   2.501   0.106  1.00  0.00     0.155 C 
HETATM   10  O   LIG     1       2.565   2.523  -0.026  1.00  0.00    -0.293 OA
HETATM   11  C   LIG     1       0.557   3.768   0.316  1.00  0.00     0.096 C 
ENDBRANCH   1   9
TORSDOF 1
