REMARK  0 active torsions:
REMARK  status: ('A' for Active; 'I' for Inactive)
ROOT
HETATM    1  N   LIG     1       0.875  -0.022   0.114  1.00  0.00    -0.191 NA
HETATM    2  C   LIG     1       3.466   0.022  -0.039  1.00  0.00     0.068 A 
HETATM    3  C   LIG     1       2.037  -0.004   0.069  1.00  0.00     0.101 C 
HETATM    4  C   LIG     1       4.165   1.238  -0.156  1.00  0.00     0.067 A 
HETATM    5  C   LIG     1       5.564   1.193  -0.253  1.00  0.00     0.035 A 
HETATM    6  C   LIG     1       4.155  -1.199  -0.086  1.00  0.00     0.025 A 
HETATM    7  N   LIG     1       3.547   2.487   0.033  1.00  0.00    -0.101 NA
HETATM    8  C   LIG     1       6.254  -0.025  -0.348  1.00  0.00    -0.060 A 
HETATM    9  C   LIG     1       5.540  -1.221  -0.251  1.00  0.00     0.008 A 
HETATM   10  C   LIG     1       7.735  -0.054  -0.587  1.00  0.00     0.048 C 
ENDROOT
TORSDOF 0
