REMARK  2 active torsions:
REMARK  status: ('A' for Active; 'I' for Inactive)
REMARK    1  A    between atoms: C_1  and  O_2 
REMARK    2  A    between atoms: O_2  and  C_6 
ROOT
HETATM    1  C   LIG     1       1.203   2.384   2.001  1.00  0.00     0.078 A 
HETATM    2  C   LIG     1       1.673   4.384   3.924  1.00  0.00     0.046 A 
HETATM    3  N   LIG     1       1.826   5.351   4.924  1.00  0.00    -0.102 NA
HETATM    4  C   LIG     1       0.696   3.675   1.823  1.00  0.00     0.039 A 
HETATM    5  C   LIG     1       1.850   2.068   3.189  1.00  0.00     0.039 A 
HETATM    6  C   LIG     1       0.920   4.660   2.787  1.00  0.00     0.029 A 
HETATM    7  C   LIG     1       2.075   3.062   4.152  1.00  0.00     0.029 A 
ENDROOT
BRANCH   1   8
HETATM    8  O   LIG     1       0.972   1.535   0.960  1.00  0.00    -0.255 OA
BRANCH   8   9
HETATM    9  C   LIG     1       1.882   0.460   0.788  1.00  0.00     0.530 C 
HETATM   10  F   LIG     1       3.148   0.787   1.129  1.00  0.00    -0.144 F 
HETATM   11  F   LIG     1       1.886   0.108  -0.518  1.00  0.00    -0.144 F 
HETATM   12  F   LIG     1       1.487  -0.608   1.512  1.00  0.00    -0.144 F 
ENDBRANCH   8   9
ENDBRANCH   1   8
TORSDOF 2
