REMARK  4 active torsions:
REMARK  status: ('A' for Active; 'I' for Inactive)
REMARK    1  A    between atoms: C_1  and  C_3 
REMARK    2  A    between atoms: C_1  and  O_7 
REMARK    3  A    between atoms: C_3  and  C_4 
REMARK    4  A    between atoms: O_7  and  C_12 
ROOT
HETATM    1  C   LIG     1       0.499   2.462  -0.184  1.00  0.00    -0.049 A 
HETATM    2  C   LIG     1       1.080   5.127   0.549  1.00  0.00     0.046 A 
HETATM    3  N   LIG     1       1.290   6.423   1.037  1.00  0.00    -0.102 NA
HETATM    4  C   LIG     1       1.910   4.080   0.953  1.00  0.00     0.027 A 
HETATM    5  C   LIG     1      -0.086   4.819  -0.155  1.00  0.00     0.027 A 
HETATM    6  C   LIG     1      -0.364   3.504  -0.541  1.00  0.00     0.009 A 
HETATM    7  C   LIG     1       1.641   2.762   0.568  1.00  0.00     0.009 A 
ENDROOT
BRANCH   1   8
HETATM    8  C   LIG     1       0.203   1.043  -0.592  1.00  0.00     0.149 C 
BRANCH   8   9
HETATM    9  C   LIG     1       0.786   0.671  -1.933  1.00  0.00     0.263 C 
HETATM   10  O   LIG     1       1.924   0.255  -2.096  1.00  0.00    -0.265 OA
BRANCH   9  11
HETATM   11  O   LIG     1      -0.131   0.869  -2.922  1.00  0.00    -0.322 OA
BRANCH  11  12
HETATM   12  C   LIG     1       0.317   0.558  -4.250  1.00  0.00     0.174 C 
HETATM   13  C   LIG     1       1.151   1.698  -4.803  1.00  0.00     0.034 C 
ENDBRANCH  11  12
ENDBRANCH   9  11
ENDBRANCH   8   9
ENDBRANCH   1   8
TORSDOF 4
