REMARK  2 active torsions:
REMARK  status: ('A' for Active; 'I' for Inactive)
REMARK    1  A    between atoms: N_1  and  C_2 
REMARK    2  A    between atoms: C_5  and  O_8 
ROOT
HETATM    1  C   LIG     1       1.178   2.085  -1.063  1.00  0.00     0.033 A 
HETATM    2  C   LIG     1       0.818   3.446  -1.081  1.00  0.00     0.065 A 
HETATM    3  C   LIG     1       1.131   4.267  -2.166  1.00  0.00     0.067 A 
HETATM    4  C   LIG     1       1.900   1.610  -2.170  1.00  0.00     0.029 A 
HETATM    5  C   LIG     1       2.209   2.435  -3.260  1.00  0.00     0.005 A 
HETATM    6  C   LIG     1       1.817   3.768  -3.260  1.00  0.00     0.036 A 
ENDROOT
BRANCH   1   7
HETATM    7  N   LIG     1       0.856   1.296   0.045  1.00  0.00    -0.377 N 
HETATM    8  C   LIG     1       1.473  -0.035   0.233  1.00  0.00     0.149 C 
HETATM    9  C   LIG     1       0.632  -1.137  -0.433  1.00  0.00     0.187 C 
HETATM   10  O   LIG     1      -0.728  -1.121   0.034  1.00  0.00    -0.388 OA
HETATM   11  C   LIG     1      -1.331   0.158  -0.230  1.00  0.00     0.187 C 
HETATM   12  C   LIG     1      -0.566   1.294   0.470  1.00  0.00     0.149 C 
ENDBRANCH   1   7
BRANCH   3  13
HETATM   13  O   LIG     1       0.783   5.587  -2.182  1.00  0.00    -0.361 OA
ATOM     14  HO  LIG     1       0.996   6.146  -2.920  1.00  0.00     0.217 HD
ENDBRANCH   3  13
TORSDOF 2
