REMARK  2 active torsions:
REMARK  status: ('A' for Active; 'I' for Inactive)
REMARK    1  A    between atoms: C_1  and  C_2 
REMARK    2  A    between atoms: C_5  and  C_10 
ROOT
HETATM    1  C   LIG     1      -1.227  -0.229  -0.104  1.00  0.00     0.010 A 
HETATM    2  C   LIG     1      -0.523   0.985  -0.092  1.00  0.00     0.022 A 
HETATM    3  C   LIG     1       0.880   1.002  -0.074  1.00  0.00    -0.058 A 
HETATM    4  C   LIG     1      -0.515  -1.435  -0.090  1.00  0.00     0.015 A 
HETATM    5  C   LIG     1       0.881  -1.424  -0.058  1.00  0.00     0.002 A 
HETATM    6  C   LIG     1       1.574  -0.213  -0.047  1.00  0.00     0.007 A 
ENDROOT
BRANCH   1   7
HETATM    7  C   LIG     1      -2.720  -0.192  -0.134  1.00  0.00     0.155 C 
HETATM    8  O   LIG     1      -3.309   0.887  -0.144  1.00  0.00    -0.293 OA
HETATM    9  C   LIG     1      -3.479  -1.493  -0.155  1.00  0.00     0.096 C 
ENDBRANCH   1   7
BRANCH   3  10
HETATM   10  C   LIG     1       1.631   2.310  -0.067  1.00  0.00     0.034 C 
HETATM   11  C   LIG     1       1.938   2.789   1.344  1.00  0.00     0.010 C 
ENDBRANCH   3  10
TORSDOF 2
