REMARK  0 active torsions:
REMARK  status: ('A' for Active; 'I' for Inactive)
ROOT
HETATM    1  N   LIG     1       0.953   0.011  -0.130  1.00  0.00    -0.191 NA
HETATM    2  C   LIG     1       3.549  -0.009   0.014  1.00  0.00     0.056 A 
HETATM    3  C   LIG     1       2.115   0.003  -0.080  1.00  0.00     0.100 C 
HETATM    4  C   LIG     1       4.260   1.203   0.175  1.00  0.00    -0.041 A 
HETATM    5  C   LIG     1       4.250  -1.236  -0.022  1.00  0.00    -0.041 A 
HETATM    6  C   LIG     1       6.334  -0.050   0.375  1.00  0.00     0.001 A 
HETATM    7  C   LIG     1       5.655   1.164   0.339  1.00  0.00     0.008 A 
HETATM    8  C   LIG     1       5.638  -1.241   0.192  1.00  0.00     0.008 A 
HETATM    9  C   LIG     1       3.587  -2.559  -0.308  1.00  0.00     0.050 C 
HETATM   10  C   LIG     1       3.600   2.558   0.157  1.00  0.00     0.050 C 
ENDROOT
TORSDOF 0
