REMARK  2 active torsions:
REMARK  status: ('A' for Active; 'I' for Inactive)
REMARK    1  A    between atoms: C_1  and  N_2 
REMARK    2  A    between atoms: N_2  and  C_4 
ROOT
HETATM    1  N   LIG     1       0.229   0.003   1.260  1.00  0.00    -0.329 N 
HETATM    2  C   LIG     1       0.882   1.242   0.813  1.00  0.00     0.159 C 
ENDROOT
BRANCH   1   3
HETATM    3  C   LIG     1       0.991  -1.101   1.650  1.00  0.00     0.171 C 
HETATM    4  S   LIG     1       2.575  -1.112   2.186  1.00  0.00    -0.041 SA
HETATM    5  N   LIG     1       0.385  -2.317   1.527  1.00  0.00    -0.376 N 
ATOM      6  HN2 LIG     1      -0.581  -2.310   1.200  1.00  0.00     0.158 HD
ATOM      7  HN1 LIG     1       0.941  -3.123   1.812  1.00  0.00     0.158 HD
ENDBRANCH   1   3
BRANCH   1   8
HETATM    8  C   LIG     1      -1.214   0.036   1.322  1.00  0.00     0.036 A 
HETATM    9  C   LIG     1      -1.959   0.876   0.479  1.00  0.00     0.029 A 
HETATM   10  C   LIG     1      -3.356   0.923   0.554  1.00  0.00     0.002 A 
HETATM   11  C   LIG     1      -4.033   0.143   1.485  1.00  0.00     0.000 A 
HETATM   12  C   LIG     1      -3.314  -0.678   2.347  1.00  0.00     0.002 A 
HETATM   13  C   LIG     1      -1.918  -0.725   2.269  1.00  0.00     0.029 A 
ENDBRANCH   1   8
TORSDOF 2
