REMARK  2 active torsions:
REMARK  status: ('A' for Active; 'I' for Inactive)
REMARK    1  A    between atoms: C_1  and  C_2 
REMARK    2  A    between atoms: C_1  and  O_5 
ROOT
HETATM    1  C   LIG     1       0.234   1.473   0.072  1.00  0.00     0.040 A 
HETATM    2  C   LIG     1      -1.121   1.412  -0.284  1.00  0.00     0.024 A 
HETATM    3  C   LIG     1      -1.880   2.588  -0.389  1.00  0.00    -0.061 A 
HETATM    4  C   LIG     1       0.829   2.719   0.312  1.00  0.00     0.017 A 
HETATM    5  C   LIG     1       0.082   3.889   0.201  1.00  0.00     0.002 A 
HETATM    6  C   LIG     1      -1.265   3.824  -0.148  1.00  0.00     0.007 A 
HETATM    7  C   LIG     1      -3.328   2.544  -0.782  1.00  0.00     0.048 C 
ENDROOT
BRANCH   1   8
HETATM    8  C   LIG     1       1.013   0.206   0.188  1.00  0.00     0.292 C 
HETATM    9  O   LIG     1       0.553  -0.907   0.011  1.00  0.00    -0.259 OA
BRANCH   8  10
HETATM   10  O   LIG     1       2.297   0.500   0.518  1.00  0.00    -0.323 OA
HETATM   11  C   LIG     1       3.161  -0.623   0.667  1.00  0.00     0.213 C 
ENDBRANCH   8  10
ENDBRANCH   1   8
TORSDOF 2
