REMARK  1 active torsions:
REMARK  status: ('A' for Active; 'I' for Inactive)
REMARK    1  A    between atoms: C_3  and  C_4 
ROOT
HETATM    1  N   LIG     1       0.983   0.066   0.397  1.00  0.00    -0.191 NA
HETATM    2  C   LIG     1       2.127   0.056   0.204  1.00  0.00     0.099 C 
HETATM    3  C   LIG     1       6.311  -0.010  -0.511  1.00  0.00     0.009 A 
HETATM    4  C   LIG     1       5.657   1.198  -0.227  1.00  0.00     0.016 A 
HETATM    5  C   LIG     1       5.569  -1.197  -0.553  1.00  0.00     0.016 A 
HETATM    6  C   LIG     1       3.541   0.036  -0.036  1.00  0.00     0.044 A 
HETATM    7  C   LIG     1       4.279   1.222   0.009  1.00  0.00     0.023 A 
HETATM    8  C   LIG     1       4.189  -1.172  -0.317  1.00  0.00     0.023 A 
ENDROOT
BRANCH   3   9
HETATM    9  C   LIG     1       7.784   0.020  -0.756  1.00  0.00     0.155 C 
HETATM   10  O   LIG     1       8.398   1.080  -0.651  1.00  0.00    -0.293 OA
HETATM   11  C   LIG     1       8.490  -1.257  -1.128  1.00  0.00     0.096 C 
ENDBRANCH   3   9
TORSDOF 1
