REMARK  3 active torsions:
REMARK  status: ('A' for Active; 'I' for Inactive)
REMARK    1  A    between atoms: C_2  and  C_6 
REMARK    2  A    between atoms: C_6  and  C_11 
REMARK    3  A    between atoms: N_7  and  C_11 
ROOT
HETATM    1  C   LIG     1       2.139  -1.309  -0.139  1.00  0.00     0.073 C 
ENDROOT
BRANCH   1   2
HETATM    2  C   LIG     1       0.928  -0.428  -0.263  1.00  0.00    -0.016 A 
HETATM    3  S   LIG     1       0.956   1.172   0.350  1.00  0.00    -0.106 SA
HETATM    4  C   LIG     1      -0.660   1.452  -0.134  1.00  0.00     0.050 A 
HETATM    5  C   LIG     1      -1.212   0.354  -0.752  1.00  0.00     0.008 A 
HETATM    6  C   LIG     1      -0.294  -0.733  -0.828  1.00  0.00     0.015 A 
ENDBRANCH   1   2
BRANCH   1   7
HETATM    7  C   LIG     1       3.071  -1.166  -1.348  1.00  0.00     0.234 C 
BRANCH   7   8
HETATM    8  N   LIG     1       4.251  -2.021  -1.214  1.00  0.00    -0.079 N 
ATOM      9  HN3 LIG     1       4.744  -1.844  -0.339  1.00  0.00     0.274 HD
ATOM     10  HN2 LIG     1       3.992  -2.994  -1.054  1.00  0.00     0.274 HD
ATOM     11  HN1 LIG     1       4.871  -1.926  -2.018  1.00  0.00     0.274 HD
ENDBRANCH   7   8
ENDBRANCH   1   7
TORSDOF 3
