REMARK  4 active torsions:
REMARK  status: ('A' for Active; 'I' for Inactive)
REMARK    1  A    between atoms: C_1  and  O_2 
REMARK    2  A    between atoms: O_2  and  C_6 
REMARK    3  A    between atoms: C_7  and  C_14 
REMARK    4  A    between atoms: O_12  and  C_14 
ROOT
HETATM    1  C   LIG     1       1.282   3.056   2.358  1.00  0.00     0.078 A 
HETATM    2  C   LIG     1       1.643   5.084   4.283  1.00  0.00    -0.035 A 
HETATM    3  C   LIG     1       0.740   4.329   2.162  1.00  0.00     0.037 A 
HETATM    4  C   LIG     1       2.008   2.802   3.524  1.00  0.00     0.037 A 
HETATM    5  C   LIG     1       0.920   5.339   3.111  1.00  0.00     0.012 A 
HETATM    6  C   LIG     1       2.192   3.812   4.473  1.00  0.00     0.012 A 
ENDROOT
BRANCH   1   7
HETATM    7  O   LIG     1       1.044   2.171   1.347  1.00  0.00    -0.255 OA
BRANCH   7   8
HETATM    8  C   LIG     1       1.577   0.864   1.480  1.00  0.00     0.530 C 
HETATM    9  F   LIG     1       2.920   0.892   1.622  1.00  0.00    -0.144 F 
HETATM   10  F   LIG     1       1.291   0.160   0.362  1.00  0.00    -0.144 F 
HETATM   11  F   LIG     1       1.026   0.221   2.533  1.00  0.00    -0.144 F 
ENDBRANCH   7   8
ENDBRANCH   1   7
BRANCH   2  12
HETATM   12  C   LIG     1       1.873   6.171   5.297  1.00  0.00     0.202 C 
BRANCH  12  13
HETATM   13  O   LIG     1       3.071   6.880   5.011  1.00  0.00    -0.396 OA
ATOM     14  HO  LIG     1       3.216   7.567   5.651  1.00  0.00     0.209 HD
ENDBRANCH  12  13
ENDBRANCH   2  12
TORSDOF 4
