REMARK  2 active torsions:
REMARK  status: ('A' for Active; 'I' for Inactive)
REMARK    1  A    between atoms: C_1  and  C_2 
REMARK    2  A    between atoms: C_1  and  O_10 
ROOT
HETATM    1  C   LIG     1       0.279  -1.013  -1.344  1.00  0.00     0.040 A 
HETATM    2  C   LIG     1       0.455  -2.401  -1.401  1.00  0.00     0.026 A 
HETATM    3  C   LIG     1      -0.093  -3.155  -2.456  1.00  0.00    -0.037 A 
HETATM    4  C   LIG     1      -0.774  -2.498  -3.498  1.00  0.00     0.052 A 
HETATM    5  C   LIG     1      -0.454  -0.374  -2.345  1.00  0.00     0.019 A 
HETATM    6  C   LIG     1      -0.987  -1.116  -3.402  1.00  0.00     0.028 A 
HETATM    7  N   LIG     1      -1.443  -3.214  -4.501  1.00  0.00    -0.102 NA
HETATM    8  C   LIG     1       0.072  -4.650  -2.443  1.00  0.00     0.050 C 
ENDROOT
BRANCH   1   9
HETATM    9  C   LIG     1       0.798  -0.199  -0.215  1.00  0.00     0.292 C 
HETATM   10  O   LIG     1       0.381   0.915   0.063  1.00  0.00    -0.259 OA
BRANCH   9  11
HETATM   11  O   LIG     1       1.789  -0.864   0.429  1.00  0.00    -0.323 OA
HETATM   12  C   LIG     1       2.324  -0.170   1.556  1.00  0.00     0.213 C 
ENDBRANCH   9  11
ENDBRANCH   1   9
TORSDOF 2
