REMARK  2 active torsions:
REMARK  status: ('A' for Active; 'I' for Inactive)
REMARK    1  A    between atoms: C_1  and  C_2 
REMARK    2  A    between atoms: C_2  and  O_8 
ROOT
HETATM    1  C   LIG     1      -0.214  -1.151   0.060  1.00  0.00     0.080 A 
HETATM    2  S   LIG     1       1.417  -0.625  -0.026  1.00  0.00    -0.096 SA
HETATM    3  C   LIG     1      -1.084  -0.074   0.051  1.00  0.00     0.025 A 
HETATM    4  C   LIG     1       0.959   1.022  -0.061  1.00  0.00     0.050 A 
HETATM    5  C   LIG     1      -0.408   1.179  -0.016  1.00  0.00     0.009 A 
ENDROOT
BRANCH   1   6
HETATM    6  C   LIG     1      -0.504  -2.571   0.135  1.00  0.00     0.299 C 
HETATM    7  O   LIG     1       0.311  -3.487   0.142  1.00  0.00    -0.259 OA
BRANCH   6   8
HETATM    8  O   LIG     1      -1.857  -2.756   0.213  1.00  0.00    -0.322 OA
HETATM    9  C   LIG     1      -2.255  -4.121   0.340  1.00  0.00     0.213 C 
ENDBRANCH   6   8
ENDBRANCH   1   6
TORSDOF 2
