REMARK  2 active torsions:
REMARK  status: ('A' for Active; 'I' for Inactive)
REMARK    1  A    between atoms: C_1  and  C_3 
REMARK    2  A    between atoms: C_3  and  O_10 
ROOT
HETATM    1  C   LIG     1      -1.016  -0.530  -0.142  1.00  0.00     0.061 A 
HETATM    2  C   LIG     1       0.008  -1.484  -0.256  1.00  0.00     0.053 A 
HETATM    3  C   LIG     1      -0.676   0.832  -0.024  1.00  0.00     0.022 A 
HETATM    4  C   LIG     1       1.347  -1.076  -0.221  1.00  0.00     0.067 A 
HETATM    5  C   LIG     1       1.658   0.272  -0.091  1.00  0.00     0.118 A 
HETATM    6 CL   LIG     1      -0.273  -3.170  -0.514  1.00  0.00    -0.083 Cl
HETATM    7  C   LIG     1       0.661   1.231   0.003  1.00  0.00     0.043 A 
HETATM    8  F   LIG     1       2.942   0.652  -0.070  1.00  0.00    -0.206 F 
ENDROOT
BRANCH   1   9
HETATM    9  C   LIG     1      -2.467  -0.836  -0.167  1.00  0.00     0.294 C 
HETATM   10  O   LIG     1      -3.293  -0.070  -0.635  1.00  0.00    -0.259 OA
BRANCH   9  11
HETATM   11  O   LIG     1      -2.734  -1.981   0.503  1.00  0.00    -0.322 OA
HETATM   12  C   LIG     1      -4.124  -2.297   0.595  1.00  0.00     0.213 C 
ENDBRANCH   9  11
ENDBRANCH   1   9
TORSDOF 2
