REMARK  2 active torsions:
REMARK  status: ('A' for Active; 'I' for Inactive)
REMARK    1  A    between atoms: C_1  and  O_2 
REMARK    2  A    between atoms: O_2  and  C_3 
ROOT
HETATM    1  C   LIG     1       0.775  -2.107  -2.340  1.00  0.00     0.075 A 
HETATM    2  C   LIG     1       1.036  -3.040  -4.988  1.00  0.00     0.046 A 
HETATM    3  N   LIG     1       1.298  -3.507  -6.281  1.00  0.00    -0.102 NA
HETATM    4  C   LIG     1       0.998  -1.210  -3.382  1.00  0.00     0.039 A 
HETATM    5  C   LIG     1       0.728  -3.474  -2.622  1.00  0.00     0.039 A 
HETATM    6  C   LIG     1       1.150  -1.680  -4.694  1.00  0.00     0.029 A 
HETATM    7  C   LIG     1       0.882  -3.937  -3.932  1.00  0.00     0.029 A 
ENDROOT
BRANCH   1   8
HETATM    8  O   LIG     1       0.589  -1.792  -1.024  1.00  0.00    -0.290 OA
BRANCH   8   9
HETATM    9  C   LIG     1       0.765  -0.434  -0.657  1.00  0.00     0.505 C 
HETATM   10  F   LIG     1       0.596  -0.353   0.687  1.00  0.00    -0.184 F 
HETATM   11  F   LIG     1      -0.218   0.316  -1.215  1.00  0.00    -0.184 F 
ENDBRANCH   8   9
ENDBRANCH   1   8
TORSDOF 2
