REMARK  2 active torsions:
REMARK  status: ('A' for Active; 'I' for Inactive)
REMARK    1  A    between atoms: C_3  and  C_8 
REMARK    2  A    between atoms: N_4  and  C_8 
ROOT
HETATM    1  N   LIG     1       1.085   1.464   0.064  1.00  0.00    -0.375 N 
ATOM      2  HN  LIG     1       1.451   2.415   0.097  1.00  0.00     0.164 HD
HETATM    3  C   LIG     1      -0.801  -0.057  -0.078  1.00  0.00    -0.017 A 
HETATM    4  C   LIG     1      -0.242   1.216  -0.028  1.00  0.00     0.096 A 
HETATM    5  C   LIG     1       1.900   0.388   0.110  1.00  0.00     0.087 A 
HETATM    6  C   LIG     1       0.079  -1.143  -0.022  1.00  0.00     0.011 A 
HETATM    7  C   LIG     1       1.449  -0.921   0.072  1.00  0.00     0.018 A 
ENDROOT
BRANCH   3   8
HETATM    8  C   LIG     1      -2.290  -0.254  -0.167  1.00  0.00     0.271 C 
BRANCH   8   9
HETATM    9  N   LIG     1      -2.656  -0.998  -1.373  1.00  0.00    -0.075 N 
HETATM   10  C   LIG     1      -4.097  -1.181  -1.460  1.00  0.00     0.267 C 
ATOM     11  HN2 LIG     1      -2.282  -0.557  -2.214  1.00  0.00     0.277 HD
ATOM     12  HN1 LIG     1      -2.161  -1.888  -1.430  1.00  0.00     0.277 HD
ENDBRANCH   8   9
ENDBRANCH   3   8
TORSDOF 2
