REMARK  3 active torsions:
REMARK  status: ('A' for Active; 'I' for Inactive)
REMARK    1  A    between atoms: C_1  and  O_5 
REMARK       I    between atoms: C_2  and  N_3 
REMARK    2  A    between atoms: N_3  and  C_10 
REMARK    3  A    between atoms: O_5  and  C_11 
ROOT
HETATM    1  C   LIG     1       0.874  -2.939  -4.045  1.00  0.00     0.034 A 
HETATM    2  C   LIG     1       0.738  -1.593  -1.567  1.00  0.00     0.078 A 
HETATM    3  C   LIG     1       0.932  -1.543  -3.991  1.00  0.00     0.032 A 
HETATM    4  C   LIG     1       0.775  -3.649  -2.850  1.00  0.00     0.032 A 
HETATM    5  C   LIG     1       0.875  -0.877  -2.760  1.00  0.00     0.039 A 
HETATM    6  C   LIG     1       0.728  -2.982  -1.620  1.00  0.00     0.039 A 
ENDROOT
BRANCH   1   7
HETATM    7  N   LIG     1       0.928  -3.544  -5.315  1.00  0.00    -0.328 N 
HETATM    8  C   LIG     1       0.901  -4.901  -5.596  1.00  0.00     0.218 C 
HETATM    9  O   LIG     1       0.825  -5.821  -4.798  1.00  0.00    -0.274 OA
HETATM   10  C   LIG     1       0.968  -5.165  -7.078  1.00  0.00     0.117 C 
ATOM     11  HN  LIG     1       0.994  -2.915  -6.115  1.00  0.00     0.169 HD
ENDBRANCH   1   7
BRANCH   2  12
HETATM   12  O   LIG     1       0.661  -0.838  -0.437  1.00  0.00    -0.255 OA
BRANCH  12  13
HETATM   13  C   LIG     1       0.025  -1.362   0.725  1.00  0.00     0.530 C 
HETATM   14  F   LIG     1      -0.668  -2.502   0.522  1.00  0.00    -0.144 F 
HETATM   15  F   LIG     1      -0.849  -0.437   1.184  1.00  0.00    -0.144 F 
HETATM   16  F   LIG     1       0.948  -1.579   1.686  1.00  0.00    -0.144 F 
ENDBRANCH  12  13
ENDBRANCH   2  12
TORSDOF 3
