REMARK  1 active torsions:
REMARK  status: ('A' for Active; 'I' for Inactive)
REMARK    1  A    between atoms: C_1  and  C_2 
ROOT
HETATM    1  C   LIG     1       0.341  -0.784  -0.979  1.00  0.00     0.042 A 
HETATM    2  C   LIG     1      -0.885  -1.285  -3.000  1.00  0.00     0.041 A 
HETATM    3  C   LIG     1      -0.399  -0.349  -2.082  1.00  0.00     0.042 A 
HETATM    4  C   LIG     1      -0.629  -2.657  -2.835  1.00  0.00    -0.040 A 
HETATM    5  C   LIG     1       0.623  -2.142  -0.814  1.00  0.00     0.019 A 
HETATM    6  C   LIG     1       0.136  -3.072  -1.734  1.00  0.00     0.009 A 
HETATM    7 CL   LIG     1      -1.803  -0.693  -4.338  1.00  0.00    -0.084 Cl
HETATM    8  C   LIG     1      -1.139  -3.682  -3.809  1.00  0.00     0.050 C 
ENDROOT
BRANCH   1   9
HETATM    9  C   LIG     1       0.879   0.173   0.014  1.00  0.00     0.209 C 
HETATM   10  O   LIG     1       1.981   0.055   0.519  1.00  0.00    -0.644 OA
HETATM   11  O   LIG     1       0.006   1.149   0.339  1.00  0.00    -0.644 OA
ENDBRANCH   1   9
TORSDOF 1
