REMARK  1 active torsions:
REMARK  status: ('A' for Active; 'I' for Inactive)
REMARK    1  A    between atoms: C_1  and  C_2 
REMARK       I    between atoms: C_2  and  N_7 
ROOT
HETATM    1  C   LIG     1      -1.405  -0.189  -0.151  1.00  0.00     0.056 A 
HETATM    2  C   LIG     1      -0.604  -1.351  -0.165  1.00  0.00     0.062 A 
HETATM    3  C   LIG     1      -0.801   1.078  -0.188  1.00  0.00     0.019 A 
HETATM    4  C   LIG     1       0.789  -1.200  -0.066  1.00  0.00     0.034 A 
HETATM    5  N   LIG     1      -1.138  -2.657  -0.076  1.00  0.00    -0.101 NA
HETATM    6  C   LIG     1       0.588   1.204  -0.162  1.00  0.00     0.008 A 
HETATM    7  C   LIG     1       1.393   0.066  -0.081  1.00  0.00    -0.060 A 
HETATM    8  C   LIG     1       2.886   0.210  -0.017  1.00  0.00     0.048 C 
ENDROOT
BRANCH   1   9
HETATM    9  C   LIG     1      -2.895  -0.211  -0.103  1.00  0.00     0.251 C 
HETATM   10  O   LIG     1      -3.574   0.708  -0.544  1.00  0.00    -0.268 OA
HETATM   11  N   LIG     1      -3.482  -1.282   0.511  1.00  0.00    -0.366 N 
ATOM     12  HN2 LIG     1      -2.917  -2.047   0.878  1.00  0.00     0.159 HD
ATOM     13  HN1 LIG     1      -4.501  -1.297   0.544  1.00  0.00     0.159 HD
ENDBRANCH   1   9
TORSDOF 1
