REMARK  2 active torsions:
REMARK  status: ('A' for Active; 'I' for Inactive)
REMARK       I    between atoms: C_1  and  N_2 
REMARK    1  A    between atoms: N_2  and  C_8 
REMARK    2  A    between atoms: C_7  and  C_8 
ROOT
HETATM    1  N   LIG     1      -2.866   3.934   2.607  1.00  0.00    -0.375 N 
ATOM      2  HN  LIG     1      -3.522   3.704   3.353  1.00  0.00     0.164 HD
HETATM    3  C   LIG     1      -1.289   3.226   0.909  1.00  0.00    -0.025 A 
HETATM    4  C   LIG     1      -2.201   2.973   1.927  1.00  0.00     0.096 A 
HETATM    5  C   LIG     1      -2.619   5.213   2.250  1.00  0.00     0.087 A 
HETATM    6  C   LIG     1      -1.068   4.563   0.562  1.00  0.00     0.011 A 
HETATM    7  C   LIG     1      -1.739   5.574   1.243  1.00  0.00     0.018 A 
ENDROOT
BRANCH   3   8
HETATM    8  C   LIG     1      -0.583   2.105   0.206  1.00  0.00     0.162 C 
BRANCH   8   9
HETATM    9  N   LIG     1       0.850   2.218   0.356  1.00  0.00    -0.357 N 
HETATM   10  C   LIG     1       1.704   1.601  -0.527  1.00  0.00     0.213 C 
HETATM   11  O   LIG     1       1.327   0.955  -1.495  1.00  0.00    -0.274 OA
HETATM   12  C   LIG     1       3.161   1.773  -0.194  1.00  0.00     0.117 C 
ATOM     13  HN  LIG     1       1.233   2.763   1.128  1.00  0.00     0.162 HD
ENDBRANCH   8   9
ENDBRANCH   3   8
TORSDOF 2
