REMARK  3 active torsions:
REMARK  status: ('A' for Active; 'I' for Inactive)
REMARK    1  A    between atoms: C_1  and  O_2 
REMARK    2  A    between atoms: O_2  and  C_11 
REMARK    3  A    between atoms: C_3  and  C_4 
ROOT
HETATM    1  C   LIG     1       1.157  -5.981  -1.095  1.00  0.00     0.009 A 
HETATM    2  C   LIG     1       1.025  -5.741   0.276  1.00  0.00     0.018 A 
HETATM    3  C   LIG     1       1.174  -4.896  -1.978  1.00  0.00     0.018 A 
HETATM    4  C   LIG     1       0.931  -3.346  -0.133  1.00  0.00     0.078 A 
HETATM    5  C   LIG     1       1.059  -3.589  -1.501  1.00  0.00     0.038 A 
HETATM    6  C   LIG     1       0.914  -4.429   0.750  1.00  0.00     0.038 A 
ENDROOT
BRANCH   4   7
HETATM    7  O   LIG     1       0.817  -2.118   0.455  1.00  0.00    -0.255 OA
BRANCH   7   8
HETATM    8  C   LIG     1       0.822  -0.990  -0.408  1.00  0.00     0.530 C 
HETATM    9  F   LIG     1       1.973  -0.920  -1.109  1.00  0.00    -0.144 F 
HETATM   10  F   LIG     1       0.715   0.132   0.336  1.00  0.00    -0.144 F 
HETATM   11  F   LIG     1      -0.225  -1.031  -1.260  1.00  0.00    -0.144 F 
ENDBRANCH   7   8
ENDBRANCH   4   7
BRANCH   1  12
HETATM   12  C   LIG     1       1.279  -7.355  -1.661  1.00  0.00     0.155 C 
HETATM   13  O   LIG     1       1.398  -7.510  -2.878  1.00  0.00    -0.293 OA
HETATM   14  C   LIG     1       1.249  -8.528  -0.723  1.00  0.00     0.096 C 
ENDBRANCH   1  12
TORSDOF 3
