REMARK  2 active torsions:
REMARK  status: ('A' for Active; 'I' for Inactive)
REMARK    1  A    between atoms: C_1  and  C_2 
REMARK    2  A    between atoms: C_2  and  O_5 
ROOT
HETATM    1  C   LIG     1      -0.930  -0.521  -0.161  1.00  0.00     0.061 A 
HETATM    2  C   LIG     1       0.090  -1.481  -0.139  1.00  0.00     0.050 A 
HETATM    3 CL   LIG     1      -0.194  -3.186  -0.144  1.00  0.00    -0.083 Cl
HETATM    4  C   LIG     1      -0.595   0.841  -0.057  1.00  0.00     0.019 A 
HETATM    5  C   LIG     1       1.427  -1.070  -0.049  1.00  0.00     0.025 A 
HETATM    6  C   LIG     1       0.738   1.242   0.040  1.00  0.00     0.001 A 
HETATM    7  C   LIG     1       1.750   0.286   0.038  1.00  0.00     0.002 A 
ENDROOT
BRANCH   1   8
HETATM    8  C   LIG     1      -2.375  -0.832  -0.247  1.00  0.00     0.294 C 
HETATM    9  O   LIG     1      -3.230  -0.174   0.331  1.00  0.00    -0.259 OA
BRANCH   8  10
HETATM   10  O   LIG     1      -2.605  -1.839  -1.120  1.00  0.00    -0.322 OA
HETATM   11  C   LIG     1      -3.984  -2.186  -1.260  1.00  0.00     0.213 C 
ENDBRANCH   8  10
ENDBRANCH   1   8
TORSDOF 2
