REMARK  2 active torsions:
REMARK  status: ('A' for Active; 'I' for Inactive)
REMARK    1  A    between atoms: C_1  and  C_2 
REMARK    2  A    between atoms: C_1  and  O_5 
ROOT
HETATM    1  C   LIG     1       0.229   1.520  -0.726  1.00  0.00     0.045 A 
HETATM    2  C   LIG     1       0.415   2.818  -0.204  1.00  0.00    -0.046 A 
HETATM    3  C   LIG     1      -0.556   1.340  -1.879  1.00  0.00     0.018 A 
HETATM    4  C   LIG     1       1.257   3.086   1.014  1.00  0.00     0.049 C 
HETATM    5  C   LIG     1      -0.200   3.903  -0.851  1.00  0.00     0.008 A 
HETATM    6  C   LIG     1      -1.163   2.429  -2.503  1.00  0.00     0.001 A 
HETATM    7  C   LIG     1      -0.988   3.709  -1.987  1.00  0.00     0.001 A 
ENDROOT
BRANCH   1   8
HETATM    8  C   LIG     1       0.850   0.332  -0.072  1.00  0.00     0.293 C 
HETATM    9  O   LIG     1       1.897   0.346   0.550  1.00  0.00    -0.259 OA
BRANCH   8  10
HETATM   10  O   LIG     1       0.028  -0.740  -0.220  1.00  0.00    -0.323 OA
HETATM   11  C   LIG     1       0.451  -1.914   0.476  1.00  0.00     0.213 C 
ENDBRANCH   8  10
ENDBRANCH   1   8
TORSDOF 2
