REMARK  2 active torsions:
REMARK  status: ('A' for Active; 'I' for Inactive)
REMARK    1  A    between atoms: C_1  and  C_2 
REMARK    2  A    between atoms: C_3  and  C_4 
REMARK       I    between atoms: C_4  and  N_9 
ROOT
HETATM    1  C   LIG     1       0.594  -1.395  -0.055  1.00  0.00     0.063 A 
HETATM    2  C   LIG     1       0.028  -1.319  -1.341  1.00  0.00     0.046 A 
HETATM    3  C   LIG     1       0.841  -2.669   0.496  1.00  0.00     0.017 A 
HETATM    4  C   LIG     1      -0.316  -2.497  -2.026  1.00  0.00     0.018 A 
HETATM    5  C   LIG     1       0.513  -3.833  -0.201  1.00  0.00     0.001 A 
HETATM    6  C   LIG     1      -0.071  -3.747  -1.460  1.00  0.00     0.001 A 
ENDROOT
BRANCH   2   7
HETATM    7  C   LIG     1      -0.281  -0.047  -2.042  1.00  0.00     0.250 C 
HETATM    8  O   LIG     1      -1.306   0.077  -2.700  1.00  0.00    -0.268 OA
HETATM    9  N   LIG     1       0.643   0.953  -1.987  1.00  0.00    -0.366 N 
ATOM     10  HN2 LIG     1       1.497   0.850  -1.439  1.00  0.00     0.159 HD
ATOM     11  HN1 LIG     1       0.431   1.827  -2.469  1.00  0.00     0.159 HD
ENDBRANCH   2   7
BRANCH   1  12
HETATM   12  C   LIG     1       0.917  -0.168   0.752  1.00  0.00     0.418 C 
HETATM   13  F   LIG     1      -0.116   0.709   0.850  1.00  0.00    -0.166 F 
HETATM   14  F   LIG     1       1.969   0.528   0.230  1.00  0.00    -0.166 F 
HETATM   15  F   LIG     1       1.279  -0.448   2.037  1.00  0.00    -0.166 F 
ENDBRANCH   1  12
TORSDOF 2
