REMARK  1 active torsions:
REMARK  status: ('A' for Active; 'I' for Inactive)
REMARK    1  A    between atoms: C_3  and  N_6 
ROOT
HETATM    1  C   LIG     1      -1.261  -0.097  -0.088  1.00  0.00     0.145 A 
HETATM    2  C   LIG     1      -0.731   1.168  -0.316  1.00  0.00     0.086 A 
HETATM    3  C   LIG     1      -0.456  -1.199   0.267  1.00  0.00     0.066 A 
HETATM    4  C   LIG     1       0.914  -0.966   0.444  1.00  0.00     0.035 A 
HETATM    5  C   LIG     1       0.632   1.354  -0.164  1.00  0.00     0.119 A 
HETATM    6  F   LIG     1      -2.584  -0.275  -0.237  1.00  0.00    -0.204 F 
HETATM    7  C   LIG     1       1.459   0.303   0.218  1.00  0.00     0.044 A 
HETATM    8  F   LIG     1       1.162   2.565  -0.375  1.00  0.00    -0.206 F 
ENDROOT
BRANCH   3   9
HETATM    9  N   LIG     1      -1.068  -2.429   0.553  1.00  0.00    -0.392 N 
HETATM   10  C   LIG     1      -0.307  -3.652   0.376  1.00  0.00     0.146 C 
ATOM     11  HN  LIG     1      -2.033  -2.463   0.880  1.00  0.00     0.159 HD
ENDBRANCH   3   9
TORSDOF 1
