REMARK  2 active torsions:
REMARK  status: ('A' for Active; 'I' for Inactive)
REMARK    1  A    between atoms: C_1  and  O_3 
REMARK    2  A    between atoms: O_3  and  C_6 
ROOT
HETATM    1  N   LIG     1       1.448  -0.369  -4.426  1.00  0.00    -0.191 NA
HETATM    2  C   LIG     1       1.318  -1.347  -3.812  1.00  0.00     0.102 C 
HETATM    3  C   LIG     1       1.157  -2.576  -3.089  1.00  0.00     0.078 A 
HETATM    4  C   LIG     1       1.040  -2.593  -1.689  1.00  0.00     0.099 A 
HETATM    5  C   LIG     1       1.128  -3.778  -3.811  1.00  0.00     0.025 A 
HETATM    6  C   LIG     1       0.836  -3.816  -1.038  1.00  0.00     0.039 A 
HETATM    7  C   LIG     1       0.959  -4.992  -3.148  1.00  0.00     0.002 A 
HETATM    8  C   LIG     1       0.802  -5.009  -1.765  1.00  0.00     0.003 A 
ENDROOT
BRANCH   4   9
HETATM    9  O   LIG     1       1.097  -1.386  -1.044  1.00  0.00    -0.254 OA
BRANCH   9  10
HETATM   10  C   LIG     1       1.613  -1.397   0.280  1.00  0.00     0.530 C 
HETATM   11  F   LIG     1       2.739  -2.137   0.364  1.00  0.00    -0.144 F 
HETATM   12  F   LIG     1       0.695  -1.875   1.147  1.00  0.00    -0.144 F 
HETATM   13  F   LIG     1       1.914  -0.131   0.642  1.00  0.00    -0.144 F 
ENDBRANCH   9  10
ENDBRANCH   4   9
TORSDOF 2
