REMARK  2 active torsions:
REMARK  status: ('A' for Active; 'I' for Inactive)
REMARK    1  A    between atoms: C_1  and  C_2 
REMARK    2  A    between atoms: C_1  and  O_10 
ROOT
HETATM    1  C   LIG     1       0.199   1.308   1.316  1.00  0.00     0.041 A 
HETATM    2  C   LIG     1      -0.500   3.527   1.997  1.00  0.00     0.041 A 
HETATM    3  C   LIG     1       0.301   2.700   1.210  1.00  0.00     0.042 A 
HETATM    4  C   LIG     1      -1.419   2.980   2.904  1.00  0.00    -0.040 A 
HETATM    5  C   LIG     1      -0.729   0.752   2.203  1.00  0.00     0.018 A 
HETATM    6  C   LIG     1      -1.531   1.583   2.991  1.00  0.00     0.009 A 
HETATM    7 CL   LIG     1      -0.305   5.235   1.822  1.00  0.00    -0.084 Cl
HETATM    8  C   LIG     1      -2.293   3.851   3.761  1.00  0.00     0.050 C 
ENDROOT
BRANCH   1   9
HETATM    9  C   LIG     1       1.085   0.397   0.539  1.00  0.00     0.293 C 
HETATM   10  O   LIG     1       1.024  -0.818   0.577  1.00  0.00    -0.259 OA
BRANCH   9  11
HETATM   11  O   LIG     1       1.987   1.138  -0.150  1.00  0.00    -0.323 OA
HETATM   12  C   LIG     1       3.007   0.397  -0.817  1.00  0.00     0.213 C 
ENDBRANCH   9  11
ENDBRANCH   1   9
TORSDOF 2
