REMARK  2 active torsions:
REMARK  status: ('A' for Active; 'I' for Inactive)
REMARK    1  A    between atoms: C_1  and  C_2 
REMARK    2  A    between atoms: C_1  and  O_6 
ROOT
HETATM    1  C   LIG     1       0.124  -1.672  -0.876  1.00  0.00     0.041 A 
HETATM    2  C   LIG     1       0.613  -2.913  -0.443  1.00  0.00     0.044 A 
HETATM    3  C   LIG     1       0.121  -4.103  -0.990  1.00  0.00     0.047 A 
HETATM    4  N   LIG     1       0.525  -5.341  -0.475  1.00  0.00    -0.102 NA
HETATM    5  C   LIG     1      -0.906  -1.629  -1.827  1.00  0.00     0.018 A 
HETATM    6  C   LIG     1      -1.444  -2.812  -2.326  1.00  0.00     0.003 A 
HETATM    7  C   LIG     1      -0.944  -4.040  -1.893  1.00  0.00     0.026 A 
ENDROOT
BRANCH   1   8
HETATM    8  C   LIG     1       0.714  -0.428  -0.311  1.00  0.00     0.293 C 
HETATM    9  O   LIG     1       1.598  -0.407   0.533  1.00  0.00    -0.259 OA
BRANCH   8  10
HETATM   10  O   LIG     1       0.138   0.654  -0.892  1.00  0.00    -0.323 OA
HETATM   11  C   LIG     1       0.633   1.919  -0.457  1.00  0.00     0.213 C 
ENDBRANCH   8  10
ENDBRANCH   1   8
TORSDOF 2
