REMARK  1 active torsions:
REMARK  status: ('A' for Active; 'I' for Inactive)
REMARK    1  A    between atoms: C_1  and  C_2 
REMARK       I    between atoms: C_1  and  N_9 
ROOT
HETATM    1  C   LIG     1       0.271   0.920   0.836  1.00  0.00     0.032 A 
HETATM    2  C   LIG     1      -0.806   0.499   1.627  1.00  0.00     0.024 A 
HETATM    3  C   LIG     1      -1.521   1.418   2.416  1.00  0.00    -0.055 A 
HETATM    4  C   LIG     1      -1.143   2.777   2.409  1.00  0.00    -0.056 A 
HETATM    5  C   LIG     1       0.655   2.262   0.852  1.00  0.00     0.017 A 
HETATM    6  C   LIG     1      -0.050   3.183   1.628  1.00  0.00     0.008 A 
HETATM    7  C   LIG     1      -2.675   0.932   3.250  1.00  0.00     0.049 C 
HETATM    8  C   LIG     1      -1.884   3.802   3.223  1.00  0.00     0.049 C 
ENDROOT
BRANCH   1   9
HETATM    9  C   LIG     1       1.040  -0.023  -0.018  1.00  0.00     0.249 C 
HETATM   10  O   LIG     1       2.190   0.211  -0.365  1.00  0.00    -0.268 OA
HETATM   11  N   LIG     1       0.394  -1.148  -0.450  1.00  0.00    -0.366 N 
ATOM     12  HN2 LIG     1      -0.564  -1.343  -0.161  1.00  0.00     0.159 HD
ATOM     13  HN1 LIG     1       0.922  -1.795  -1.036  1.00  0.00     0.159 HD
ENDBRANCH   1   9
TORSDOF 1
