REMARK  2 active torsions:
REMARK  status: ('A' for Active; 'I' for Inactive)
REMARK    1  A    between atoms: C_5  and  C_10 
REMARK    2  A    between atoms: O_7  and  C_10 
ROOT
HETATM    1  C   LIG     1      -1.423  -0.074  -0.109  1.00  0.00    -0.056 A 
HETATM    2  C   LIG     1      -0.643  -1.247  -0.116  1.00  0.00    -0.056 A 
HETATM    3  C   LIG     1      -0.783   1.177  -0.122  1.00  0.00     0.016 A 
HETATM    4  C   LIG     1       0.756  -1.141  -0.114  1.00  0.00     0.008 A 
HETATM    5  C   LIG     1       0.614   1.278  -0.139  1.00  0.00    -0.034 A 
HETATM    6  C   LIG     1       1.378   0.108  -0.122  1.00  0.00     0.010 A 
HETATM    7  C   LIG     1      -2.926  -0.131  -0.102  1.00  0.00     0.049 C 
HETATM    8  C   LIG     1      -1.277  -2.612  -0.103  1.00  0.00     0.049 C 
ENDROOT
BRANCH   5   9
HETATM    9  C   LIG     1       1.280   2.627  -0.114  1.00  0.00     0.202 C 
BRANCH   9  10
HETATM   10  O   LIG     1       1.428   3.088   1.222  1.00  0.00    -0.396 OA
ATOM     11  HO  LIG     1       1.848   3.940   1.238  1.00  0.00     0.209 HD
ENDBRANCH   9  10
ENDBRANCH   5   9
TORSDOF 2
