REMARK  2 active torsions:
REMARK  status: ('A' for Active; 'I' for Inactive)
REMARK    1  A    between atoms: C_1  and  C_3 
REMARK    2  A    between atoms: C_1  and  O_7 
ROOT
HETATM    1  N   LIG     1       1.547   4.336  -0.081  1.00  0.00    -0.191 NA
HETATM    2  C   LIG     1       0.057   1.429   1.366  1.00  0.00     0.060 A 
HETATM    3  C   LIG     1       0.929   3.641   0.611  1.00  0.00     0.100 C 
HETATM    4  C   LIG     1       0.157   2.822   1.503  1.00  0.00     0.060 A 
HETATM    5  C   LIG     1      -0.670   0.688   2.314  1.00  0.00     0.019 A 
HETATM    6  C   LIG     1      -0.498   3.455   2.573  1.00  0.00     0.024 A 
HETATM    7  C   LIG     1      -1.317   1.329   3.371  1.00  0.00     0.001 A 
HETATM    8  C   LIG     1      -1.235   2.712   3.498  1.00  0.00     0.002 A 
ENDROOT
BRANCH   2   9
HETATM    9  C   LIG     1       0.676   0.654   0.263  1.00  0.00     0.294 C 
HETATM   10  O   LIG     1       1.079  -0.490   0.398  1.00  0.00    -0.259 OA
BRANCH   9  11
HETATM   11  O   LIG     1       0.591   1.350  -0.891  1.00  0.00    -0.322 OA
HETATM   12  C   LIG     1       1.048   0.672  -2.065  1.00  0.00     0.213 C 
ENDBRANCH   9  11
ENDBRANCH   2   9
TORSDOF 2
