REMARK  3 active torsions:
REMARK  status: ('A' for Active; 'I' for Inactive)
REMARK    1  A    between atoms: C_1  and  C_2 
REMARK    2  A    between atoms: C_10  and  C_15 
REMARK    3  A    between atoms: N_11  and  C_15 
ROOT
HETATM    1  C   LIG     1       0.591   0.984   0.875  1.00  0.00     0.047 A 
HETATM    2  C   LIG     1      -0.322   0.703   1.900  1.00  0.00     0.017 A 
HETATM    3  C   LIG     1       1.048   2.302   0.719  1.00  0.00     0.017 A 
HETATM    4  C   LIG     1       0.600   3.317   1.569  1.00  0.00     0.009 A 
HETATM    5  C   LIG     1      -0.768   1.719   2.750  1.00  0.00     0.009 A 
HETATM    6  C   LIG     1      -0.314   3.036   2.592  1.00  0.00    -0.033 A 
ENDROOT
BRANCH   6   7
HETATM    7  C   LIG     1      -0.795   4.125   3.518  1.00  0.00     0.268 C 
BRANCH   7   8
HETATM    8  N   LIG     1      -2.239   4.305   3.425  1.00  0.00    -0.075 N 
ATOM      9  HN3 LIG     1      -2.533   4.476   2.463  1.00  0.00     0.274 HD
ATOM     10  HN2 LIG     1      -2.736   3.429   3.589  1.00  0.00     0.274 HD
ATOM     11  HN1 LIG     1      -2.564   5.041   4.051  1.00  0.00     0.274 HD
ENDBRANCH   7   8
ENDBRANCH   6   7
BRANCH   1  12
HETATM   12  C   LIG     1       1.081  -0.098  -0.054  1.00  0.00     0.417 C 
HETATM   13  F   LIG     1       0.568  -1.330   0.219  1.00  0.00    -0.166 F 
HETATM   14  F   LIG     1       2.436  -0.243  -0.016  1.00  0.00    -0.166 F 
HETATM   15  F   LIG     1       0.772   0.154  -1.357  1.00  0.00    -0.166 F 
ENDBRANCH   1  12
TORSDOF 3
