REMARK  1 active torsions:
REMARK  status: ('A' for Active; 'I' for Inactive)
REMARK    1  A    between atoms: C_1  and  C_2 
ROOT
HETATM    1  C   LIG     1      -1.426  -0.149  -0.082  1.00  0.00     0.046 A 
HETATM    2  C   LIG     1      -0.626  -1.309  -0.149  1.00  0.00    -0.043 A 
HETATM    3  C   LIG     1      -0.818   1.118  -0.026  1.00  0.00     0.020 A 
HETATM    4  C   LIG     1       0.775  -1.165  -0.106  1.00  0.00     0.031 A 
HETATM    5  C   LIG     1       1.362   0.098  -0.033  1.00  0.00     0.034 A 
HETATM    6  C   LIG     1       0.572   1.242   0.000  1.00  0.00     0.025 A 
HETATM    7 CL   LIG     1       3.076   0.243   0.011  1.00  0.00    -0.084 Cl
HETATM    8  C   LIG     1      -1.196  -2.696  -0.254  1.00  0.00     0.049 C 
ENDROOT
BRANCH   1   9
HETATM    9  C   LIG     1      -2.912  -0.151  -0.084  1.00  0.00     0.209 C 
HETATM   10  O   LIG     1      -3.618   0.750  -0.498  1.00  0.00    -0.644 OA
HETATM   11  O   LIG     1      -3.442  -1.223   0.526  1.00  0.00    -0.644 OA
ENDBRANCH   1   9
TORSDOF 1
