REMARK  1 active torsions:
REMARK  status: ('A' for Active; 'I' for Inactive)
REMARK       I    between atoms: C_5  and  N_6 
REMARK    1  A    between atoms: N_6  and  C_9 
ROOT
HETATM    1  C   LIG     1      -0.667   0.649   0.027  1.00  0.00     0.016 A 
HETATM    2  C   LIG     1      -0.378  -0.708   0.025  1.00  0.00    -0.042 A 
HETATM    3  C   LIG     1      -2.113   0.814   0.054  1.00  0.00     0.160 A 
HETATM    4  C   LIG     1       0.312   1.621  -0.004  1.00  0.00     0.018 A 
HETATM    5  C   LIG     1       0.944  -1.131  -0.016  1.00  0.00     0.037 A 
HETATM    6  C   LIG     1       1.971  -0.170  -0.077  1.00  0.00     0.035 A 
HETATM    7  C   LIG     1      -1.612  -1.553   0.053  1.00  0.00     0.047 A 
HETATM    8  C   LIG     1      -2.772  -0.542   0.062  1.00  0.00     0.088 A 
HETATM    9  O   LIG     1      -2.682   1.892   0.061  1.00  0.00    -0.292 OA
HETATM   10  C   LIG     1       1.643   1.199  -0.058  1.00  0.00     0.030 A 
ENDROOT
BRANCH   6  11
HETATM   11  N   LIG     1       3.294  -0.652  -0.166  1.00  0.00    -0.328 N 
HETATM   12  C   LIG     1       4.439   0.089  -0.406  1.00  0.00     0.218 C 
HETATM   13  O   LIG     1       4.511   1.297  -0.594  1.00  0.00    -0.274 OA
HETATM   14  C   LIG     1       5.673  -0.777  -0.464  1.00  0.00     0.117 C 
ATOM     15  HN  LIG     1       3.421  -1.656  -0.040  1.00  0.00     0.169 HD
ENDBRANCH   6  11
TORSDOF 1
