REMARK  1 active torsions:
REMARK  status: ('A' for Active; 'I' for Inactive)
REMARK    1  A    between atoms: C_1  and  C_8 
ROOT
HETATM    1  C   LIG     1      -0.335  -1.217   0.011  1.00  0.00     0.051 A 
HETATM    2  S   LIG     1       1.345  -0.867   0.017  1.00  0.00    -0.076 SA
HETATM    3  C   LIG     1       1.078   0.819   0.005  1.00  0.00     0.086 A 
HETATM    4  C   LIG     1      -1.083  -0.052   0.001  1.00  0.00     0.025 A 
HETATM    5  N   LIG     1       2.975   2.581   0.001  1.00  0.00    -0.191 NA
HETATM    6  C   LIG     1       2.134   1.781   0.003  1.00  0.00     0.107 C 
HETATM    7  C   LIG     1      -0.267   1.120  -0.003  1.00  0.00     0.032 A 
ENDROOT
BRANCH   1   8
HETATM    8  C   LIG     1      -0.775  -2.608   0.017  1.00  0.00     0.162 C 
HETATM    9  O   LIG     1      -0.009  -3.573   0.033  1.00  0.00    -0.292 OA
HETATM   10  C   LIG     1      -2.267  -2.849   0.002  1.00  0.00     0.097 C 
ENDBRANCH   1   8
TORSDOF 1
