REMARK  3 active torsions:
REMARK  status: ('A' for Active; 'I' for Inactive)
REMARK    1  A    between atoms: C_1  and  C_2 
REMARK    2  A    between atoms: C_8  and  C_10 
REMARK    3  A    between atoms: C_10  and  C_11 
ROOT
HETATM    1  C   LIG     1       0.319   0.784   0.337  1.00  0.00     0.009 A 
HETATM    2  C   LIG     1      -1.057   0.801   0.593  1.00  0.00     0.015 A 
HETATM    3  C   LIG     1       1.017   1.996   0.267  1.00  0.00     0.015 A 
HETATM    4  C   LIG     1       0.349   3.210   0.446  1.00  0.00     0.008 A 
HETATM    5  C   LIG     1      -1.723   2.018   0.772  1.00  0.00     0.008 A 
HETATM    6  C   LIG     1      -1.027   3.232   0.704  1.00  0.00    -0.058 A 
ENDROOT
BRANCH   1   7
HETATM    7  C   LIG     1       1.076  -0.488   0.131  1.00  0.00     0.155 C 
HETATM    8  O   LIG     1       2.289  -0.454  -0.069  1.00  0.00    -0.293 OA
HETATM    9  C   LIG     1       0.332  -1.797   0.177  1.00  0.00     0.096 C 
ENDBRANCH   1   7
BRANCH   6  10
HETATM   10  C   LIG     1      -1.751   4.543   0.883  1.00  0.00     0.038 C 
BRANCH  10  11
HETATM   11  C   LIG     1      -2.264   5.099  -0.446  1.00  0.00     0.000 C 
HETATM   12  C   LIG     1      -2.982   6.426  -0.254  1.00  0.00     0.005 C 
ENDBRANCH  10  11
ENDBRANCH   6  10
TORSDOF 3
