REMARK  4 active torsions:
REMARK  status: ('A' for Active; 'I' for Inactive)
REMARK    1  A    between atoms: C_1  and  C_11 
REMARK    2  A    between atoms: C_2  and  O_12 
REMARK    3  A    between atoms: C_5  and  O_13 
REMARK    4  A    between atoms: N_7  and  C_11 
ROOT
HETATM    1  C   LIG     1      -1.467  -0.145  -0.063  1.00  0.00     0.003 A 
HETATM    2  C   LIG     1      -0.698  -1.313   0.076  1.00  0.00     0.076 A 
HETATM    3  C   LIG     1      -0.816   1.096  -0.174  1.00  0.00     0.048 A 
HETATM    4  C   LIG     1       0.696  -1.222   0.099  1.00  0.00     0.040 A 
HETATM    5  C   LIG     1       0.572   1.191  -0.138  1.00  0.00     0.069 A 
HETATM    6  C   LIG     1       1.326   0.024  -0.002  1.00  0.00     0.039 A 
ENDROOT
BRANCH   1   7
HETATM    7  C   LIG     1      -2.973  -0.173  -0.122  1.00  0.00     0.271 C 
BRANCH   7   8
HETATM    8  N   LIG     1      -3.447  -0.292  -1.496  1.00  0.00    -0.075 N 
ATOM      9  HN3 LIG     1      -3.063   0.443  -2.090  1.00  0.00     0.274 HD
ATOM     10  HN2 LIG     1      -3.039  -1.101  -1.964  1.00  0.00     0.274 HD
ATOM     11  HN1 LIG     1      -4.466  -0.311  -1.536  1.00  0.00     0.274 HD
ENDBRANCH   7   8
ENDBRANCH   1   7
BRANCH   2  12
HETATM   12  O   LIG     1      -1.393  -2.493   0.131  1.00  0.00    -0.355 OA
HETATM   13  C   LIG     1      -0.763  -3.550   0.847  1.00  0.00     0.210 C 
ENDBRANCH   2  12
BRANCH   5  14
HETATM   14  O   LIG     1       1.288   2.353  -0.233  1.00  0.00    -0.356 OA
HETATM   15  C   LIG     1       0.522   3.547  -0.367  1.00  0.00     0.210 C 
ENDBRANCH   5  14
TORSDOF 4
