REMARK  0 active torsions:
REMARK  status: ('A' for Active; 'I' for Inactive)
ROOT
HETATM    1  N   LIG     1      -1.731   0.770   0.000  1.00  0.00    -0.326 N 
ATOM      2  HN  LIG     1      -2.186   1.683   0.004  1.00  0.00     0.169 HD
HETATM    3  C   LIG     1      -2.408  -0.444  -0.005  1.00  0.00     0.226 A 
HETATM    4  C   LIG     1      -0.359   0.581  -0.001  1.00  0.00     0.041 A 
HETATM    5  C   LIG     1      -0.073  -0.783  -0.007  1.00  0.00    -0.023 A 
HETATM    6  C   LIG     1      -1.356  -1.560  -0.015  1.00  0.00     0.144 A 
HETATM    7  O   LIG     1      -3.619  -0.584  -0.003  1.00  0.00    -0.273 OA
HETATM    8  C   LIG     1       0.626   1.545   0.004  1.00  0.00     0.030 A 
HETATM    9  C   LIG     1       1.234  -1.231  -0.006  1.00  0.00     0.010 A 
HETATM   10  C   LIG     1       1.951   1.103   0.004  1.00  0.00     0.002 A 
HETATM   11  C   LIG     1       2.252  -0.273  -0.001  1.00  0.00     0.001 A 
ENDROOT
TORSDOF 0
