REMARK  1 active torsions:
REMARK  status: ('A' for Active; 'I' for Inactive)
REMARK    1  A    between atoms: C_1  and  C_2 
REMARK       I    between atoms: C_2  and  N_6 
ROOT
HETATM    1  C   LIG     1       0.181  -1.436   0.146  1.00  0.00     0.038 A 
HETATM    2  C   LIG     1       1.363  -0.668   0.038  1.00  0.00    -0.040 A 
HETATM    3  C   LIG     1       1.245   0.735  -0.105  1.00  0.00    -0.055 A 
HETATM    4  C   LIG     1      -1.079  -0.834   0.023  1.00  0.00     0.017 A 
HETATM    5  C   LIG     1       2.723  -1.319   0.078  1.00  0.00     0.050 C 
HETATM    6  C   LIG     1      -1.183   0.540  -0.159  1.00  0.00     0.002 A 
HETATM    7  C   LIG     1      -0.030   1.319  -0.212  1.00  0.00     0.007 A 
HETATM    8  C   LIG     1       2.453   1.631  -0.189  1.00  0.00     0.049 C 
ENDROOT
BRANCH   1   9
HETATM    9  C   LIG     1       0.176  -2.898   0.398  1.00  0.00     0.249 C 
HETATM   10  O   LIG     1      -0.511  -3.665  -0.262  1.00  0.00    -0.268 OA
HETATM   11  N   LIG     1       0.914  -3.331   1.463  1.00  0.00    -0.366 N 
ATOM     12  HN2 LIG     1       1.487  -2.691   2.013  1.00  0.00     0.159 HD
ATOM     13  HN1 LIG     1       0.911  -4.336   1.636  1.00  0.00     0.159 HD
ENDBRANCH   1   9
TORSDOF 1
