REMARK  1 active torsions:
REMARK  status: ('A' for Active; 'I' for Inactive)
REMARK       I    between atoms: C_2  and  N_3 
REMARK    1  A    between atoms: N_3  and  C_5 
ROOT
HETATM    1  C   LIG     1      -0.606  -0.709  -0.121  1.00  0.00    -0.050 A 
HETATM    2  C   LIG     1       1.787  -0.856  -0.108  1.00  0.00     0.035 A 
HETATM    3  C   LIG     1       0.541  -1.486  -0.165  1.00  0.00     0.037 A 
HETATM    4  C   LIG     1      -0.541   0.683  -0.039  1.00  0.00    -0.052 A 
HETATM    5  C   LIG     1       0.680   1.330  -0.006  1.00  0.00     0.010 A 
HETATM    6  C   LIG     1       1.846   0.552  -0.033  1.00  0.00     0.030 A 
HETATM    7  C   LIG     1      -2.024  -1.179  -0.195  1.00  0.00     0.039 C 
HETATM    8  C   LIG     1      -2.770   0.056   0.327  1.00  0.00     0.009 C 
HETATM    9  C   LIG     1      -1.914   1.277  -0.046  1.00  0.00     0.039 C 
ENDROOT
BRANCH   2  10
HETATM   10  N   LIG     1       3.012  -1.558  -0.125  1.00  0.00    -0.328 N 
HETATM   11  C   LIG     1       3.188  -2.929  -0.193  1.00  0.00     0.218 C 
HETATM   12  O   LIG     1       2.315  -3.789  -0.257  1.00  0.00    -0.274 OA
HETATM   13  C   LIG     1       4.644  -3.317  -0.207  1.00  0.00     0.117 C 
ATOM     14  HN  LIG     1       3.860  -0.993  -0.083  1.00  0.00     0.169 HD
ENDBRANCH   2  10
TORSDOF 1
