REMARK  2 active torsions:
REMARK  status: ('A' for Active; 'I' for Inactive)
REMARK    1  A    between atoms: C_1  and  C_7 
REMARK    2  A    between atoms: C_4  and  N_8 
ROOT
HETATM    1  C   LIG     1      -0.261  -1.184  -0.007  1.00  0.00     0.093 A 
HETATM    2  N   LIG     1       0.994  -0.702  -0.054  1.00  0.00    -0.258 N 
ATOM      3  HN  LIG     1       1.857  -1.245  -0.066  1.00  0.00     0.195 HD
HETATM    4  C   LIG     1      -1.196  -0.105   0.034  1.00  0.00     0.087 A 
HETATM    5  C   LIG     1      -0.429   1.030  -0.031  1.00  0.00     0.101 A 
HETATM    6  O   LIG     1       0.882   0.674  -0.082  1.00  0.00    -0.240 OA
HETATM    7  C   LIG     1      -0.718   2.475  -0.045  1.00  0.00     0.081 C 
ENDROOT
BRANCH   1   8
HETATM    8  C   LIG     1      -0.513  -2.624   0.007  1.00  0.00    -0.005 A 
HETATM    9  C   LIG     1      -1.569  -3.176  -0.734  1.00  0.00     0.014 A 
HETATM   10  C   LIG     1      -1.806  -4.553  -0.712  1.00  0.00     0.001 A 
HETATM   11  C   LIG     1      -0.989  -5.390   0.044  1.00  0.00     0.000 A 
HETATM   12  C   LIG     1       0.070  -4.855   0.775  1.00  0.00     0.001 A 
HETATM   13  C   LIG     1       0.309  -3.479   0.754  1.00  0.00     0.014 A 
ENDBRANCH   1   8
BRANCH   4  14
HETATM   14  N   LIG     1      -2.544  -0.149   0.135  1.00  0.00    -0.395 N 
ATOM     15  HN2 LIG     1      -3.114  -0.993   0.183  1.00  0.00     0.156 HD
ATOM     16  HN1 LIG     1      -3.212   0.622   0.164  1.00  0.00     0.156 HD
ENDBRANCH   4  14
TORSDOF 2
