REMARK  3 active torsions:
REMARK  status: ('A' for Active; 'I' for Inactive)
REMARK    1  A    between atoms: C_1  and  C_7 
REMARK    2  A    between atoms: C_7  and  C_8 
REMARK    3  A    between atoms: C_8  and  O_10 
ROOT
HETATM    1  C   LIG     1      -0.454  -0.494  -0.221  1.00  0.00     0.032 A 
HETATM    2  N   LIG     1       0.888  -0.178  -0.048  1.00  0.00    -0.356 N 
ATOM      3  HN  LIG     1       1.626  -0.857   0.141  1.00  0.00     0.166 HD
HETATM    4  S   LIG     1      -0.341   2.039  -0.459  1.00  0.00    -0.080 SA
HETATM    5  C   LIG     1      -1.275   0.598  -0.461  1.00  0.00     0.004 A 
HETATM    6  C   LIG     1       1.073   1.118  -0.162  1.00  0.00     0.047 A 
HETATM    7  C   LIG     1      -2.746   0.671  -0.678  1.00  0.00     0.058 C 
HETATM    8  C   LIG     1       2.391   1.796  -0.039  1.00  0.00     0.076 C 
ENDROOT
BRANCH   1   9
HETATM    9  C   LIG     1      -0.846  -1.927  -0.074  1.00  0.00     0.169 C 
BRANCH   9  10
HETATM   10  C   LIG     1      -0.813  -2.666  -1.388  1.00  0.00     0.264 C 
HETATM   11  O   LIG     1      -1.513  -2.393  -2.359  1.00  0.00    -0.265 OA
BRANCH  10  12
HETATM   12  O   LIG     1       0.046  -3.725  -1.326  1.00  0.00    -0.326 OA
HETATM   13  C   LIG     1       0.103  -4.512  -2.518  1.00  0.00     0.213 C 
ENDBRANCH  10  12
ENDBRANCH   9  10
ENDBRANCH   1   9
TORSDOF 3
