REMARK  2 active torsions:
REMARK  status: ('A' for Active; 'I' for Inactive)
REMARK    1  A    between atoms: S_1  and  C_2 
REMARK    2  A    between atoms: S_1  and  N_10 
ROOT
HETATM    1  C   LIG     1       0.515   1.530  -0.829  1.00  0.00     0.089 A 
HETATM    2  C   LIG     1       0.949   2.816  -0.425  1.00  0.00    -0.017 A 
HETATM    3  C   LIG     1       0.573   3.913  -1.227  1.00  0.00     0.044 A 
HETATM    4  C   LIG     1      -0.304   1.365  -1.954  1.00  0.00     0.068 A 
HETATM    5  C   LIG     1      -0.239   3.744  -2.351  1.00  0.00     0.066 A 
HETATM    6  C   LIG     1      -0.674   2.475  -2.696  1.00  0.00     0.119 A 
HETATM    7 CL   LIG     1       1.101   5.525  -0.887  1.00  0.00    -0.084 Cl
HETATM    8  F   LIG     1      -1.453   2.316  -3.773  1.00  0.00    -0.206 F 
HETATM    9  C   LIG     1       1.828   3.009   0.785  1.00  0.00     0.052 C 
ENDROOT
BRANCH   1  10
HETATM   10  S   LIG     1       1.029   0.082   0.062  1.00  0.00     0.257 S 
HETATM   11  O   LIG     1       0.149  -0.084   1.193  1.00  0.00    -0.201 OA
HETATM   12  O   LIG     1       2.468   0.096   0.174  1.00  0.00    -0.201 OA
BRANCH  10  13
HETATM   13  N   LIG     1       0.696  -1.204  -0.969  1.00  0.00    -0.324 N 
ATOM     14  HN2 LIG     1       0.287  -1.149  -1.902  1.00  0.00     0.169 HD
ATOM     15  HN1 LIG     1       0.991  -2.036  -0.457  1.00  0.00     0.169 HD
ENDBRANCH  10  13
ENDBRANCH   1  10
TORSDOF 2
