REMARK  3 active torsions:
REMARK  status: ('A' for Active; 'I' for Inactive)
REMARK    1  A    between atoms: C_1  and  O_6 
REMARK    2  A    between atoms: C_5  and  O_10 
REMARK    3  A    between atoms: O_6  and  C_8 
ROOT
HETATM    1  C   LIG     1      -0.815   0.941  -0.102  1.00  0.00     0.091 C 
HETATM    2  C   LIG     1      -1.424  -0.324  -0.251  1.00  0.00    -0.019 C 
HETATM    3  C   LIG     1      -0.641  -1.485  -0.031  1.00  0.00    -0.020 C 
HETATM    4  C   LIG     1       0.566   1.076   0.120  1.00  0.00    -0.025 C 
HETATM    5  C   LIG     1       0.742  -1.334   0.153  1.00  0.00     0.072 C 
HETATM    6  C   LIG     1       1.341  -0.084   0.222  1.00  0.00     0.046 C 
HETATM    7  C   LIG     1      -2.880  -0.444  -0.619  1.00  0.00     0.052 C 
HETATM    8  C   LIG     1      -1.269  -2.855  -0.022  1.00  0.00     0.052 C 
HETATM    9  C   LIG     1       1.243   2.416   0.170  1.00  0.00     0.051 C 
ENDROOT
BRANCH   1  10
HETATM   10  O   LIG     1      -1.535   2.144  -0.246  1.00  0.00    -0.278 OA
BRANCH  10  11
HETATM   11  C   LIG     1      -2.443   2.441   0.768  1.00  0.00     0.260 C 
HETATM   12  O   LIG     1      -2.982   1.651   1.532  1.00  0.00    -0.265 OA
HETATM   13  C   LIG     1      -2.701   3.920   0.783  1.00  0.00     0.126 C 
ENDBRANCH  10  11
ENDBRANCH   1  10
BRANCH   5  14
HETATM   14  O   LIG     1       1.596  -2.402   0.262  1.00  0.00    -0.360 OA
ATOM     15  HO  LIG     1       2.532  -2.300   0.387  1.00  0.00     0.217 HD
ENDBRANCH   5  14
TORSDOF 3
