REMARK  2 active torsions:
REMARK  status: ('A' for Active; 'I' for Inactive)
REMARK    1  A    between atoms: N_1  and  C_3 
REMARK    2  A    between atoms: C_3  and  C_5 
ROOT
HETATM    1  N   LIG     1      -0.452  -0.845  -2.648  1.00  0.00    -0.195 NA
HETATM    2  C   LIG     1       0.712   1.282  -1.725  1.00  0.00     0.361 C 
HETATM    3  C   LIG     1       0.064   0.098  -2.238  1.00  0.00     0.100 C 
ENDROOT
BRANCH   2   4
HETATM    4  N   LIG     1       0.076   1.802  -0.470  1.00  0.00     0.115 N 
HETATM    5  C   LIG     1       0.738   3.016   0.069  1.00  0.00     0.300 C 
HETATM    6  C   LIG     1       2.092   2.747   0.745  1.00  0.00     0.198 C 
HETATM    7  O   LIG     1       1.969   1.775   1.788  1.00  0.00    -0.388 OA
HETATM    8  C   LIG     1       1.402   0.555   1.298  1.00  0.00     0.198 C 
HETATM    9  C   LIG     1       0.040   0.800   0.625  1.00  0.00     0.300 C 
ENDBRANCH   2   4
BRANCH   2  10
HETATM   10  C   LIG     1       0.715   2.349  -2.829  1.00  0.00    -0.011 A 
HETATM   11  C   LIG     1       1.920   2.767  -3.417  1.00  0.00     0.010 A 
HETATM   12  C   LIG     1       1.917   3.727  -4.432  1.00  0.00     0.001 A 
HETATM   13  C   LIG     1       0.715   4.279  -4.872  1.00  0.00     0.000 A 
HETATM   14  C   LIG     1      -0.488   3.877  -4.297  1.00  0.00     0.001 A 
HETATM   15  C   LIG     1      -0.490   2.921  -3.282  1.00  0.00     0.010 A 
ENDBRANCH   2  10
TORSDOF 2
