MODEL 1
REMARK VINA RESULT:      -3.6      0.000      0.000
REMARK  1 active torsions:
REMARK  status: ('A' for Active; 'I' for Inactive)
REMARK    1  A    between atoms: N_1  and  N_7 
ROOT
HETATM    1  N   UNL     1      63.300  10.325   5.701  1.00  0.00    -0.251 NA
HETATM    2  N   UNL     1      62.145   8.530   3.749  1.00  0.00    -0.073 N 
HETATM    3  C   UNL     1      62.533  10.864   4.566  1.00  0.00     0.135 C 
HETATM    4  C   UNL     1      64.058   9.148   5.242  1.00  0.00     0.135 C 
HETATM    5  C   UNL     1      61.505   9.813   4.114  1.00  0.00     0.250 C 
HETATM    6  C   UNL     1      63.070   8.057   4.801  1.00  0.00     0.250 C 
HETATM    7  C   UNL     1      62.759   8.558   2.412  1.00  0.00     0.269 C 
HETATM    8  H   UNL     1      61.398   7.839   3.687  1.00  0.00     0.279 HD
ENDROOT
BRANCH   1   9
HETATM    9  N   UNL     1      64.192  11.305   6.177  1.00  0.00    -0.268 NA
HETATM   10  H   UNL     1      63.673  12.021   6.685  1.00  0.00     0.137 HD
HETATM   11  H   UNL     1      64.678  11.733   5.388  1.00  0.00     0.137 HD
ENDBRANCH   1   9
TORSDOF 1
ENDMDL
MODEL 2
REMARK VINA RESULT:      -3.3      1.928      2.752
REMARK  1 active torsions:
REMARK  status: ('A' for Active; 'I' for Inactive)
REMARK    1  A    between atoms: N_1  and  N_7 
ROOT
HETATM    1  N   UNL     1      62.430  11.106   3.570  1.00  0.00    -0.251 NA
HETATM    2  N   UNL     1      62.105   8.657   2.065  1.00  0.00    -0.073 N 
HETATM    3  C   UNL     1      62.196   9.834   4.272  1.00  0.00     0.135 C 
HETATM    4  C   UNL     1      61.649  11.106   2.321  1.00  0.00     0.135 C 
HETATM    5  C   UNL     1      62.729   8.680   3.406  1.00  0.00     0.250 C 
HETATM    6  C   UNL     1      62.162   9.982   1.409  1.00  0.00     0.250 C 
HETATM    7  C   UNL     1      60.753   8.077   2.072  1.00  0.00     0.269 C 
HETATM    8  H   UNL     1      62.667   8.026   1.493  1.00  0.00     0.279 HD
ENDROOT
BRANCH   1   9
HETATM    9  N   UNL     1      62.019  12.178   4.385  1.00  0.00    -0.268 NA
HETATM   10  H   UNL     1      62.738  12.372   5.082  1.00  0.00     0.137 HD
HETATM   11  H   UNL     1      61.147  11.933   4.855  1.00  0.00     0.137 HD
ENDBRANCH   1   9
TORSDOF 1
ENDMDL
MODEL 3
REMARK VINA RESULT:      -3.3      4.020      4.966
REMARK  1 active torsions:
REMARK  status: ('A' for Active; 'I' for Inactive)
REMARK    1  A    between atoms: N_1  and  N_7 
ROOT
HETATM    1  N   UNL     1      65.913   8.467   5.154  1.00  0.00    -0.251 NA
HETATM    2  N   UNL     1      67.626   6.179   4.701  1.00  0.00    -0.073 N 
HETATM    3  C   UNL     1      66.904   8.074   6.170  1.00  0.00     0.135 C 
HETATM    4  C   UNL     1      65.367   7.248   4.532  1.00  0.00     0.135 C 
HETATM    5  C   UNL     1      68.075   7.357   5.474  1.00  0.00     0.250 C 
HETATM    6  C   UNL     1      66.498   6.508   3.801  1.00  0.00     0.250 C 
HETATM    7  C   UNL     1      67.362   5.005   5.548  1.00  0.00     0.269 C 
HETATM    8  H   UNL     1      68.405   5.910   4.101  1.00  0.00     0.279 HD
ENDROOT
BRANCH   1   9
HETATM    9  N   UNL     1      64.873   9.193   5.765  1.00  0.00    -0.268 NA
HETATM   10  H   UNL     1      65.012  10.190   5.603  1.00  0.00     0.137 HD
HETATM   11  H   UNL     1      64.874   9.008   6.768  1.00  0.00     0.137 HD
ENDBRANCH   1   9
TORSDOF 1
ENDMDL
MODEL 4
REMARK VINA RESULT:      -3.2      4.977      5.935
REMARK  1 active torsions:
REMARK  status: ('A' for Active; 'I' for Inactive)
REMARK    1  A    between atoms: N_1  and  N_7 
ROOT
HETATM    1  N   UNL     1      65.825   7.414   7.126  1.00  0.00    -0.251 NA
HETATM    2  N   UNL     1      66.064   4.754   8.239  1.00  0.00    -0.073 N 
HETATM    3  C   UNL     1      65.684   6.234   6.257  1.00  0.00     0.135 C 
HETATM    4  C   UNL     1      66.852   7.129   8.144  1.00  0.00     0.135 C 
HETATM    5  C   UNL     1      65.172   5.052   7.098  1.00  0.00     0.250 C 
HETATM    6  C   UNL     1      66.374   5.968   9.028  1.00  0.00     0.250 C 
HETATM    7  C   UNL     1      67.266   4.002   7.846  1.00  0.00     0.269 C 
HETATM    8  H   UNL     1      65.546   4.131   8.859  1.00  0.00     0.279 HD
ENDROOT
BRANCH   1   9
HETATM    9  N   UNL     1      66.218   8.524   6.355  1.00  0.00    -0.268 NA
HETATM   10  H   UNL     1      67.097   8.896   6.716  1.00  0.00     0.137 HD
HETATM   11  H   UNL     1      65.499   9.245   6.407  1.00  0.00     0.137 HD
ENDBRANCH   1   9
TORSDOF 1
ENDMDL
MODEL 5
REMARK VINA RESULT:      -3.2      1.898      2.225
REMARK  1 active torsions:
REMARK  status: ('A' for Active; 'I' for Inactive)
REMARK    1  A    between atoms: N_1  and  N_7 
ROOT
HETATM    1  N   UNL     1      61.583  10.760   3.633  1.00  0.00    -0.251 NA
HETATM    2  N   UNL     1      61.696   8.125   2.445  1.00  0.00    -0.073 N 
HETATM    3  C   UNL     1      61.939  10.605   2.213  1.00  0.00     0.135 C 
HETATM    4  C   UNL     1      62.158   9.633   4.389  1.00  0.00     0.135 C 
HETATM    5  C   UNL     1      61.290   9.319   1.673  1.00  0.00     0.250 C 
HETATM    6  C   UNL     1      61.521   8.324   3.900  1.00  0.00     0.250 C 
HETATM    7  C   UNL     1      63.039   7.641   2.088  1.00  0.00     0.269 C 
HETATM    8  H   UNL     1      61.059   7.374   2.176  1.00  0.00     0.279 HD
ENDROOT
BRANCH   1   9
HETATM    9  N   UNL     1      62.104  11.972   4.122  1.00  0.00    -0.268 NA
HETATM   10  H   UNL     1      62.856  12.291   3.511  1.00  0.00     0.137 HD
HETATM   11  H   UNL     1      62.469  11.830   5.064  1.00  0.00     0.137 HD
ENDBRANCH   1   9
TORSDOF 1
ENDMDL
MODEL 6
REMARK VINA RESULT:      -3.2      4.689      5.913
REMARK  1 active torsions:
REMARK  status: ('A' for Active; 'I' for Inactive)
REMARK    1  A    between atoms: N_1  and  N_7 
ROOT
HETATM    1  N   UNL     1      65.310   7.310   6.970  1.00  0.00    -0.251 NA
HETATM    2  N   UNL     1      67.978   6.199   7.099  1.00  0.00    -0.073 N 
HETATM    3  C   UNL     1      65.718   6.504   8.132  1.00  0.00     0.135 C 
HETATM    4  C   UNL     1      65.933   6.744   5.761  1.00  0.00     0.135 C 
HETATM    5  C   UNL     1      67.242   6.621   8.311  1.00  0.00     0.250 C 
HETATM    6  C   UNL     1      67.460   6.860   5.881  1.00  0.00     0.250 C 
HETATM    7  C   UNL     1      68.068   4.736   6.965  1.00  0.00     0.269 C 
HETATM    8  H   UNL     1      68.939   6.519   7.216  1.00  0.00     0.279 HD
ENDROOT
BRANCH   1   9
HETATM    9  N   UNL     1      63.909   7.277   6.840  1.00  0.00    -0.268 NA
HETATM   10  H   UNL     1      63.479   7.623   7.698  1.00  0.00     0.137 HD
HETATM   11  H   UNL     1      63.606   6.317   6.672  1.00  0.00     0.137 HD
ENDBRANCH   1   9
TORSDOF 1
ENDMDL
MODEL 7
REMARK VINA RESULT:      -3.1      1.785      2.712
REMARK  1 active torsions:
REMARK  status: ('A' for Active; 'I' for Inactive)
REMARK    1  A    between atoms: N_1  and  N_7 
ROOT
HETATM    1  N   UNL     1      62.307  10.030   3.702  1.00  0.00    -0.251 NA
HETATM    2  N   UNL     1      63.308   7.623   4.957  1.00  0.00    -0.073 N 
HETATM    3  C   UNL     1      63.009  10.108   4.994  1.00  0.00     0.135 C 
HETATM    4  C   UNL     1      61.504   8.795   3.676  1.00  0.00     0.135 C 
HETATM    5  C   UNL     1      63.990   8.927   5.101  1.00  0.00     0.250 C 
HETATM    6  C   UNL     1      62.444   7.583   3.757  1.00  0.00     0.250 C 
HETATM    7  C   UNL     1      62.610   7.203   6.182  1.00  0.00     0.269 C 
HETATM    8  H   UNL     1      64.039   6.927   4.811  1.00  0.00     0.279 HD
ENDROOT
BRANCH   1   9
HETATM    9  N   UNL     1      61.463  11.147   3.555  1.00  0.00    -0.268 NA
HETATM   10  H   UNL     1      61.984  11.914   3.131  1.00  0.00     0.137 HD
HETATM   11  H   UNL     1      61.119  11.435   4.471  1.00  0.00     0.137 HD
ENDBRANCH   1   9
TORSDOF 1
ENDMDL
MODEL 8
REMARK VINA RESULT:      -3.1      3.930      5.144
REMARK  1 active torsions:
REMARK  status: ('A' for Active; 'I' for Inactive)
REMARK    1  A    between atoms: N_1  and  N_7 
ROOT
HETATM    1  N   UNL     1      65.437   8.019   5.846  1.00  0.00    -0.251 NA
HETATM    2  N   UNL     1      66.438   5.671   7.208  1.00  0.00    -0.073 N 
HETATM    3  C   UNL     1      66.682   8.094   6.628  1.00  0.00     0.135 C 
HETATM    4  C   UNL     1      64.503   7.110   6.533  1.00  0.00     0.135 C 
HETATM    5  C   UNL     1      67.340   6.703   6.653  1.00  0.00     0.250 C 
HETATM    6  C   UNL     1      65.107   5.698   6.562  1.00  0.00     0.250 C 
HETATM    7  C   UNL     1      66.365   5.704   8.677  1.00  0.00     0.269 C 
HETATM    8  H   UNL     1      66.853   4.768   6.979  1.00  0.00     0.279 HD
ENDROOT
BRANCH   1   9
HETATM    9  N   UNL     1      64.863   9.301   5.747  1.00  0.00    -0.268 NA
HETATM   10  H   UNL     1      65.530   9.941   5.317  1.00  0.00     0.137 HD
HETATM   11  H   UNL     1      64.622   9.637   6.680  1.00  0.00     0.137 HD
ENDBRANCH   1   9
TORSDOF 1
ENDMDL
MODEL 9
REMARK VINA RESULT:      -3.1      5.752      6.824
REMARK  1 active torsions:
REMARK  status: ('A' for Active; 'I' for Inactive)
REMARK    1  A    between atoms: N_1  and  N_7 
ROOT
HETATM    1  N   UNL     1      66.553   4.528   8.646  1.00  0.00    -0.251 NA
HETATM    2  N   UNL     1      66.109   7.165   7.545  1.00  0.00    -0.073 N 
HETATM    3  C   UNL     1      67.558   5.586   8.838  1.00  0.00     0.135 C 
HETATM    4  C   UNL     1      65.960   4.677   7.306  1.00  0.00     0.135 C 
HETATM    5  C   UNL     1      66.855   6.954   8.805  1.00  0.00     0.250 C 
HETATM    6  C   UNL     1      65.223   6.023   7.231  1.00  0.00     0.250 C 
HETATM    7  C   UNL     1      66.981   7.544   6.421  1.00  0.00     0.269 C 
HETATM    8  H   UNL     1      65.501   7.970   7.697  1.00  0.00     0.279 HD
ENDROOT
BRANCH   1   9
HETATM    9  N   UNL     1      67.169   3.266   8.753  1.00  0.00    -0.268 NA
HETATM   10  H   UNL     1      67.132   2.949   9.722  1.00  0.00     0.137 HD
HETATM   11  H   UNL     1      68.142   3.338   8.456  1.00  0.00     0.137 HD
ENDBRANCH   1   9
TORSDOF 1
ENDMDL
