MODEL 1
REMARK VINA RESULT:      -3.6      0.000      0.000
REMARK  1 active torsions:
REMARK  status: ('A' for Active; 'I' for Inactive)
REMARK    1  A    between atoms: C_4  and  C_7 
ROOT
HETATM    1  N   UNL     1      65.377   7.359   7.052  1.00  0.00    -0.348 N 
ATOM      2  HN  UNL     1      64.434   7.263   7.429  1.00  0.00     0.167 HD
HETATM    3  N   UNL     1      67.572   7.254   6.812  1.00  0.00    -0.354 N 
HETATM    4  C   UNL     1      66.499   6.970   7.618  1.00  0.00     0.080 A 
HETATM    5  C   UNL     1      65.732   7.920   5.848  1.00  0.00     0.022 A 
HETATM    6  C   UNL     1      67.098   7.859   5.681  1.00  0.00     0.114 A 
HETATM    7  C   UNL     1      64.701   8.484   4.951  1.00  0.00     0.069 C 
HETATM    8  H   UNL     1      68.516   7.057   7.011  1.00  0.00     0.166 HD
ENDROOT
BRANCH   4   9
HETATM    9  C   UNL     1      66.639   6.317   8.950  1.00  0.00     0.072 C 
HETATM   10  C   UNL     1      68.065   5.847   9.188  1.00  0.00     0.013 C 
ENDBRANCH   4   9
TORSDOF 1
ENDMDL
MODEL 2
REMARK VINA RESULT:      -3.6      5.676      7.642
REMARK  1 active torsions:
REMARK  status: ('A' for Active; 'I' for Inactive)
REMARK    1  A    between atoms: C_4  and  C_7 
ROOT
HETATM    1  N   UNL     1      62.468   9.428   3.229  1.00  0.00    -0.348 N 
ATOM      2  HN  UNL     1      62.843   8.521   3.507  1.00  0.00     0.167 HD
HETATM    3  N   UNL     1      61.543  11.056   2.053  1.00  0.00    -0.354 N 
HETATM    4  C   UNL     1      61.957   9.747   2.060  1.00  0.00     0.080 A 
HETATM    5  C   UNL     1      62.392  10.564   4.001  1.00  0.00     0.022 A 
HETATM    6  C   UNL     1      61.814  11.587   3.283  1.00  0.00     0.114 A 
HETATM    7  C   UNL     1      62.902  10.562   5.388  1.00  0.00     0.069 C 
HETATM    8  H   UNL     1      61.125  11.528   1.297  1.00  0.00     0.166 HD
ENDROOT
BRANCH   4   9
HETATM    9  C   UNL     1      61.832   8.854   0.874  1.00  0.00     0.072 C 
HETATM   10  C   UNL     1      60.426   8.290   0.752  1.00  0.00     0.013 C 
ENDBRANCH   4   9
TORSDOF 1
ENDMDL
MODEL 3
REMARK VINA RESULT:      -3.4      5.286      7.026
REMARK  1 active torsions:
REMARK  status: ('A' for Active; 'I' for Inactive)
REMARK    1  A    between atoms: C_4  and  C_7 
ROOT
HETATM    1  N   UNL     1      60.907   9.118   3.227  1.00  0.00    -0.348 N 
ATOM      2  HN  UNL     1      60.175   9.353   2.557  1.00  0.00     0.167 HD
HETATM    3  N   UNL     1      62.612   9.272   4.627  1.00  0.00    -0.354 N 
HETATM    4  C   UNL     1      61.786   9.940   3.757  1.00  0.00     0.080 A 
HETATM    5  C   UNL     1      61.175   7.879   3.759  1.00  0.00     0.022 A 
HETATM    6  C   UNL     1      62.232   7.958   4.638  1.00  0.00     0.114 A 
HETATM    7  C   UNL     1      60.373   6.703   3.359  1.00  0.00     0.069 C 
HETATM    8  H   UNL     1      63.346   9.667   5.150  1.00  0.00     0.166 HD
ENDROOT
BRANCH   4   9
HETATM    9  C   UNL     1      61.917  11.398   3.480  1.00  0.00     0.072 C 
HETATM   10  C   UNL     1      61.776  11.694   1.995  1.00  0.00     0.013 C 
ENDBRANCH   4   9
TORSDOF 1
ENDMDL
MODEL 4
REMARK VINA RESULT:      -3.4      3.505      5.014
REMARK  1 active torsions:
REMARK  status: ('A' for Active; 'I' for Inactive)
REMARK    1  A    between atoms: C_4  and  C_7 
ROOT
HETATM    1  N   UNL     1      62.846   9.385   3.668  1.00  0.00    -0.348 N 
ATOM      2  HN  UNL     1      62.861   8.771   2.854  1.00  0.00     0.167 HD
HETATM    3  N   UNL     1      63.131  10.189   5.708  1.00  0.00    -0.354 N 
HETATM    4  C   UNL     1      63.320   9.121   4.867  1.00  0.00     0.080 A 
HETATM    5  C   UNL     1      62.325  10.656   3.736  1.00  0.00     0.022 A 
HETATM    6  C   UNL     1      62.499  11.172   5.001  1.00  0.00     0.114 A 
HETATM    7  C   UNL     1      61.686  11.268   2.552  1.00  0.00     0.069 C 
HETATM    8  H   UNL     1      63.403  10.237   6.653  1.00  0.00     0.166 HD
ENDROOT
BRANCH   4   9
HETATM    9  C   UNL     1      63.971   7.854   5.303  1.00  0.00     0.072 C 
HETATM   10  C   UNL     1      65.482   8.007   5.383  1.00  0.00     0.013 C 
ENDBRANCH   4   9
TORSDOF 1
ENDMDL
MODEL 5
REMARK VINA RESULT:      -3.3      3.775      5.818
REMARK  1 active torsions:
REMARK  status: ('A' for Active; 'I' for Inactive)
REMARK    1  A    between atoms: C_4  and  C_7 
ROOT
HETATM    1  N   UNL     1      63.092   8.738   3.442  1.00  0.00    -0.348 N 
ATOM      2  HN  UNL     1      62.704   8.683   2.500  1.00  0.00     0.167 HD
HETATM    3  N   UNL     1      63.577   9.430   5.485  1.00  0.00    -0.354 N 
HETATM    4  C   UNL     1      62.904   9.700   4.320  1.00  0.00     0.080 A 
HETATM    5  C   UNL     1      63.919   7.823   4.050  1.00  0.00     0.022 A 
HETATM    6  C   UNL     1      64.227   8.238   5.327  1.00  0.00     0.114 A 
HETATM    7  C   UNL     1      64.352   6.608   3.328  1.00  0.00     0.069 C 
HETATM    8  H   UNL     1      63.590   9.994   6.292  1.00  0.00     0.166 HD
ENDROOT
BRANCH   4   9
HETATM    9  C   UNL     1      62.092  10.933   4.123  1.00  0.00     0.072 C 
HETATM   10  C   UNL     1      61.810  11.181   2.650  1.00  0.00     0.013 C 
ENDBRANCH   4   9
TORSDOF 1
ENDMDL
MODEL 6
REMARK VINA RESULT:      -3.2      2.529      4.893
REMARK  1 active torsions:
REMARK  status: ('A' for Active; 'I' for Inactive)
REMARK    1  A    between atoms: C_4  and  C_7 
ROOT
HETATM    1  N   UNL     1      64.470   9.143   5.509  1.00  0.00    -0.348 N 
ATOM      2  HN  UNL     1      64.444   9.924   6.165  1.00  0.00     0.167 HD
HETATM    3  N   UNL     1      63.970   7.757   3.860  1.00  0.00    -0.354 N 
HETATM    4  C   UNL     1      63.606   8.886   4.551  1.00  0.00     0.080 A 
HETATM    5  C   UNL     1      65.417   8.148   5.445  1.00  0.00     0.022 A 
HETATM    6  C   UNL     1      65.122   7.278   4.420  1.00  0.00     0.114 A 
HETATM    7  C   UNL     1      66.541   8.122   6.404  1.00  0.00     0.069 C 
HETATM    8  H   UNL     1      63.488   7.363   3.098  1.00  0.00     0.166 HD
ENDROOT
BRANCH   4   9
HETATM    9  C   UNL     1      62.383   9.672   4.226  1.00  0.00     0.072 C 
HETATM   10  C   UNL     1      62.475  11.089   4.769  1.00  0.00     0.013 C 
ENDBRANCH   4   9
TORSDOF 1
ENDMDL
MODEL 7
REMARK VINA RESULT:      -3.2      2.619      3.471
REMARK  1 active torsions:
REMARK  status: ('A' for Active; 'I' for Inactive)
REMARK    1  A    between atoms: C_4  and  C_7 
ROOT
HETATM    1  N   UNL     1      64.318   9.351   5.471  1.00  0.00    -0.348 N 
ATOM      2  HN  UNL     1      64.402  10.102   6.156  1.00  0.00     0.167 HD
HETATM    3  N   UNL     1      64.687   7.507   4.307  1.00  0.00    -0.354 N 
HETATM    4  C   UNL     1      65.119   8.317   5.328  1.00  0.00     0.080 A 
HETATM    5  C   UNL     1      63.344   9.214   4.510  1.00  0.00     0.022 A 
HETATM    6  C   UNL     1      63.557   8.067   3.779  1.00  0.00     0.114 A 
HETATM    7  C   UNL     1      62.276  10.228   4.376  1.00  0.00     0.069 C 
HETATM    8  H   UNL     1      65.114   6.672   4.009  1.00  0.00     0.166 HD
ENDROOT
BRANCH   4   9
HETATM    9  C   UNL     1      66.341   8.025   6.128  1.00  0.00     0.072 C 
HETATM   10  C   UNL     1      67.538   7.753   5.231  1.00  0.00     0.013 C 
ENDBRANCH   4   9
TORSDOF 1
ENDMDL
MODEL 8
REMARK VINA RESULT:      -3.1      1.270      3.898
REMARK  1 active torsions:
REMARK  status: ('A' for Active; 'I' for Inactive)
REMARK    1  A    between atoms: C_4  and  C_7 
ROOT
HETATM    1  N   UNL     1      67.925   6.540   7.119  1.00  0.00    -0.348 N 
ATOM      2  HN  UNL     1      68.910   6.411   6.886  1.00  0.00     0.167 HD
HETATM    3  N   UNL     1      65.781   7.064   6.996  1.00  0.00    -0.354 N 
HETATM    4  C   UNL     1      66.993   7.061   6.352  1.00  0.00     0.080 A 
HETATM    5  C   UNL     1      67.304   6.203   8.299  1.00  0.00     0.022 A 
HETATM    6  C   UNL     1      65.965   6.519   8.236  1.00  0.00     0.114 A 
HETATM    7  C   UNL     1      68.075   5.600   9.406  1.00  0.00     0.069 C 
HETATM    8  H   UNL     1      64.930   7.397   6.630  1.00  0.00     0.166 HD
ENDROOT
BRANCH   4   9
HETATM    9  C   UNL     1      67.176   7.597   4.974  1.00  0.00     0.072 C 
HETATM   10  C   UNL     1      66.434   6.755   3.949  1.00  0.00     0.013 C 
ENDBRANCH   4   9
TORSDOF 1
ENDMDL
MODEL 9
REMARK VINA RESULT:      -3.1      1.162      3.840
REMARK  1 active torsions:
REMARK  status: ('A' for Active; 'I' for Inactive)
REMARK    1  A    between atoms: C_4  and  C_7 
ROOT
HETATM    1  N   UNL     1      64.954   7.281   6.853  1.00  0.00    -0.348 N 
ATOM      2  HN  UNL     1      64.146   7.011   7.415  1.00  0.00     0.167 HD
HETATM    3  N   UNL     1      66.216   8.044   5.206  1.00  0.00    -0.354 N 
HETATM    4  C   UNL     1      64.938   7.799   5.644  1.00  0.00     0.080 A 
HETATM    5  C   UNL     1      66.278   7.177   7.206  1.00  0.00     0.022 A 
HETATM    6  C   UNL     1      67.078   7.653   6.192  1.00  0.00     0.114 A 
HETATM    7  C   UNL     1      66.662   6.610   8.516  1.00  0.00     0.069 C 
HETATM    8  H   UNL     1      66.466   8.433   4.337  1.00  0.00     0.166 HD
ENDROOT
BRANCH   4   9
HETATM    9  C   UNL     1      63.732   8.089   4.819  1.00  0.00     0.072 C 
HETATM   10  C   UNL     1      63.248   9.515   5.030  1.00  0.00     0.013 C 
ENDBRANCH   4   9
TORSDOF 1
ENDMDL
