MODEL 1
REMARK VINA RESULT:      -4.8      0.000      0.000
REMARK  3 active torsions:
REMARK  status: ('A' for Active; 'I' for Inactive)
REMARK    1  A    between atoms: C_1  and  C_6 
REMARK    2  A    between atoms: C_6  and  N_9 
REMARK    3  A    between atoms: C_10  and  O_12 
ROOT
HETATM    1  C   UNL     1      63.165   8.599   4.935  1.00  0.00    -0.005 A 
HETATM    2  C   UNL     1      62.795   8.566   3.550  1.00  0.00     0.003 A 
HETATM    3  N   UNL     1      62.380  10.604   4.347  1.00  0.00    -0.365 N 
HETATM    4  C   UNL     1      62.876   9.873   5.392  1.00  0.00     0.098 A 
HETATM    5  C   UNL     1      62.321   9.832   3.209  1.00  0.00     0.043 A 
HETATM    6  C   UNL     1      62.846   7.581   2.541  1.00  0.00     0.051 A 
HETATM    7  C   UNL     1      61.900  10.160   1.917  1.00  0.00     0.033 A 
HETATM    8  C   UNL     1      62.420   7.880   1.238  1.00  0.00     0.069 A 
HETATM    9  C   UNL     1      61.957   9.160   0.936  1.00  0.00     0.039 A 
HETATM   10  H   UNL     1      62.105  11.548   4.401  1.00  0.00     0.165 HD
ENDROOT
BRANCH   1  11
HETATM   11  C   UNL     1      63.782   7.491   5.739  1.00  0.00     0.274 C 
BRANCH  11  12
HETATM   12  N   UNL     1      65.129   7.867   6.208  1.00  0.00    -0.075 N 
HETATM   13  C   UNL     1      65.641   6.925   7.204  1.00  0.00     0.269 C 
HETATM   14  C   UNL     1      66.057   7.945   5.080  1.00  0.00     0.269 C 
HETATM   15  H   UNL     1      65.051   8.783   6.651  1.00  0.00     0.279 HD
ENDBRANCH  11  12
ENDBRANCH   1  11
BRANCH   8  16
HETATM   16  O   UNL     1      62.519   6.834   0.361  1.00  0.00    -0.356 OA
HETATM   17  C   UNL     1      63.459   5.816   0.675  1.00  0.00     0.210 C 
ENDBRANCH   8  16
TORSDOF 3
ENDMDL
MODEL 2
REMARK VINA RESULT:      -4.7      2.362      3.489
REMARK  3 active torsions:
REMARK  status: ('A' for Active; 'I' for Inactive)
REMARK    1  A    between atoms: C_1  and  C_6 
REMARK    2  A    between atoms: C_6  and  N_9 
REMARK    3  A    between atoms: C_10  and  O_12 
ROOT
HETATM    1  C   UNL     1      64.164   6.869   3.828  1.00  0.00    -0.005 A 
HETATM    2  C   UNL     1      63.393   8.032   3.496  1.00  0.00     0.003 A 
HETATM    3  N   UNL     1      63.332   6.625   1.771  1.00  0.00    -0.365 N 
HETATM    4  C   UNL     1      64.112   6.033   2.725  1.00  0.00     0.098 A 
HETATM    5  C   UNL     1      62.877   7.846   2.215  1.00  0.00     0.043 A 
HETATM    6  C   UNL     1      63.060   9.220   4.181  1.00  0.00     0.051 A 
HETATM    7  C   UNL     1      62.050   8.782   1.589  1.00  0.00     0.033 A 
HETATM    8  C   UNL     1      62.239  10.181   3.573  1.00  0.00     0.069 A 
HETATM    9  C   UNL     1      61.739   9.955   2.290  1.00  0.00     0.039 A 
HETATM   10  H   UNL     1      63.125   6.234   0.891  1.00  0.00     0.165 HD
ENDROOT
BRANCH   1  11
HETATM   11  C   UNL     1      64.864   6.580   5.124  1.00  0.00     0.274 C 
BRANCH  11  12
HETATM   12  N   UNL     1      66.209   7.185   5.142  1.00  0.00    -0.075 N 
HETATM   13  C   UNL     1      66.379   8.101   6.271  1.00  0.00     0.269 C 
HETATM   14  C   UNL     1      67.235   6.145   5.193  1.00  0.00     0.269 C 
HETATM   15  H   UNL     1      66.311   7.724   4.281  1.00  0.00     0.279 HD
ENDBRANCH  11  12
ENDBRANCH   1  11
BRANCH   8  16
HETATM   16  O   UNL     1      62.000  11.285   4.346  1.00  0.00    -0.356 OA
HETATM   17  C   UNL     1      62.711  11.380   5.572  1.00  0.00     0.210 C 
ENDBRANCH   8  16
TORSDOF 3
ENDMDL
MODEL 3
REMARK VINA RESULT:      -4.7      2.515      4.609
REMARK  3 active torsions:
REMARK  status: ('A' for Active; 'I' for Inactive)
REMARK    1  A    between atoms: C_1  and  C_6 
REMARK    2  A    between atoms: C_6  and  N_9 
REMARK    3  A    between atoms: C_10  and  O_12 
ROOT
HETATM    1  C   UNL     1      62.254   8.399   1.648  1.00  0.00    -0.005 A 
HETATM    2  C   UNL     1      62.669   8.870   2.938  1.00  0.00     0.003 A 
HETATM    3  N   UNL     1      61.337  10.400   2.018  1.00  0.00    -0.365 N 
HETATM    4  C   UNL     1      61.445   9.384   1.109  1.00  0.00     0.098 A 
HETATM    5  C   UNL     1      62.072  10.113   3.145  1.00  0.00     0.043 A 
HETATM    6  C   UNL     1      63.477   8.341   3.966  1.00  0.00     0.051 A 
HETATM    7  C   UNL     1      62.242  10.847   4.323  1.00  0.00     0.033 A 
HETATM    8  C   UNL     1      63.673   9.060   5.154  1.00  0.00     0.069 A 
HETATM    9  C   UNL     1      63.054  10.299   5.325  1.00  0.00     0.039 A 
HETATM   10  H   UNL     1      60.809  11.220   1.885  1.00  0.00     0.165 HD
ENDROOT
BRANCH   1  11
HETATM   11  C   UNL     1      62.590   7.082   1.010  1.00  0.00     0.274 C 
BRANCH  11  12
HETATM   12  N   UNL     1      61.892   5.974   1.689  1.00  0.00    -0.075 N 
HETATM   13  C   UNL     1      60.592   5.694   1.080  1.00  0.00     0.269 C 
HETATM   14  C   UNL     1      62.716   4.766   1.669  1.00  0.00     0.269 C 
HETATM   15  H   UNL     1      61.733   6.263   2.655  1.00  0.00     0.279 HD
ENDBRANCH  11  12
ENDBRANCH   1  11
BRANCH   8  16
HETATM   16  O   UNL     1      64.481   8.434   6.064  1.00  0.00    -0.356 OA
HETATM   17  C   UNL     1      65.781   8.065   5.624  1.00  0.00     0.210 C 
ENDBRANCH   8  16
TORSDOF 3
ENDMDL
MODEL 4
REMARK VINA RESULT:      -4.5      2.008      2.632
REMARK  3 active torsions:
REMARK  status: ('A' for Active; 'I' for Inactive)
REMARK    1  A    between atoms: C_1  and  C_6 
REMARK    2  A    between atoms: C_6  and  N_9 
REMARK    3  A    between atoms: C_10  and  O_12 
ROOT
HETATM    1  C   UNL     1      64.550   7.536   4.349  1.00  0.00    -0.005 A 
HETATM    2  C   UNL     1      63.547   8.403   3.804  1.00  0.00     0.003 A 
HETATM    3  N   UNL     1      64.223   9.238   5.755  1.00  0.00    -0.365 N 
HETATM    4  C   UNL     1      64.928   8.082   5.563  1.00  0.00     0.098 A 
HETATM    5  C   UNL     1      63.373   9.461   4.695  1.00  0.00     0.043 A 
HETATM    6  C   UNL     1      62.786   8.405   2.615  1.00  0.00     0.051 A 
HETATM    7  C   UNL     1      62.484  10.513   4.458  1.00  0.00     0.033 A 
HETATM    8  C   UNL     1      61.879   9.442   2.357  1.00  0.00     0.069 A 
HETATM    9  C   UNL     1      61.737  10.485   3.272  1.00  0.00     0.039 A 
HETATM   10  H   UNL     1      64.311   9.828   6.539  1.00  0.00     0.165 HD
ENDROOT
BRANCH   1  11
HETATM   11  C   UNL     1      65.119   6.296   3.722  1.00  0.00     0.274 C 
BRANCH  11  12
HETATM   12  N   UNL     1      65.797   5.459   4.730  1.00  0.00    -0.075 N 
HETATM   13  C   UNL     1      65.162   4.148   4.865  1.00  0.00     0.269 C 
HETATM   14  C   UNL     1      67.208   5.291   4.386  1.00  0.00     0.269 C 
HETATM   15  H   UNL     1      65.718   5.941   5.626  1.00  0.00     0.279 HD
ENDBRANCH  11  12
ENDBRANCH   1  11
BRANCH   8  16
HETATM   16  O   UNL     1      61.204   9.316   1.172  1.00  0.00    -0.356 OA
HETATM   17  C   UNL     1      60.260   8.259   1.077  1.00  0.00     0.210 C 
ENDBRANCH   8  16
TORSDOF 3
ENDMDL
MODEL 5
REMARK VINA RESULT:      -4.3      2.829      4.045
REMARK  3 active torsions:
REMARK  status: ('A' for Active; 'I' for Inactive)
REMARK    1  A    between atoms: C_1  and  C_6 
REMARK    2  A    between atoms: C_6  and  N_9 
REMARK    3  A    between atoms: C_10  and  O_12 
ROOT
HETATM    1  C   UNL     1      61.161   6.739   3.611  1.00  0.00    -0.005 A 
HETATM    2  C   UNL     1      61.472   8.079   3.205  1.00  0.00     0.003 A 
HETATM    3  N   UNL     1      61.345   6.798   1.388  1.00  0.00    -0.365 N 
HETATM    4  C   UNL     1      61.109   5.978   2.456  1.00  0.00     0.098 A 
HETATM    5  C   UNL     1      61.567   8.088   1.814  1.00  0.00     0.043 A 
HETATM    6  C   UNL     1      61.652   9.299   3.891  1.00  0.00     0.051 A 
HETATM    7  C   UNL     1      61.831   9.248   1.081  1.00  0.00     0.033 A 
HETATM    8  C   UNL     1      61.928  10.476   3.181  1.00  0.00     0.069 A 
HETATM    9  C   UNL     1      62.011  10.444   1.789  1.00  0.00     0.039 A 
HETATM   10  H   UNL     1      61.353   6.508   0.447  1.00  0.00     0.165 HD
ENDROOT
BRANCH   1  11
HETATM   11  C   UNL     1      60.904   6.247   5.006  1.00  0.00     0.274 C 
BRANCH  11  12
HETATM   12  N   UNL     1      62.052   5.473   5.513  1.00  0.00    -0.075 N 
HETATM   13  C   UNL     1      63.088   6.339   6.075  1.00  0.00     0.269 C 
HETATM   14  C   UNL     1      61.612   4.511   6.523  1.00  0.00     0.269 C 
HETATM   15  H   UNL     1      62.455   4.974   4.719  1.00  0.00     0.279 HD
ENDBRANCH  11  12
ENDBRANCH   1  11
BRANCH   8  16
HETATM   16  O   UNL     1      62.085  11.584   3.970  1.00  0.00    -0.356 OA
HETATM   17  C   UNL     1      62.602  11.377   5.277  1.00  0.00     0.210 C 
ENDBRANCH   8  16
TORSDOF 3
ENDMDL
MODEL 6
REMARK VINA RESULT:      -4.2      2.287      4.613
REMARK  3 active torsions:
REMARK  status: ('A' for Active; 'I' for Inactive)
REMARK    1  A    between atoms: C_1  and  C_6 
REMARK    2  A    between atoms: C_6  and  N_9 
REMARK    3  A    between atoms: C_10  and  O_12 
ROOT
HETATM    1  C   UNL     1      62.011   9.062   2.780  1.00  0.00    -0.005 A 
HETATM    2  C   UNL     1      63.131   8.350   3.324  1.00  0.00     0.003 A 
HETATM    3  N   UNL     1      62.748  10.144   4.588  1.00  0.00    -0.365 N 
HETATM    4  C   UNL     1      61.821  10.173   3.583  1.00  0.00     0.098 A 
HETATM    5  C   UNL     1      63.561   9.041   4.456  1.00  0.00     0.043 A 
HETATM    6  C   UNL     1      63.805   7.161   2.976  1.00  0.00     0.051 A 
HETATM    7  C   UNL     1      64.624   8.603   5.252  1.00  0.00     0.033 A 
HETATM    8  C   UNL     1      64.881   6.704   3.750  1.00  0.00     0.069 A 
HETATM    9  C   UNL     1      65.278   7.421   4.878  1.00  0.00     0.039 A 
HETATM   10  H   UNL     1      62.824  10.816   5.303  1.00  0.00     0.165 HD
ENDROOT
BRANCH   1  11
HETATM   11  C   UNL     1      61.174   8.673   1.596  1.00  0.00     0.274 C 
BRANCH  11  12
HETATM   12  N   UNL     1      59.819   8.273   2.017  1.00  0.00    -0.075 N 
HETATM   13  C   UNL     1      58.978   7.912   0.875  1.00  0.00     0.269 C 
HETATM   14  C   UNL     1      59.887   7.152   2.953  1.00  0.00     0.269 C 
HETATM   15  H   UNL     1      59.395   9.079   2.478  1.00  0.00     0.279 HD
ENDBRANCH  11  12
ENDBRANCH   1  11
BRANCH   8  16
HETATM   16  O   UNL     1      65.446   5.542   3.297  1.00  0.00    -0.356 OA
HETATM   17  C   UNL     1      66.838   5.370   3.527  1.00  0.00     0.210 C 
ENDBRANCH   8  16
TORSDOF 3
ENDMDL
MODEL 7
REMARK VINA RESULT:      -4.2      2.551      5.055
REMARK  3 active torsions:
REMARK  status: ('A' for Active; 'I' for Inactive)
REMARK    1  A    between atoms: C_1  and  C_6 
REMARK    2  A    between atoms: C_6  and  N_9 
REMARK    3  A    between atoms: C_10  and  O_12 
ROOT
HETATM    1  C   UNL     1      63.896   8.063   4.042  1.00  0.00    -0.005 A 
HETATM    2  C   UNL     1      65.087   7.402   4.490  1.00  0.00     0.003 A 
HETATM    3  N   UNL     1      64.699   9.143   5.823  1.00  0.00    -0.365 N 
HETATM    4  C   UNL     1      63.703   9.144   4.886  1.00  0.00     0.098 A 
HETATM    5  C   UNL     1      65.557   8.089   5.608  1.00  0.00     0.043 A 
HETATM    6  C   UNL     1      65.797   6.259   4.066  1.00  0.00     0.051 A 
HETATM    7  C   UNL     1      66.695   7.693   6.318  1.00  0.00     0.033 A 
HETATM    8  C   UNL     1      66.947   5.844   4.753  1.00  0.00     0.069 A 
HETATM    9  C   UNL     1      67.383   6.557   5.870  1.00  0.00     0.039 A 
HETATM   10  H   UNL     1      64.789   9.803   6.549  1.00  0.00     0.165 HD
ENDROOT
BRANCH   1  11
HETATM   11  C   UNL     1      63.000   7.656   2.908  1.00  0.00     0.274 C 
BRANCH  11  12
HETATM   12  N   UNL     1      61.912   8.633   2.719  1.00  0.00    -0.075 N 
HETATM   13  C   UNL     1      61.900   9.180   1.363  1.00  0.00     0.269 C 
HETATM   14  C   UNL     1      60.619   8.017   3.014  1.00  0.00     0.269 C 
HETATM   15  H   UNL     1      62.079   9.403   3.369  1.00  0.00     0.279 HD
ENDBRANCH  11  12
ENDBRANCH   1  11
BRANCH   8  16
HETATM   16  O   UNL     1      67.540   4.725   4.232  1.00  0.00    -0.356 OA
HETATM   17  C   UNL     1      67.314   4.458   2.856  1.00  0.00     0.210 C 
ENDBRANCH   8  16
TORSDOF 3
ENDMDL
MODEL 8
REMARK VINA RESULT:      -4.1      2.807      5.053
REMARK  3 active torsions:
REMARK  status: ('A' for Active; 'I' for Inactive)
REMARK    1  A    between atoms: C_1  and  C_6 
REMARK    2  A    between atoms: C_6  and  N_9 
REMARK    3  A    between atoms: C_10  and  O_12 
ROOT
HETATM    1  C   UNL     1      61.401   8.301   3.390  1.00  0.00    -0.005 A 
HETATM    2  C   UNL     1      61.927   7.476   4.439  1.00  0.00     0.003 A 
HETATM    3  N   UNL     1      59.860   6.792   3.965  1.00  0.00    -0.365 N 
HETATM    4  C   UNL     1      60.115   7.854   3.142  1.00  0.00     0.098 A 
HETATM    5  C   UNL     1      60.949   6.537   4.767  1.00  0.00     0.043 A 
HETATM    6  C   UNL     1      63.159   7.418   5.123  1.00  0.00     0.051 A 
HETATM    7  C   UNL     1      61.143   5.551   5.739  1.00  0.00     0.033 A 
HETATM    8  C   UNL     1      63.377   6.446   6.109  1.00  0.00     0.069 A 
HETATM    9  C   UNL     1      62.376   5.522   6.406  1.00  0.00     0.039 A 
HETATM   10  H   UNL     1      59.018   6.283   3.982  1.00  0.00     0.165 HD
ENDROOT
BRANCH   1  11
HETATM   11  C   UNL     1      62.106   9.412   2.668  1.00  0.00     0.274 C 
BRANCH  11  12
HETATM   12  N   UNL     1      61.589  10.727   3.090  1.00  0.00    -0.075 N 
HETATM   13  C   UNL     1      62.216  11.186   4.330  1.00  0.00     0.269 C 
HETATM   14  C   UNL     1      61.797  11.719   2.036  1.00  0.00     0.269 C 
HETATM   15  H   UNL     1      60.589  10.618   3.264  1.00  0.00     0.279 HD
ENDBRANCH  11  12
ENDBRANCH   1  11
BRANCH   8  16
HETATM   16  O   UNL     1      64.613   6.507   6.695  1.00  0.00    -0.356 OA
HETATM   17  C   UNL     1      65.509   7.495   6.207  1.00  0.00     0.210 C 
ENDBRANCH   8  16
TORSDOF 3
ENDMDL
MODEL 9
REMARK VINA RESULT:      -4.1      3.714      4.950
REMARK  3 active torsions:
REMARK  status: ('A' for Active; 'I' for Inactive)
REMARK    1  A    between atoms: C_1  and  C_6 
REMARK    2  A    between atoms: C_6  and  N_9 
REMARK    3  A    between atoms: C_10  and  O_12 
ROOT
HETATM    1  C   UNL     1      60.379   6.678   4.574  1.00  0.00    -0.005 A 
HETATM    2  C   UNL     1      61.649   7.305   4.799  1.00  0.00     0.003 A 
HETATM    3  N   UNL     1      60.553   8.460   3.241  1.00  0.00    -0.365 N 
HETATM    4  C   UNL     1      59.742   7.416   3.591  1.00  0.00     0.098 A 
HETATM    5  C   UNL     1      61.723   8.420   3.964  1.00  0.00     0.043 A 
HETATM    6  C   UNL     1      62.736   7.047   5.660  1.00  0.00     0.051 A 
HETATM    7  C   UNL     1      62.823   9.282   3.948  1.00  0.00     0.033 A 
HETATM    8  C   UNL     1      63.857   7.889   5.657  1.00  0.00     0.069 A 
HETATM    9  C   UNL     1      63.891   8.997   4.811  1.00  0.00     0.039 A 
HETATM   10  H   UNL     1      60.331   9.144   2.568  1.00  0.00     0.165 HD
ENDROOT
BRANCH   1  11
HETATM   11  C   UNL     1      59.818   5.479   5.282  1.00  0.00     0.274 C 
BRANCH  11  12
HETATM   12  N   UNL     1      59.018   5.885   6.452  1.00  0.00    -0.075 N 
HETATM   13  C   UNL     1      57.768   5.130   6.545  1.00  0.00     0.269 C 
HETATM   14  C   UNL     1      59.791   5.713   7.682  1.00  0.00     0.269 C 
HETATM   15  H   UNL     1      58.783   6.870   6.332  1.00  0.00     0.279 HD
ENDBRANCH  11  12
ENDBRANCH   1  11
BRANCH   8  16
HETATM   16  O   UNL     1      64.839   7.520   6.537  1.00  0.00    -0.356 OA
HETATM   17  C   UNL     1      66.172   7.878   6.202  1.00  0.00     0.210 C 
ENDBRANCH   8  16
TORSDOF 3
ENDMDL
