MODEL 1
REMARK VINA RESULT:      -4.9      0.000      0.000
REMARK  0 active torsions:
REMARK  status: ('A' for Active; 'I' for Inactive)
ROOT
HETATM    1  C   UNL     1      62.482   8.912   2.876  1.00  0.00     0.048 A 
HETATM    2  N   UNL     1      62.708   7.636   2.402  1.00  0.00    -0.365 N 
HETATM    3  C   UNL     1      62.504   7.585   1.048  1.00  0.00     0.089 A 
HETATM    4  C   UNL     1      62.109   9.688   1.777  1.00  0.00    -0.008 A 
HETATM    5  C   UNL     1      62.135   8.841   0.633  1.00  0.00     0.030 A 
HETATM    6  C   UNL     1      62.583   9.424   4.183  1.00  0.00    -0.035 A 
HETATM    7  C   UNL     1      61.888  11.584   3.263  1.00  0.00     0.002 A 
HETATM    8  C   UNL     1      61.807  11.048   1.975  1.00  0.00     0.014 A 
HETATM    9  C   UNL     1      62.271  10.786   4.342  1.00  0.00     0.009 A 
HETATM   10  C   UNL     1      63.008   8.593   5.356  1.00  0.00     0.050 C 
HETATM   11  H   UNL     1      62.977   6.870   2.958  1.00  0.00     0.165 HD
ENDROOT
TORSDOF 0
ENDMDL
MODEL 2
REMARK VINA RESULT:      -4.8      0.551      2.916
REMARK  0 active torsions:
REMARK  status: ('A' for Active; 'I' for Inactive)
ROOT
HETATM    1  C   UNL     1      62.596   8.915   3.080  1.00  0.00     0.048 A 
HETATM    2  N   UNL     1      63.020   7.630   3.353  1.00  0.00    -0.365 N 
HETATM    3  C   UNL     1      63.305   7.493   4.686  1.00  0.00     0.089 A 
HETATM    4  C   UNL     1      62.629   9.613   4.288  1.00  0.00    -0.008 A 
HETATM    5  C   UNL     1      63.070   8.704   5.291  1.00  0.00     0.030 A 
HETATM    6  C   UNL     1      62.190   9.495   1.864  1.00  0.00    -0.035 A 
HETATM    7  C   UNL     1      61.851  11.576   3.108  1.00  0.00     0.002 A 
HETATM    8  C   UNL     1      62.249  10.968   4.301  1.00  0.00     0.014 A 
HETATM    9  C   UNL     1      61.821  10.851   1.916  1.00  0.00     0.009 A 
HETATM   10  C   UNL     1      62.132   8.733   0.574  1.00  0.00     0.050 C 
HETATM   11  H   UNL     1      63.107   6.913   2.684  1.00  0.00     0.165 HD
ENDROOT
TORSDOF 0
ENDMDL
MODEL 3
REMARK VINA RESULT:      -4.6      1.374      3.587
REMARK  0 active torsions:
REMARK  status: ('A' for Active; 'I' for Inactive)
ROOT
HETATM    1  C   UNL     1      62.450   9.662   3.321  1.00  0.00     0.048 A 
HETATM    2  N   UNL     1      62.542  10.150   4.608  1.00  0.00    -0.365 N 
HETATM    3  C   UNL     1      62.967   9.168   5.464  1.00  0.00     0.089 A 
HETATM    4  C   UNL     1      62.819   8.317   3.374  1.00  0.00    -0.008 A 
HETATM    5  C   UNL     1      63.149   8.022   4.727  1.00  0.00     0.030 A 
HETATM    6  C   UNL     1      62.072  10.311   2.131  1.00  0.00    -0.035 A 
HETATM    7  C   UNL     1      62.426   8.174   0.992  1.00  0.00     0.002 A 
HETATM    8  C   UNL     1      62.806   7.560   2.188  1.00  0.00     0.014 A 
HETATM    9  C   UNL     1      62.069   9.522   0.967  1.00  0.00     0.009 A 
HETATM   10  C   UNL     1      61.700  11.763   2.075  1.00  0.00     0.050 C 
HETATM   11  H   UNL     1      62.332  11.073   4.875  1.00  0.00     0.165 HD
ENDROOT
TORSDOF 0
ENDMDL
MODEL 4
REMARK VINA RESULT:      -4.5      1.526      3.905
REMARK  0 active torsions:
REMARK  status: ('A' for Active; 'I' for Inactive)
ROOT
HETATM    1  C   UNL     1      62.338   9.736   3.151  1.00  0.00     0.048 A 
HETATM    2  N   UNL     1      61.763  10.989   3.102  1.00  0.00    -0.365 N 
HETATM    3  C   UNL     1      61.980  11.663   4.275  1.00  0.00     0.089 A 
HETATM    4  C   UNL     1      62.928   9.614   4.410  1.00  0.00    -0.008 A 
HETATM    5  C   UNL     1      62.701  10.837   5.104  1.00  0.00     0.030 A 
HETATM    6  C   UNL     1      62.378   8.719   2.179  1.00  0.00    -0.035 A 
HETATM    7  C   UNL     1      63.635   7.383   3.800  1.00  0.00     0.002 A 
HETATM    8  C   UNL     1      63.588   8.416   4.740  1.00  0.00     0.014 A 
HETATM    9  C   UNL     1      63.043   7.536   2.546  1.00  0.00     0.009 A 
HETATM   10  C   UNL     1      61.765   8.864   0.819  1.00  0.00     0.050 C 
HETATM   11  H   UNL     1      61.266  11.349   2.332  1.00  0.00     0.165 HD
ENDROOT
TORSDOF 0
ENDMDL
MODEL 5
REMARK VINA RESULT:      -4.5      1.837      3.038
REMARK  0 active torsions:
REMARK  status: ('A' for Active; 'I' for Inactive)
ROOT
HETATM    1  C   UNL     1      63.534   9.077   4.667  1.00  0.00     0.048 A 
HETATM    2  N   UNL     1      64.414   8.611   5.622  1.00  0.00    -0.365 N 
HETATM    3  C   UNL     1      64.951   7.411   5.234  1.00  0.00     0.089 A 
HETATM    4  C   UNL     1      63.508   8.126   3.646  1.00  0.00    -0.008 A 
HETATM    5  C   UNL     1      64.410   7.087   4.013  1.00  0.00     0.030 A 
HETATM    6  C   UNL     1      62.772  10.260   4.638  1.00  0.00    -0.035 A 
HETATM    7  C   UNL     1      61.900   9.505   2.480  1.00  0.00     0.002 A 
HETATM    8  C   UNL     1      62.676   8.345   2.533  1.00  0.00     0.014 A 
HETATM    9  C   UNL     1      61.951  10.442   3.512  1.00  0.00     0.009 A 
HETATM   10  C   UNL     1      62.822  11.291   5.726  1.00  0.00     0.050 C 
HETATM   11  H   UNL     1      64.626   9.074   6.464  1.00  0.00     0.165 HD
ENDROOT
TORSDOF 0
ENDMDL
MODEL 6
REMARK VINA RESULT:      -4.5      1.021      2.518
REMARK  0 active torsions:
REMARK  status: ('A' for Active; 'I' for Inactive)
ROOT
HETATM    1  C   UNL     1      62.294   9.520   2.499  1.00  0.00     0.048 A 
HETATM    2  N   UNL     1      62.152   8.963   1.244  1.00  0.00    -0.365 N 
HETATM    3  C   UNL     1      62.473   7.631   1.272  1.00  0.00     0.089 A 
HETATM    4  C   UNL     1      62.735   8.500   3.343  1.00  0.00    -0.008 A 
HETATM    5  C   UNL     1      62.835   7.315   2.560  1.00  0.00     0.030 A 
HETATM    6  C   UNL     1      62.064  10.837   2.936  1.00  0.00    -0.035 A 
HETATM    7  C   UNL     1      62.765  10.095   5.160  1.00  0.00     0.002 A 
HETATM    8  C   UNL     1      62.974   8.794   4.698  1.00  0.00     0.014 A 
HETATM    9  C   UNL     1      62.317  11.093   4.295  1.00  0.00     0.009 A 
HETATM   10  C   UNL     1      61.567  11.924   2.030  1.00  0.00     0.050 C 
HETATM   11  H   UNL     1      61.861   9.453   0.442  1.00  0.00     0.165 HD
ENDROOT
TORSDOF 0
ENDMDL
MODEL 7
REMARK VINA RESULT:      -4.2      1.410      2.642
REMARK  0 active torsions:
REMARK  status: ('A' for Active; 'I' for Inactive)
ROOT
HETATM    1  C   UNL     1      62.388   9.281   3.095  1.00  0.00     0.048 A 
HETATM    2  N   UNL     1      61.455   9.854   2.256  1.00  0.00    -0.365 N 
HETATM    3  C   UNL     1      61.211   9.038   1.183  1.00  0.00     0.089 A 
HETATM    4  C   UNL     1      62.754   8.065   2.518  1.00  0.00    -0.008 A 
HETATM    5  C   UNL     1      61.999   7.921   1.319  1.00  0.00     0.030 A 
HETATM    6  C   UNL     1      62.924   9.751   4.309  1.00  0.00    -0.035 A 
HETATM    7  C   UNL     1      64.269   7.707   4.369  1.00  0.00     0.002 A 
HETATM    8  C   UNL     1      63.711   7.264   3.167  1.00  0.00     0.014 A 
HETATM    9  C   UNL     1      63.880   8.925   4.926  1.00  0.00     0.009 A 
HETATM   10  C   UNL     1      62.510  11.048   4.938  1.00  0.00     0.050 C 
HETATM   11  H   UNL     1      61.025  10.727   2.406  1.00  0.00     0.165 HD
ENDROOT
TORSDOF 0
ENDMDL
MODEL 8
REMARK VINA RESULT:      -4.1      2.738      4.435
REMARK  0 active torsions:
REMARK  status: ('A' for Active; 'I' for Inactive)
ROOT
HETATM    1  C   UNL     1      64.636   8.417   5.070  1.00  0.00     0.048 A 
HETATM    2  N   UNL     1      65.471   8.701   6.131  1.00  0.00    -0.365 N 
HETATM    3  C   UNL     1      66.484   7.782   6.204  1.00  0.00     0.089 A 
HETATM    4  C   UNL     1      65.138   7.265   4.462  1.00  0.00    -0.008 A 
HETATM    5  C   UNL     1      66.305   6.881   5.181  1.00  0.00     0.030 A 
HETATM    6  C   UNL     1      63.489   9.092   4.613  1.00  0.00    -0.035 A 
HETATM    7  C   UNL     1      63.320   7.381   2.872  1.00  0.00     0.002 A 
HETATM    8  C   UNL     1      64.467   6.738   3.343  1.00  0.00     0.014 A 
HETATM    9  C   UNL     1      62.844   8.535   3.495  1.00  0.00     0.009 A 
HETATM   10  C   UNL     1      62.968  10.343   5.254  1.00  0.00     0.050 C 
HETATM   11  H   UNL     1      65.355   9.458   6.749  1.00  0.00     0.165 HD
ENDROOT
TORSDOF 0
ENDMDL
MODEL 9
REMARK VINA RESULT:      -3.7      4.449      6.633
REMARK  0 active torsions:
REMARK  status: ('A' for Active; 'I' for Inactive)
ROOT
HETATM    1  C   UNL     1      65.754   6.791   6.521  1.00  0.00     0.048 A 
HETATM    2  N   UNL     1      65.544   6.858   7.883  1.00  0.00    -0.365 N 
HETATM    3  C   UNL     1      66.659   6.440   8.560  1.00  0.00     0.089 A 
HETATM    4  C   UNL     1      67.047   6.299   6.338  1.00  0.00    -0.008 A 
HETATM    5  C   UNL     1      67.608   6.090   7.629  1.00  0.00     0.030 A 
HETATM    6  C   UNL     1      64.899   7.129   5.455  1.00  0.00    -0.035 A 
HETATM    7  C   UNL     1      66.699   6.436   3.948  1.00  0.00     0.002 A 
HETATM    8  C   UNL     1      67.528   6.119   5.027  1.00  0.00     0.014 A 
HETATM    9  C   UNL     1      65.413   6.933   4.161  1.00  0.00     0.009 A 
HETATM   10  C   UNL     1      63.520   7.680   5.657  1.00  0.00     0.050 C 
HETATM   11  H   UNL     1      64.710   7.162   8.308  1.00  0.00     0.165 HD
ENDROOT
TORSDOF 0
ENDMDL
