MODEL 1
REMARK VINA RESULT:      -4.3      0.000      0.000
REMARK  1 active torsions:
REMARK  status: ('A' for Active; 'I' for Inactive)
REMARK    1  A    between atoms: C_1  and  C_3 
ROOT
HETATM    1  C   UNL     1      62.523  10.192   4.088  1.00  0.00     0.081 A 
HETATM    2  S   UNL     1      62.741   8.731   3.219  1.00  0.00    -0.088 SA
HETATM    3  C   UNL     1      61.977  11.172   3.280  1.00  0.00     0.027 A 
HETATM    4  C   UNL     1      62.119   9.405   1.774  1.00  0.00    -0.020 A 
HETATM    5  C   UNL     1      61.744  10.719   1.950  1.00  0.00     0.015 A 
HETATM    6  C   UNL     1      62.041   8.576   0.539  1.00  0.00     0.056 C 
ENDROOT
BRANCH   1   7
HETATM    7  C   UNL     1      62.904  10.256   5.478  1.00  0.00     0.216 C 
HETATM    8  O   UNL     1      63.117  11.238   6.175  1.00  0.00    -0.643 OA
HETATM    9  O   UNL     1      63.018   9.020   6.017  1.00  0.00    -0.643 OA
ENDBRANCH   1   7
TORSDOF 1
ENDMDL
MODEL 2
REMARK VINA RESULT:      -4.2      0.347      1.098
REMARK  1 active torsions:
REMARK  status: ('A' for Active; 'I' for Inactive)
REMARK    1  A    between atoms: C_1  and  C_3 
ROOT
HETATM    1  C   UNL     1      62.550   9.793   4.020  1.00  0.00     0.081 A 
HETATM    2  S   UNL     1      62.805   8.416   3.031  1.00  0.00    -0.088 SA
HETATM    3  C   UNL     1      62.004  10.832   3.291  1.00  0.00     0.027 A 
HETATM    4  C   UNL     1      62.199   9.206   1.640  1.00  0.00    -0.020 A 
HETATM    5  C   UNL     1      61.802  10.495   1.922  1.00  0.00     0.015 A 
HETATM    6  C   UNL     1      62.156   8.488   0.335  1.00  0.00     0.056 C 
ENDROOT
BRANCH   1   7
HETATM    7  C   UNL     1      62.904   9.740   5.418  1.00  0.00     0.216 C 
HETATM    8  O   UNL     1      63.023   8.767   6.148  1.00  0.00    -0.643 OA
HETATM    9  O   UNL     1      63.122  10.979   5.920  1.00  0.00    -0.643 OA
ENDBRANCH   1   7
TORSDOF 1
ENDMDL
MODEL 3
REMARK VINA RESULT:      -4.0      2.293      3.017
REMARK  1 active torsions:
REMARK  status: ('A' for Active; 'I' for Inactive)
REMARK    1  A    between atoms: C_1  and  C_3 
ROOT
HETATM    1  C   UNL     1      62.132   9.837   2.213  1.00  0.00     0.081 A 
HETATM    2  S   UNL     1      62.758   8.744   3.375  1.00  0.00    -0.088 SA
HETATM    3  C   UNL     1      61.965   9.217   0.989  1.00  0.00     0.027 A 
HETATM    4  C   UNL     1      62.812   7.456   2.251  1.00  0.00    -0.020 A 
HETATM    5  C   UNL     1      62.355   7.847   1.011  1.00  0.00     0.015 A 
HETATM    6  C   UNL     1      63.312   6.118   2.675  1.00  0.00     0.056 C 
ENDROOT
BRANCH   1   7
HETATM    7  C   UNL     1      61.861  11.203   2.593  1.00  0.00     0.216 C 
HETATM    8  O   UNL     1      61.795  12.201   1.890  1.00  0.00    -0.643 OA
HETATM    9  O   UNL     1      61.659  11.313   3.927  1.00  0.00    -0.643 OA
ENDBRANCH   1   7
TORSDOF 1
ENDMDL
MODEL 4
REMARK VINA RESULT:      -4.0      1.898      2.440
REMARK  1 active torsions:
REMARK  status: ('A' for Active; 'I' for Inactive)
REMARK    1  A    between atoms: C_1  and  C_3 
ROOT
HETATM    1  C   UNL     1      63.145   9.736   4.646  1.00  0.00     0.081 A 
HETATM    2  S   UNL     1      62.253   9.351   3.234  1.00  0.00    -0.088 SA
HETATM    3  C   UNL     1      64.083   8.760   4.922  1.00  0.00     0.027 A 
HETATM    4  C   UNL     1      63.109   7.888   2.998  1.00  0.00    -0.020 A 
HETATM    5  C   UNL     1      64.063   7.697   3.973  1.00  0.00     0.015 A 
HETATM    6  C   UNL     1      62.775   7.008   1.843  1.00  0.00     0.056 C 
ENDROOT
BRANCH   1   7
HETATM    7  C   UNL     1      62.852  10.954   5.363  1.00  0.00     0.216 C 
HETATM    8  O   UNL     1      63.217  11.301   6.477  1.00  0.00    -0.643 OA
HETATM    9  O   UNL     1      62.059  11.777   4.636  1.00  0.00    -0.643 OA
ENDBRANCH   1   7
TORSDOF 1
ENDMDL
MODEL 5
REMARK VINA RESULT:      -3.9      1.479      1.814
REMARK  1 active torsions:
REMARK  status: ('A' for Active; 'I' for Inactive)
REMARK    1  A    between atoms: C_1  and  C_3 
ROOT
HETATM    1  C   UNL     1      63.064   8.807   4.686  1.00  0.00     0.081 A 
HETATM    2  S   UNL     1      63.029   7.942   3.207  1.00  0.00    -0.088 SA
HETATM    3  C   UNL     1      62.491  10.057   4.543  1.00  0.00     0.027 A 
HETATM    4  C   UNL     1      62.263   9.230   2.381  1.00  0.00    -0.020 A 
HETATM    5  C   UNL     1      62.030  10.300   3.218  1.00  0.00     0.015 A 
HETATM    6  C   UNL     1      61.937   9.098   0.933  1.00  0.00     0.056 C 
ENDROOT
BRANCH   1   7
HETATM    7  C   UNL     1      63.646   8.194   5.855  1.00  0.00     0.216 C 
HETATM    8  O   UNL     1      64.823   7.985   6.112  1.00  0.00    -0.643 OA
HETATM    9  O   UNL     1      62.695   7.828   6.747  1.00  0.00    -0.643 OA
ENDBRANCH   1   7
TORSDOF 1
ENDMDL
MODEL 6
REMARK VINA RESULT:      -3.6      4.754      6.042
REMARK  1 active torsions:
REMARK  status: ('A' for Active; 'I' for Inactive)
REMARK    1  A    between atoms: C_1  and  C_3 
ROOT
HETATM    1  C   UNL     1      65.838   7.897   5.454  1.00  0.00     0.081 A 
HETATM    2  S   UNL     1      65.746   6.937   6.871  1.00  0.00    -0.088 SA
HETATM    3  C   UNL     1      67.088   7.802   4.872  1.00  0.00     0.027 A 
HETATM    4  C   UNL     1      67.364   6.405   6.711  1.00  0.00    -0.020 A 
HETATM    5  C   UNL     1      67.966   6.944   5.594  1.00  0.00     0.015 A 
HETATM    6  C   UNL     1      67.946   5.475   7.719  1.00  0.00     0.056 C 
ENDROOT
BRANCH   1   7
HETATM    7  C   UNL     1      64.687   8.659   5.035  1.00  0.00     0.216 C 
HETATM    8  O   UNL     1      63.856   8.393   4.178  1.00  0.00    -0.643 OA
HETATM    9  O   UNL     1      64.577   9.813   5.733  1.00  0.00    -0.643 OA
ENDBRANCH   1   7
TORSDOF 1
ENDMDL
MODEL 7
REMARK VINA RESULT:      -3.5      1.836      2.268
REMARK  1 active torsions:
REMARK  status: ('A' for Active; 'I' for Inactive)
REMARK    1  A    between atoms: C_1  and  C_3 
ROOT
HETATM    1  C   UNL     1      63.514   8.572   4.092  1.00  0.00     0.081 A 
HETATM    2  S   UNL     1      62.308   9.532   3.343  1.00  0.00    -0.088 SA
HETATM    3  C   UNL     1      63.737   7.410   3.378  1.00  0.00     0.027 A 
HETATM    4  C   UNL     1      62.081   8.400   2.080  1.00  0.00    -0.020 A 
HETATM    5  C   UNL     1      62.913   7.311   2.220  1.00  0.00     0.015 A 
HETATM    6  C   UNL     1      61.076   8.666   1.013  1.00  0.00     0.056 C 
ENDROOT
BRANCH   1   7
HETATM    7  C   UNL     1      64.136   9.033   5.310  1.00  0.00     0.216 C 
HETATM    8  O   UNL     1      64.306  10.178   5.704  1.00  0.00    -0.643 OA
HETATM    9  O   UNL     1      64.565   7.998   6.069  1.00  0.00    -0.643 OA
ENDBRANCH   1   7
TORSDOF 1
ENDMDL
MODEL 8
REMARK VINA RESULT:      -3.5      6.270      7.711
REMARK  1 active torsions:
REMARK  status: ('A' for Active; 'I' for Inactive)
REMARK    1  A    between atoms: C_1  and  C_3 
ROOT
HETATM    1  C   UNL     1      66.544   6.677   7.535  1.00  0.00     0.081 A 
HETATM    2  S   UNL     1      66.680   5.082   6.923  1.00  0.00    -0.088 SA
HETATM    3  C   UNL     1      67.201   6.802   8.745  1.00  0.00     0.027 A 
HETATM    4  C   UNL     1      67.603   4.561   8.267  1.00  0.00    -0.020 A 
HETATM    5  C   UNL     1      67.811   5.585   9.165  1.00  0.00     0.015 A 
HETATM    6  C   UNL     1      68.069   3.148   8.347  1.00  0.00     0.056 C 
ENDROOT
BRANCH   1   7
HETATM    7  C   UNL     1      65.808   7.667   6.786  1.00  0.00     0.216 C 
HETATM    8  O   UNL     1      66.204   8.713   6.293  1.00  0.00    -0.643 OA
HETATM    9  O   UNL     1      64.507   7.317   6.650  1.00  0.00    -0.643 OA
ENDBRANCH   1   7
TORSDOF 1
ENDMDL
MODEL 9
REMARK VINA RESULT:      -3.4      2.632      3.880
REMARK  1 active torsions:
REMARK  status: ('A' for Active; 'I' for Inactive)
REMARK    1  A    between atoms: C_1  and  C_3 
ROOT
HETATM    1  C   UNL     1      62.361   9.880   3.256  1.00  0.00     0.081 A 
HETATM    2  S   UNL     1      62.971   8.288   3.439  1.00  0.00    -0.088 SA
HETATM    3  C   UNL     1      62.412  10.570   4.452  1.00  0.00     0.027 A 
HETATM    4  C   UNL     1      63.292   8.518   5.104  1.00  0.00    -0.020 A 
HETATM    5  C   UNL     1      62.948   9.787   5.515  1.00  0.00     0.015 A 
HETATM    6  C   UNL     1      63.873   7.408   5.910  1.00  0.00     0.056 C 
ENDROOT
BRANCH   1   7
HETATM    7  C   UNL     1      61.886  10.316   1.965  1.00  0.00     0.216 C 
HETATM    8  O   UNL     1      61.439   9.651   1.042  1.00  0.00    -0.643 OA
HETATM    9  O   UNL     1      61.977  11.661   1.834  1.00  0.00    -0.643 OA
ENDBRANCH   1   7
TORSDOF 1
ENDMDL
