MODEL 1
REMARK VINA RESULT:      -5.3      0.000      0.000
REMARK  0 active torsions:
REMARK  status: ('A' for Active; 'I' for Inactive)
ROOT
HETATM    1  N   UNL     1      63.084   9.235   5.539  1.00  0.00    -0.354 N 
HETATM    2  C   UNL     1      63.505   7.941   5.360  1.00  0.00     0.059 A 
HETATM    3  C   UNL     1      62.646   9.778   4.354  1.00  0.00     0.043 A 
HETATM    4  C   UNL     1      62.778   8.791   3.378  1.00  0.00     0.003 A 
HETATM    5  C   UNL     1      63.332   7.633   4.012  1.00  0.00     0.006 A 
HETATM    6  N   UNL     1      64.381   5.796   5.830  1.00  0.00    -0.373 N 
ATOM      7  HN  UNL     1      64.764   5.108   6.477  1.00  0.00     0.164 HD
HETATM    8  C   UNL     1      64.022   7.024   6.266  1.00  0.00     0.117 A 
HETATM    9  C   UNL     1      63.705   6.356   3.567  1.00  0.00     0.031 A 
HETATM   10  C   UNL     1      62.380   9.092   2.059  1.00  0.00     0.014 A 
HETATM   11  C   UNL     1      62.150  11.057   4.077  1.00  0.00     0.030 A 
HETATM   12  C   UNL     1      64.223   5.494   4.522  1.00  0.00     0.088 A 
HETATM   13  C   UNL     1      61.877  10.364   1.764  1.00  0.00     0.001 A 
HETATM   14  C   UNL     1      61.768  11.333   2.761  1.00  0.00     0.002 A 
HETATM   15  H   UNL     1      63.094   9.711   6.400  1.00  0.00     0.166 HD
ENDROOT
TORSDOF 0
ENDMDL
MODEL 2
REMARK VINA RESULT:      -5.1      2.135      2.550
REMARK  0 active torsions:
REMARK  status: ('A' for Active; 'I' for Inactive)
ROOT
HETATM    1  N   UNL     1      64.694   9.068   5.762  1.00  0.00    -0.354 N 
HETATM    2  C   UNL     1      65.747   8.186   5.733  1.00  0.00     0.059 A 
HETATM    3  C   UNL     1      63.813   8.815   4.737  1.00  0.00     0.043 A 
HETATM    4  C   UNL     1      64.310   7.721   4.030  1.00  0.00     0.003 A 
HETATM    5  C   UNL     1      65.540   7.332   4.652  1.00  0.00     0.006 A 
HETATM    6  N   UNL     1      67.773   7.115   6.307  1.00  0.00    -0.373 N 
ATOM      7  HN  UNL     1      68.597   7.016   6.901  1.00  0.00     0.164 HD
HETATM    8  C   UNL     1      66.857   8.075   6.560  1.00  0.00     0.117 A 
HETATM    9  C   UNL     1      66.495   6.337   4.397  1.00  0.00     0.031 A 
HETATM   10  C   UNL     1      63.576   7.246   2.924  1.00  0.00     0.014 A 
HETATM   11  C   UNL     1      62.625   9.468   4.388  1.00  0.00     0.030 A 
HETATM   12  C   UNL     1      67.583   6.287   5.256  1.00  0.00     0.088 A 
HETATM   13  C   UNL     1      62.384   7.883   2.562  1.00  0.00     0.001 A 
HETATM   14  C   UNL     1      61.919   8.981   3.284  1.00  0.00     0.002 A 
HETATM   15  H   UNL     1      64.585   9.784   6.428  1.00  0.00     0.166 HD
ENDROOT
TORSDOF 0
ENDMDL
MODEL 3
REMARK VINA RESULT:      -5.1      1.815      4.372
REMARK  0 active torsions:
REMARK  status: ('A' for Active; 'I' for Inactive)
ROOT
HETATM    1  N   UNL     1      64.242   9.398   5.514  1.00  0.00    -0.354 N 
HETATM    2  C   UNL     1      63.248   9.361   4.568  1.00  0.00     0.059 A 
HETATM    3  C   UNL     1      65.133   8.365   5.332  1.00  0.00     0.043 A 
HETATM    4  C   UNL     1      64.703   7.645   4.219  1.00  0.00     0.003 A 
HETATM    5  C   UNL     1      63.504   8.268   3.743  1.00  0.00     0.006 A 
HETATM    6  N   UNL     1      61.298   9.930   3.361  1.00  0.00    -0.373 N 
ATOM      7  HN  UNL     1      60.486  10.526   3.201  1.00  0.00     0.164 HD
HETATM    8  C   UNL     1      62.153  10.192   4.375  1.00  0.00     0.117 A 
HETATM    9  C   UNL     1      62.613   8.003   2.692  1.00  0.00     0.031 A 
HETATM   10  C   UNL     1      65.459   6.529   3.806  1.00  0.00     0.014 A 
HETATM   11  C   UNL     1      66.275   8.020   6.064  1.00  0.00     0.030 A 
HETATM   12  C   UNL     1      61.535   8.867   2.561  1.00  0.00     0.088 A 
HETATM   13  C   UNL     1      66.606   6.171   4.523  1.00  0.00     0.001 A 
HETATM   14  C   UNL     1      67.004   6.905   5.639  1.00  0.00     0.002 A 
HETATM   15  H   UNL     1      64.310  10.073   6.226  1.00  0.00     0.166 HD
ENDROOT
TORSDOF 0
ENDMDL
MODEL 4
REMARK VINA RESULT:      -4.9      1.785      3.722
REMARK  0 active torsions:
REMARK  status: ('A' for Active; 'I' for Inactive)
ROOT
HETATM    1  N   UNL     1      63.931   7.432   3.539  1.00  0.00    -0.354 N 
HETATM    2  C   UNL     1      63.600   8.609   4.165  1.00  0.00     0.059 A 
HETATM    3  C   UNL     1      63.197   7.264   2.389  1.00  0.00     0.043 A 
HETATM    4  C   UNL     1      62.372   8.381   2.262  1.00  0.00     0.003 A 
HETATM    5  C   UNL     1      62.619   9.226   3.392  1.00  0.00     0.006 A 
HETATM    6  N   UNL     1      63.573  10.355   5.757  1.00  0.00    -0.373 N 
ATOM      7  HN  UNL     1      63.908  10.788   6.618  1.00  0.00     0.164 HD
HETATM    8  C   UNL     1      64.080   9.173   5.340  1.00  0.00     0.117 A 
HETATM    9  C   UNL     1      62.099  10.452   3.831  1.00  0.00     0.031 A 
HETATM   10  C   UNL     1      61.517   8.463   1.145  1.00  0.00     0.014 A 
HETATM   11  C   UNL     1      63.201   6.216   1.461  1.00  0.00     0.030 A 
HETATM   12  C   UNL     1      62.615  10.955   5.017  1.00  0.00     0.088 A 
HETATM   13  C   UNL     1      61.511   7.426   0.204  1.00  0.00     0.001 A 
HETATM   14  C   UNL     1      62.340   6.318   0.365  1.00  0.00     0.002 A 
HETATM   15  H   UNL     1      64.604   6.795   3.869  1.00  0.00     0.166 HD
ENDROOT
TORSDOF 0
ENDMDL
MODEL 5
REMARK VINA RESULT:      -4.8      1.837      2.717
REMARK  0 active torsions:
REMARK  status: ('A' for Active; 'I' for Inactive)
ROOT
HETATM    1  N   UNL     1      63.979   7.246   3.257  1.00  0.00    -0.354 N 
HETATM    2  C   UNL     1      65.031   7.011   4.108  1.00  0.00     0.059 A 
HETATM    3  C   UNL     1      63.324   8.407   3.595  1.00  0.00     0.043 A 
HETATM    4  C   UNL     1      63.988   8.947   4.695  1.00  0.00     0.003 A 
HETATM    5  C   UNL     1      65.060   8.058   5.027  1.00  0.00     0.006 A 
HETATM    6  N   UNL     1      66.899   5.963   5.106  1.00  0.00    -0.373 N 
ATOM      7  HN  UNL     1      67.583   5.208   5.153  1.00  0.00     0.164 HD
HETATM    8  C   UNL     1      65.950   5.971   4.144  1.00  0.00     0.117 A 
HETATM    9  C   UNL     1      66.049   8.043   6.022  1.00  0.00     0.031 A 
HETATM   10  C   UNL     1      63.517  10.161   5.236  1.00  0.00     0.014 A 
HETATM   11  C   UNL     1      62.203   9.012   3.013  1.00  0.00     0.030 A 
HETATM   12  C   UNL     1      66.928   6.970   6.006  1.00  0.00     0.088 A 
HETATM   13  C   UNL     1      62.401  10.783   4.664  1.00  0.00     0.001 A 
HETATM   14  C   UNL     1      61.752  10.211   3.571  1.00  0.00     0.002 A 
HETATM   15  H   UNL     1      63.728   6.662   2.506  1.00  0.00     0.166 HD
ENDROOT
TORSDOF 0
ENDMDL
MODEL 6
REMARK VINA RESULT:      -4.8      2.016      4.936
REMARK  0 active torsions:
REMARK  status: ('A' for Active; 'I' for Inactive)
ROOT
HETATM    1  N   UNL     1      63.937   7.237   3.269  1.00  0.00    -0.354 N 
HETATM    2  C   UNL     1      63.243   8.373   3.604  1.00  0.00     0.059 A 
HETATM    3  C   UNL     1      65.038   7.078   4.078  1.00  0.00     0.043 A 
HETATM    4  C   UNL     1      65.044   8.144   4.976  1.00  0.00     0.003 A 
HETATM    5  C   UNL     1      63.915   8.970   4.668  1.00  0.00     0.006 A 
HETATM    6  N   UNL     1      61.604  10.075   3.568  1.00  0.00    -0.373 N 
ATOM      7  HN  UNL     1      60.759  10.496   3.182  1.00  0.00     0.164 HD
HETATM    8  C   UNL     1      62.088   8.920   3.059  1.00  0.00     0.117 A 
HETATM    9  C   UNL     1      63.405  10.167   5.191  1.00  0.00     0.031 A 
HETATM   10  C   UNL     1      66.075   8.210   5.935  1.00  0.00     0.014 A 
HETATM   11  C   UNL     1      66.019   6.079   4.080  1.00  0.00     0.030 A 
HETATM   12  C   UNL     1      62.255  10.664   4.595  1.00  0.00     0.088 A 
HETATM   13  C   UNL     1      67.062   7.218   5.956  1.00  0.00     0.001 A 
HETATM   14  C   UNL     1      67.034   6.170   5.037  1.00  0.00     0.002 A 
HETATM   15  H   UNL     1      63.682   6.619   2.548  1.00  0.00     0.166 HD
ENDROOT
TORSDOF 0
ENDMDL
MODEL 7
REMARK VINA RESULT:      -4.6      2.069      3.169
REMARK  0 active torsions:
REMARK  status: ('A' for Active; 'I' for Inactive)
ROOT
HETATM    1  N   UNL     1      63.410   7.479   4.014  1.00  0.00    -0.354 N 
HETATM    2  C   UNL     1      63.051   7.128   2.736  1.00  0.00     0.059 A 
HETATM    3  C   UNL     1      63.063   8.784   4.281  1.00  0.00     0.043 A 
HETATM    4  C   UNL     1      62.446   9.285   3.136  1.00  0.00     0.003 A 
HETATM    5  C   UNL     1      62.450   8.242   2.155  1.00  0.00     0.006 A 
HETATM    6  N   UNL     1      62.776   5.842   0.773  1.00  0.00    -0.373 N 
ATOM      7  HN  UNL     1      62.883   4.974   0.249  1.00  0.00     0.164 HD
HETATM    8  C   UNL     1      63.209   5.931   2.050  1.00  0.00     0.117 A 
HETATM    9  C   UNL     1      62.002   8.142   0.830  1.00  0.00     0.031 A 
HETATM   10  C   UNL     1      61.979  10.616   3.152  1.00  0.00     0.014 A 
HETATM   11  C   UNL     1      63.250   9.547   5.439  1.00  0.00     0.030 A 
HETATM   12  C   UNL     1      62.199   6.921   0.200  1.00  0.00     0.088 A 
HETATM   13  C   UNL     1      62.152  11.393   4.303  1.00  0.00     0.001 A 
HETATM   14  C   UNL     1      62.783  10.865   5.428  1.00  0.00     0.002 A 
HETATM   15  H   UNL     1      63.854   6.878   4.655  1.00  0.00     0.166 HD
ENDROOT
TORSDOF 0
ENDMDL
MODEL 8
REMARK VINA RESULT:      -4.5      1.952      2.456
REMARK  0 active torsions:
REMARK  status: ('A' for Active; 'I' for Inactive)
ROOT
HETATM    1  N   UNL     1      61.036   7.107   4.493  1.00  0.00    -0.354 N 
HETATM    2  C   UNL     1      62.276   7.305   5.049  1.00  0.00     0.059 A 
HETATM    3  C   UNL     1      60.987   7.603   3.211  1.00  0.00     0.043 A 
HETATM    4  C   UNL     1      62.247   8.127   2.926  1.00  0.00     0.003 A 
HETATM    5  C   UNL     1      63.058   7.950   4.093  1.00  0.00     0.006 A 
HETATM    6  N   UNL     1      64.042   7.296   6.619  1.00  0.00    -0.373 N 
ATOM      7  HN  UNL     1      64.423   7.065   7.536  1.00  0.00     0.164 HD
HETATM    8  C   UNL     1      62.767   6.975   6.305  1.00  0.00     0.117 A 
HETATM    9  C   UNL     1      64.380   8.278   4.426  1.00  0.00     0.031 A 
HETATM   10  C   UNL     1      62.468   8.691   1.653  1.00  0.00     0.014 A 
HETATM   11  C   UNL     1      59.930   7.625   2.293  1.00  0.00     0.030 A 
HETATM   12  C   UNL     1      64.804   7.928   5.700  1.00  0.00     0.088 A 
HETATM   13  C   UNL     1      61.425   8.719   0.720  1.00  0.00     0.001 A 
HETATM   14  C   UNL     1      60.173   8.196   1.040  1.00  0.00     0.002 A 
HETATM   15  H   UNL     1      60.283   6.669   4.951  1.00  0.00     0.166 HD
ENDROOT
TORSDOF 0
ENDMDL
MODEL 9
REMARK VINA RESULT:      -4.3      1.816      2.828
REMARK  0 active torsions:
REMARK  status: ('A' for Active; 'I' for Inactive)
ROOT
HETATM    1  N   UNL     1      62.967   6.400   6.200  1.00  0.00    -0.354 N 
HETATM    2  C   UNL     1      64.254   6.837   6.396  1.00  0.00     0.059 A 
HETATM    3  C   UNL     1      62.372   7.075   5.160  1.00  0.00     0.043 A 
HETATM    4  C   UNL     1      63.315   7.971   4.660  1.00  0.00     0.003 A 
HETATM    5  C   UNL     1      64.501   7.829   5.449  1.00  0.00     0.006 A 
HETATM    6  N   UNL     1      66.419   7.052   7.319  1.00  0.00    -0.373 N 
ATOM      7  HN  UNL     1      67.136   6.782   7.993  1.00  0.00     0.164 HD
HETATM    8  C   UNL     1      65.210   6.446   7.324  1.00  0.00     0.117 A 
HETATM    9  C   UNL     1      65.758   8.451   5.450  1.00  0.00     0.031 A 
HETATM   10  C   UNL     1      62.956   8.785   3.566  1.00  0.00     0.014 A 
HETATM   11  C   UNL     1      61.080   6.959   4.632  1.00  0.00     0.030 A 
HETATM   12  C   UNL     1      66.663   8.020   6.409  1.00  0.00     0.088 A 
HETATM   13  C   UNL     1      61.670   8.680   3.022  1.00  0.00     0.001 A 
HETATM   14  C   UNL     1      60.746   7.782   3.553  1.00  0.00     0.002 A 
HETATM   15  H   UNL     1      62.530   5.696   6.732  1.00  0.00     0.166 HD
ENDROOT
TORSDOF 0
ENDMDL
