MODEL 1
REMARK VINA RESULT:      -4.8      0.000      0.000
REMARK  2 active torsions:
REMARK  status: ('A' for Active; 'I' for Inactive)
REMARK    1  A    between atoms: N_1  and  C_2 
REMARK    2  A    between atoms: C_5  and  O_8 
ROOT
HETATM    1  N   UNL     1      62.437   8.974   3.529  1.00  0.00    -0.378 N 
HETATM    2  N   UNL     1      61.352  11.166   2.134  1.00  0.00    -0.072 N 
HETATM    3  C   UNL     1      61.772   8.732   2.257  1.00  0.00     0.150 C 
HETATM    4  C   UNL     1      61.919  10.095   4.298  1.00  0.00     0.150 C 
HETATM    5  C   UNL     1      61.877   9.998   1.406  1.00  0.00     0.252 C 
HETATM    6  C   UNL     1      62.042  11.352   3.421  1.00  0.00     0.252 C 
HETATM    7  H   UNL     1      61.485  12.000   1.563  1.00  0.00     0.277 HD
HETATM    8  H   UNL     1      60.361  11.010   2.321  1.00  0.00     0.277 HD
ENDROOT
BRANCH   1   9
HETATM    9  C   UNL     1      63.604   8.242   3.944  1.00  0.00     0.032 A 
HETATM   10  C   UNL     1      64.317   8.636   5.095  1.00  0.00     0.066 A 
HETATM   11  C   UNL     1      65.432   7.901   5.541  1.00  0.00     0.070 A 
HETATM   12  C   UNL     1      65.843   6.778   4.817  1.00  0.00     0.037 A 
HETATM   13  C   UNL     1      65.148   6.380   3.675  1.00  0.00     0.005 A 
HETATM   14  C   UNL     1      64.030   7.096   3.246  1.00  0.00     0.029 A 
BRANCH  11  15
HETATM   15  O   UNL     1      66.114   8.231   6.669  1.00  0.00    -0.356 OA
HETATM   16  C   UNL     1      66.778   7.342   7.493  1.00  0.00     0.210 C 
ENDBRANCH  11  15
ENDBRANCH   1   9
TORSDOF 2
ENDMDL
MODEL 2
REMARK VINA RESULT:      -4.7      2.715      5.522
REMARK  2 active torsions:
REMARK  status: ('A' for Active; 'I' for Inactive)
REMARK    1  A    between atoms: N_1  and  C_2 
REMARK    2  A    between atoms: C_5  and  O_8 
ROOT
HETATM    1  N   UNL     1      63.918   8.245   5.437  1.00  0.00    -0.378 N 
HETATM    2  N   UNL     1      65.187   5.749   5.738  1.00  0.00    -0.072 N 
HETATM    3  C   UNL     1      65.370   8.207   5.530  1.00  0.00     0.150 C 
HETATM    4  C   UNL     1      63.220   7.199   6.168  1.00  0.00     0.150 C 
HETATM    5  C   UNL     1      65.854   6.849   5.020  1.00  0.00     0.252 C 
HETATM    6  C   UNL     1      63.722   5.848   5.631  1.00  0.00     0.252 C 
HETATM    7  H   UNL     1      65.489   4.861   5.340  1.00  0.00     0.277 HD
HETATM    8  H   UNL     1      65.441   5.809   6.724  1.00  0.00     0.277 HD
ENDROOT
BRANCH   1   9
HETATM    9  C   UNL     1      63.222   9.170   4.584  1.00  0.00     0.032 A 
HETATM   10  C   UNL     1      62.879   8.801   3.267  1.00  0.00     0.066 A 
HETATM   11  C   UNL     1      62.155   9.677   2.436  1.00  0.00     0.070 A 
HETATM   12  C   UNL     1      61.791  10.936   2.923  1.00  0.00     0.037 A 
HETATM   13  C   UNL     1      62.128  11.315   4.223  1.00  0.00     0.005 A 
HETATM   14  C   UNL     1      62.826  10.437   5.053  1.00  0.00     0.029 A 
BRANCH  11  15
HETATM   15  O   UNL     1      61.773   9.334   1.177  1.00  0.00    -0.356 OA
HETATM   16  C   UNL     1      60.750   8.461   0.860  1.00  0.00     0.210 C 
ENDBRANCH  11  15
ENDBRANCH   1   9
TORSDOF 2
ENDMDL
MODEL 3
REMARK VINA RESULT:      -4.7      2.793      5.498
REMARK  2 active torsions:
REMARK  status: ('A' for Active; 'I' for Inactive)
REMARK    1  A    between atoms: N_1  and  C_2 
REMARK    2  A    between atoms: C_5  and  O_8 
ROOT
HETATM    1  N   UNL     1      65.312   7.623   5.953  1.00  0.00    -0.378 N 
HETATM    2  N   UNL     1      67.387   5.936   6.837  1.00  0.00    -0.072 N 
HETATM    3  C   UNL     1      66.675   8.132   5.948  1.00  0.00     0.150 C 
HETATM    4  C   UNL     1      65.016   6.648   6.992  1.00  0.00     0.150 C 
HETATM    5  C   UNL     1      67.634   6.951   5.798  1.00  0.00     0.252 C 
HETATM    6  C   UNL     1      65.990   5.472   6.812  1.00  0.00     0.252 C 
HETATM    7  H   UNL     1      68.004   5.140   6.677  1.00  0.00     0.277 HD
HETATM    8  H   UNL     1      67.569   6.358   7.748  1.00  0.00     0.277 HD
ENDROOT
BRANCH   1   9
HETATM    9  C   UNL     1      64.357   7.958   4.931  1.00  0.00     0.032 A 
HETATM   10  C   UNL     1      63.598   9.142   5.029  1.00  0.00     0.066 A 
HETATM   11  C   UNL     1      62.695   9.508   4.013  1.00  0.00     0.070 A 
HETATM   12  C   UNL     1      62.539   8.672   2.904  1.00  0.00     0.037 A 
HETATM   13  C   UNL     1      63.281   7.495   2.797  1.00  0.00     0.005 A 
HETATM   14  C   UNL     1      64.192   7.144   3.794  1.00  0.00     0.029 A 
BRANCH  11  15
HETATM   15  O   UNL     1      61.981  10.664   4.058  1.00  0.00    -0.356 OA
HETATM   16  C   UNL     1      61.787  11.528   2.998  1.00  0.00     0.210 C 
ENDBRANCH  11  15
ENDBRANCH   1   9
TORSDOF 2
ENDMDL
MODEL 4
REMARK VINA RESULT:      -4.6      2.777      5.680
REMARK  2 active torsions:
REMARK  status: ('A' for Active; 'I' for Inactive)
REMARK    1  A    between atoms: N_1  and  C_2 
REMARK    2  A    between atoms: C_5  and  O_8 
ROOT
HETATM    1  N   UNL     1      65.276   7.439   5.145  1.00  0.00    -0.378 N 
HETATM    2  N   UNL     1      67.789   7.166   6.386  1.00  0.00    -0.072 N 
HETATM    3  C   UNL     1      65.328   6.955   6.516  1.00  0.00     0.150 C 
HETATM    4  C   UNL     1      66.421   7.090   4.318  1.00  0.00     0.150 C 
HETATM    5  C   UNL     1      66.593   7.504   7.177  1.00  0.00     0.252 C 
HETATM    6  C   UNL     1      67.675   7.659   5.004  1.00  0.00     0.252 C 
HETATM    7  H   UNL     1      68.607   7.590   6.823  1.00  0.00     0.277 HD
HETATM    8  H   UNL     1      67.880   6.150   6.358  1.00  0.00     0.277 HD
ENDROOT
BRANCH   1   9
HETATM    9  C   UNL     1      64.232   8.308   4.670  1.00  0.00     0.032 A 
HETATM   10  C   UNL     1      63.528   7.992   3.490  1.00  0.00     0.066 A 
HETATM   11  C   UNL     1      62.472   8.806   3.039  1.00  0.00     0.070 A 
HETATM   12  C   UNL     1      62.135   9.952   3.765  1.00  0.00     0.037 A 
HETATM   13  C   UNL     1      62.826  10.278   4.932  1.00  0.00     0.005 A 
HETATM   14  C   UNL     1      63.859   9.458   5.390  1.00  0.00     0.029 A 
BRANCH  11  15
HETATM   15  O   UNL     1      61.747   8.505   1.929  1.00  0.00    -0.356 OA
HETATM   16  C   UNL     1      62.121   8.782   0.628  1.00  0.00     0.210 C 
ENDBRANCH  11  15
ENDBRANCH   1   9
TORSDOF 2
ENDMDL
MODEL 5
REMARK VINA RESULT:      -4.4      3.570      6.152
REMARK  2 active torsions:
REMARK  status: ('A' for Active; 'I' for Inactive)
REMARK    1  A    between atoms: N_1  and  C_2 
REMARK    2  A    between atoms: C_5  and  O_8 
ROOT
HETATM    1  N   UNL     1      66.585   6.809   6.553  1.00  0.00    -0.378 N 
HETATM    2  N   UNL     1      68.075   4.700   7.677  1.00  0.00    -0.072 N 
HETATM    3  C   UNL     1      67.482   6.052   5.693  1.00  0.00     0.150 C 
HETATM    4  C   UNL     1      67.003   6.922   7.942  1.00  0.00     0.150 C 
HETATM    5  C   UNL     1      67.638   4.645   6.271  1.00  0.00     0.252 C 
HETATM    6  C   UNL     1      67.146   5.495   8.497  1.00  0.00     0.252 C 
HETATM    7  H   UNL     1      68.117   3.752   8.049  1.00  0.00     0.277 HD
HETATM    8  H   UNL     1      68.993   5.144   7.711  1.00  0.00     0.277 HD
ENDROOT
BRANCH   1   9
HETATM    9  C   UNL     1      65.313   7.305   6.099  1.00  0.00     0.032 A 
HETATM   10  C   UNL     1      64.117   6.783   6.632  1.00  0.00     0.066 A 
HETATM   11  C   UNL     1      62.866   7.291   6.235  1.00  0.00     0.070 A 
HETATM   12  C   UNL     1      62.816   8.314   5.283  1.00  0.00     0.037 A 
HETATM   13  C   UNL     1      63.992   8.837   4.745  1.00  0.00     0.005 A 
HETATM   14  C   UNL     1      65.232   8.347   5.157  1.00  0.00     0.029 A 
BRANCH  11  15
HETATM   15  O   UNL     1      61.697   6.838   6.761  1.00  0.00    -0.356 OA
HETATM   16  C   UNL     1      60.890   5.866   6.201  1.00  0.00     0.210 C 
ENDBRANCH  11  15
ENDBRANCH   1   9
TORSDOF 2
ENDMDL
MODEL 6
REMARK VINA RESULT:      -4.3      3.219      5.972
REMARK  2 active torsions:
REMARK  status: ('A' for Active; 'I' for Inactive)
REMARK    1  A    between atoms: N_1  and  C_2 
REMARK    2  A    between atoms: C_5  and  O_8 
ROOT
HETATM    1  N   UNL     1      66.638   5.791   5.897  1.00  0.00    -0.378 N 
HETATM    2  N   UNL     1      67.411   4.264   8.133  1.00  0.00    -0.072 N 
HETATM    3  C   UNL     1      66.571   4.340   5.808  1.00  0.00     0.150 C 
HETATM    4  C   UNL     1      67.684   6.314   6.763  1.00  0.00     0.150 C 
HETATM    5  C   UNL     1      66.368   3.776   7.215  1.00  0.00     0.252 C 
HETATM    6  C   UNL     1      67.450   5.735   8.168  1.00  0.00     0.252 C 
HETATM    7  H   UNL     1      67.217   3.916   9.071  1.00  0.00     0.277 HD
HETATM    8  H   UNL     1      68.315   3.927   7.801  1.00  0.00     0.277 HD
ENDROOT
BRANCH   1   9
HETATM    9  C   UNL     1      65.664   6.650   5.277  1.00  0.00     0.032 A 
HETATM   10  C   UNL     1      65.404   7.929   5.810  1.00  0.00     0.066 A 
HETATM   11  C   UNL     1      64.490   8.799   5.187  1.00  0.00     0.070 A 
HETATM   12  C   UNL     1      63.820   8.376   4.035  1.00  0.00     0.037 A 
HETATM   13  C   UNL     1      64.066   7.111   3.499  1.00  0.00     0.005 A 
HETATM   14  C   UNL     1      64.989   6.258   4.106  1.00  0.00     0.029 A 
BRANCH  11  15
HETATM   15  O   UNL     1      64.249  10.053   5.653  1.00  0.00    -0.356 OA
HETATM   16  C   UNL     1      63.068  10.753   5.496  1.00  0.00     0.210 C 
ENDBRANCH  11  15
ENDBRANCH   1   9
TORSDOF 2
ENDMDL
MODEL 7
REMARK VINA RESULT:      -4.3      1.448      2.310
REMARK  2 active torsions:
REMARK  status: ('A' for Active; 'I' for Inactive)
REMARK    1  A    between atoms: N_1  and  C_2 
REMARK    2  A    between atoms: C_5  and  O_8 
ROOT
HETATM    1  N   UNL     1      62.598   8.759   3.556  1.00  0.00    -0.378 N 
HETATM    2  N   UNL     1      61.357  10.852   2.138  1.00  0.00    -0.072 N 
HETATM    3  C   UNL     1      61.965   8.459   2.280  1.00  0.00     0.150 C 
HETATM    4  C   UNL     1      61.988   9.841   4.314  1.00  0.00     0.150 C 
HETATM    5  C   UNL     1      61.978   9.724   1.422  1.00  0.00     0.252 C 
HETATM    6  C   UNL     1      62.020  11.098   3.429  1.00  0.00     0.252 C 
HETATM    7  H   UNL     1      61.430  11.691   1.563  1.00  0.00     0.277 HD
HETATM    8  H   UNL     1      60.381  10.620   2.318  1.00  0.00     0.277 HD
ENDROOT
BRANCH   1   9
HETATM    9  C   UNL     1      63.814   8.122   3.985  1.00  0.00     0.032 A 
HETATM   10  C   UNL     1      64.266   6.950   3.345  1.00  0.00     0.066 A 
HETATM   11  C   UNL     1      65.479   6.343   3.721  1.00  0.00     0.070 A 
HETATM   12  C   UNL     1      66.231   6.904   4.757  1.00  0.00     0.037 A 
HETATM   13  C   UNL     1      65.794   8.062   5.401  1.00  0.00     0.005 A 
HETATM   14  C   UNL     1      64.602   8.675   5.013  1.00  0.00     0.029 A 
BRANCH  11  15
HETATM   15  O   UNL     1      65.962   5.236   3.095  1.00  0.00    -0.356 OA
HETATM   16  C   UNL     1      65.786   3.934   3.522  1.00  0.00     0.210 C 
ENDBRANCH  11  15
ENDBRANCH   1   9
TORSDOF 2
ENDMDL
MODEL 8
REMARK VINA RESULT:      -4.2      2.315      3.513
REMARK  2 active torsions:
REMARK  status: ('A' for Active; 'I' for Inactive)
REMARK    1  A    between atoms: N_1  and  C_2 
REMARK    2  A    between atoms: C_5  and  O_8 
ROOT
HETATM    1  N   UNL     1      64.036   7.795   5.768  1.00  0.00    -0.378 N 
HETATM    2  N   UNL     1      61.860   7.925   3.985  1.00  0.00    -0.072 N 
HETATM    3  C   UNL     1      62.742   7.295   6.209  1.00  0.00     0.150 C 
HETATM    4  C   UNL     1      63.987   8.894   4.815  1.00  0.00     0.150 C 
HETATM    5  C   UNL     1      61.953   6.842   4.980  1.00  0.00     0.252 C 
HETATM    6  C   UNL     1      63.193   8.407   3.591  1.00  0.00     0.252 C 
HETATM    7  H   UNL     1      61.376   7.575   3.159  1.00  0.00     0.277 HD
HETATM    8  H   UNL     1      61.348   8.702   4.403  1.00  0.00     0.277 HD
ENDROOT
BRANCH   1   9
HETATM    9  C   UNL     1      65.276   7.170   6.144  1.00  0.00     0.032 A 
HETATM   10  C   UNL     1      65.305   6.220   7.186  1.00  0.00     0.066 A 
HETATM   11  C   UNL     1      66.501   5.565   7.533  1.00  0.00     0.070 A 
HETATM   12  C   UNL     1      67.677   5.878   6.845  1.00  0.00     0.037 A 
HETATM   13  C   UNL     1      67.662   6.819   5.814  1.00  0.00     0.005 A 
HETATM   14  C   UNL     1      66.472   7.452   5.456  1.00  0.00     0.029 A 
BRANCH  11  15
HETATM   15  O   UNL     1      66.553   4.615   8.504  1.00  0.00    -0.356 OA
HETATM   16  C   UNL     1      67.657   3.844   8.814  1.00  0.00     0.210 C 
ENDBRANCH  11  15
ENDBRANCH   1   9
TORSDOF 2
ENDMDL
MODEL 9
REMARK VINA RESULT:      -4.2      2.002      2.926
REMARK  2 active torsions:
REMARK  status: ('A' for Active; 'I' for Inactive)
REMARK    1  A    between atoms: N_1  and  C_2 
REMARK    2  A    between atoms: C_5  and  O_8 
ROOT
HETATM    1  N   UNL     1      62.377   7.241   2.137  1.00  0.00    -0.378 N 
HETATM    2  N   UNL     1      59.779   7.669   1.139  1.00  0.00    -0.072 N 
HETATM    3  C   UNL     1      62.219   7.995   0.903  1.00  0.00     0.150 C 
HETATM    4  C   UNL     1      61.368   6.220   2.376  1.00  0.00     0.150 C 
HETATM    5  C   UNL     1      60.843   8.662   0.914  1.00  0.00     0.252 C 
HETATM    6  C   UNL     1      59.999   6.920   2.388  1.00  0.00     0.252 C 
HETATM    7  H   UNL     1      58.882   8.150   1.195  1.00  0.00     0.277 HD
HETATM    8  H   UNL     1      59.787   7.007   0.363  1.00  0.00     0.277 HD
ENDROOT
BRANCH   1   9
HETATM    9  C   UNL     1      63.382   7.561   3.116  1.00  0.00     0.032 A 
HETATM   10  C   UNL     1      63.267   8.731   3.895  1.00  0.00     0.066 A 
HETATM   11  C   UNL     1      64.216   9.032   4.890  1.00  0.00     0.070 A 
HETATM   12  C   UNL     1      65.294   8.166   5.091  1.00  0.00     0.037 A 
HETATM   13  C   UNL     1      65.421   7.007   4.324  1.00  0.00     0.005 A 
HETATM   14  C   UNL     1      64.468   6.697   3.353  1.00  0.00     0.029 A 
BRANCH  11  15
HETATM   15  O   UNL     1      64.110  10.130   5.685  1.00  0.00    -0.356 OA
HETATM   16  C   UNL     1      63.038  11.002   5.709  1.00  0.00     0.210 C 
ENDBRANCH  11  15
ENDBRANCH   1   9
TORSDOF 2
ENDMDL
