MODEL 1
REMARK VINA RESULT:      -5.7      0.000      0.000
REMARK  1 active torsions:
REMARK  status: ('A' for Active; 'I' for Inactive)
REMARK    1  A    between atoms: C_3  and  O_8 
ROOT
HETATM    1  N   UNL     1      61.837  10.861   2.934  1.00  0.00    -0.336 N 
ATOM      2  HN  UNL     1      61.345  11.558   2.374  1.00  0.00     0.168 HD
HETATM    3  C   UNL     1      62.216  11.128   4.191  1.00  0.00     0.140 A 
HETATM    4  C   UNL     1      62.123   9.650   2.436  1.00  0.00     0.044 A 
HETATM    5  C   UNL     1      63.229   8.987   4.485  1.00  0.00    -0.045 A 
HETATM    6  C   UNL     1      62.818   8.659   3.170  1.00  0.00    -0.003 A 
HETATM    7  C   UNL     1      62.909  10.248   4.999  1.00  0.00     0.063 A 
HETATM    8  C   UNL     1      63.998   8.022   5.345  1.00  0.00     0.049 C 
HETATM    9  C   UNL     1      61.708   9.357   1.143  1.00  0.00     0.030 A 
HETATM   10  C   UNL     1      63.052   7.403   2.565  1.00  0.00     0.014 A 
HETATM   11  C   UNL     1      61.932   8.109   0.559  1.00  0.00     0.002 A 
HETATM   12  C   UNL     1      62.603   7.127   1.274  1.00  0.00     0.001 A 
ENDROOT
BRANCH   3  13
HETATM   13  O   UNL     1      61.854  12.362   4.645  1.00  0.00    -0.346 OA
HETATM   14  H   UNL     1      60.962  12.535   4.869  1.00  0.00     0.219 HD
ENDBRANCH   3  13
TORSDOF 1
ENDMDL
MODEL 2
REMARK VINA RESULT:      -5.6      2.101      3.399
REMARK  1 active torsions:
REMARK  status: ('A' for Active; 'I' for Inactive)
REMARK    1  A    between atoms: C_3  and  O_8 
ROOT
HETATM    1  N   UNL     1      62.960   9.165   5.575  1.00  0.00    -0.336 N 
ATOM      2  HN  UNL     1      62.927   9.763   6.401  1.00  0.00     0.168 HD
HETATM    3  C   UNL     1      63.328   7.880   5.667  1.00  0.00     0.140 A 
HETATM    4  C   UNL     1      62.636   9.640   4.365  1.00  0.00     0.044 A 
HETATM    5  C   UNL     1      63.105   7.507   3.320  1.00  0.00    -0.045 A 
HETATM    6  C   UNL     1      62.683   8.852   3.189  1.00  0.00    -0.003 A 
HETATM    7  C   UNL     1      63.424   7.019   4.591  1.00  0.00     0.063 A 
HETATM    8  C   UNL     1      63.220   6.588   2.135  1.00  0.00     0.049 C 
HETATM    9  C   UNL     1      62.227  10.964   4.266  1.00  0.00     0.030 A 
HETATM   10  C   UNL     1      62.298   9.439   1.961  1.00  0.00     0.014 A 
HETATM   11  C   UNL     1      61.836  11.530   3.052  1.00  0.00     0.002 A 
HETATM   12  C   UNL     1      61.870  10.764   1.895  1.00  0.00     0.001 A 
ENDROOT
BRANCH   3  13
HETATM   13  O   UNL     1      63.602   7.455   6.933  1.00  0.00    -0.346 OA
HETATM   14  H   UNL     1      63.708   6.541   7.107  1.00  0.00     0.219 HD
ENDBRANCH   3  13
TORSDOF 1
ENDMDL
MODEL 3
REMARK VINA RESULT:      -5.5      1.525      2.753
REMARK  1 active torsions:
REMARK  status: ('A' for Active; 'I' for Inactive)
REMARK    1  A    between atoms: C_3  and  O_8 
ROOT
HETATM    1  N   UNL     1      63.186   9.438   5.458  1.00  0.00    -0.336 N 
ATOM      2  HN  UNL     1      63.554   8.962   6.283  1.00  0.00     0.168 HD
HETATM    3  C   UNL     1      62.839  10.731   5.505  1.00  0.00     0.140 A 
HETATM    4  C   UNL     1      63.035   8.788   4.296  1.00  0.00     0.044 A 
HETATM    5  C   UNL     1      62.130  10.763   3.225  1.00  0.00    -0.045 A 
HETATM    6  C   UNL     1      62.514   9.403   3.131  1.00  0.00    -0.003 A 
HETATM    7  C   UNL     1      62.309  11.433   4.440  1.00  0.00     0.063 A 
HETATM    8  C   UNL     1      61.538  11.507   2.060  1.00  0.00     0.049 C 
HETATM    9  C   UNL     1      63.419   7.455   4.233  1.00  0.00     0.030 A 
HETATM   10  C   UNL     1      62.416   8.640   1.945  1.00  0.00     0.014 A 
HETATM   11  C   UNL     1      63.331   6.714   3.053  1.00  0.00     0.002 A 
HETATM   12  C   UNL     1      62.831   7.309   1.904  1.00  0.00     0.001 A 
ENDROOT
BRANCH   3  13
HETATM   13  O   UNL     1      63.059  11.337   6.706  1.00  0.00    -0.346 OA
HETATM   14  H   UNL     1      62.385  11.853   7.101  1.00  0.00     0.219 HD
ENDBRANCH   3  13
TORSDOF 1
ENDMDL
MODEL 4
REMARK VINA RESULT:      -5.4      1.012      3.000
REMARK  1 active torsions:
REMARK  status: ('A' for Active; 'I' for Inactive)
REMARK    1  A    between atoms: C_3  and  O_8 
ROOT
HETATM    1  N   UNL     1      62.929  10.215   4.933  1.00  0.00    -0.336 N 
ATOM      2  HN  UNL     1      63.171  10.513   5.878  1.00  0.00     0.168 HD
HETATM    3  C   UNL     1      62.240  11.019   4.112  1.00  0.00     0.140 A 
HETATM    4  C   UNL     1      63.289   9.009   4.474  1.00  0.00     0.044 A 
HETATM    5  C   UNL     1      62.207   9.413   2.346  1.00  0.00    -0.045 A 
HETATM    6  C   UNL     1      62.961   8.548   3.176  1.00  0.00    -0.003 A 
HETATM    7  C   UNL     1      61.852  10.676   2.831  1.00  0.00     0.063 A 
HETATM    8  C   UNL     1      61.778   9.016   0.960  1.00  0.00     0.049 C 
HETATM    9  C   UNL     1      64.027   8.181   5.310  1.00  0.00     0.030 A 
HETATM   10  C   UNL     1      63.408   7.267   2.775  1.00  0.00     0.014 A 
HETATM   11  C   UNL     1      64.476   6.925   4.901  1.00  0.00     0.002 A 
HETATM   12  C   UNL     1      64.167   6.467   3.628  1.00  0.00     0.001 A 
ENDROOT
BRANCH   3  13
HETATM   13  O   UNL     1      61.945  12.245   4.629  1.00  0.00    -0.346 OA
HETATM   14  H   UNL     1      62.029  13.011   4.097  1.00  0.00     0.219 HD
ENDBRANCH   3  13
TORSDOF 1
ENDMDL
MODEL 5
REMARK VINA RESULT:      -4.7      2.008      3.363
REMARK  1 active torsions:
REMARK  status: ('A' for Active; 'I' for Inactive)
REMARK    1  A    between atoms: C_3  and  O_8 
ROOT
HETATM    1  N   UNL     1      62.351   7.992   2.397  1.00  0.00    -0.336 N 
ATOM      2  HN  UNL     1      62.211   7.317   1.645  1.00  0.00     0.168 HD
HETATM    3  C   UNL     1      61.524   9.033   2.553  1.00  0.00     0.140 A 
HETATM    4  C   UNL     1      63.369   7.863   3.260  1.00  0.00     0.044 A 
HETATM    5  C   UNL     1      62.733   9.889   4.425  1.00  0.00    -0.045 A 
HETATM    6  C   UNL     1      63.611   8.784   4.308  1.00  0.00    -0.003 A 
HETATM    7  C   UNL     1      61.666  10.001   3.528  1.00  0.00     0.063 A 
HETATM    8  C   UNL     1      62.913  10.943   5.482  1.00  0.00     0.049 C 
HETATM    9  C   UNL     1      64.215   6.770   3.121  1.00  0.00     0.030 A 
HETATM   10  C   UNL     1      64.698   8.548   5.183  1.00  0.00     0.014 A 
HETATM   11  C   UNL     1      65.276   6.540   3.998  1.00  0.00     0.002 A 
HETATM   12  C   UNL     1      65.517   7.430   5.034  1.00  0.00     0.001 A 
ENDROOT
BRANCH   3  13
HETATM   13  O   UNL     1      60.488   9.076   1.667  1.00  0.00    -0.346 OA
HETATM   14  H   UNL     1      60.658   9.041   0.747  1.00  0.00     0.219 HD
ENDBRANCH   3  13
TORSDOF 1
ENDMDL
MODEL 6
REMARK VINA RESULT:      -4.7      2.565      4.498
REMARK  1 active torsions:
REMARK  status: ('A' for Active; 'I' for Inactive)
REMARK    1  A    between atoms: C_3  and  O_8 
ROOT
HETATM    1  N   UNL     1      63.966   7.576   4.401  1.00  0.00    -0.336 N 
ATOM      2  HN  UNL     1      64.482   7.298   5.236  1.00  0.00     0.168 HD
HETATM    3  C   UNL     1      63.855   6.751   3.352  1.00  0.00     0.140 A 
HETATM    4  C   UNL     1      63.377   8.777   4.321  1.00  0.00     0.044 A 
HETATM    5  C   UNL     1      62.593   8.325   2.075  1.00  0.00    -0.045 A 
HETATM    6  C   UNL     1      62.665   9.211   3.177  1.00  0.00    -0.003 A 
HETATM    7  C   UNL     1      63.197   7.067   2.179  1.00  0.00     0.063 A 
HETATM    8  C   UNL     1      61.887   8.693   0.799  1.00  0.00     0.049 C 
HETATM    9  C   UNL     1      63.465   9.627   5.416  1.00  0.00     0.030 A 
HETATM   10  C   UNL     1      62.058  10.489   3.198  1.00  0.00     0.014 A 
HETATM   11  C   UNL     1      62.851  10.880   5.432  1.00  0.00     0.002 A 
HETATM   12  C   UNL     1      62.143  11.312   4.320  1.00  0.00     0.001 A 
ENDROOT
BRANCH   3  13
HETATM   13  O   UNL     1      64.441   5.532   3.521  1.00  0.00    -0.346 OA
HETATM   14  H   UNL     1      64.938   5.354   4.294  1.00  0.00     0.219 HD
ENDBRANCH   3  13
TORSDOF 1
ENDMDL
MODEL 7
REMARK VINA RESULT:      -4.7      3.304      4.363
REMARK  1 active torsions:
REMARK  status: ('A' for Active; 'I' for Inactive)
REMARK    1  A    between atoms: C_3  and  O_8 
ROOT
HETATM    1  N   UNL     1      65.437   8.665   5.955  1.00  0.00    -0.336 N 
ATOM      2  HN  UNL     1      65.105   9.463   6.497  1.00  0.00     0.168 HD
HETATM    3  C   UNL     1      66.593   8.059   6.255  1.00  0.00     0.140 A 
HETATM    4  C   UNL     1      64.730   8.191   4.920  1.00  0.00     0.044 A 
HETATM    5  C   UNL     1      66.401   6.501   4.457  1.00  0.00    -0.045 A 
HETATM    6  C   UNL     1      65.159   7.098   4.129  1.00  0.00    -0.003 A 
HETATM    7  C   UNL     1      67.120   6.995   5.550  1.00  0.00     0.063 A 
HETATM    8  C   UNL     1      66.967   5.353   3.668  1.00  0.00     0.049 C 
HETATM    9  C   UNL     1      63.516   8.797   4.620  1.00  0.00     0.030 A 
HETATM   10  C   UNL     1      64.330   6.656   3.072  1.00  0.00     0.014 A 
HETATM   11  C   UNL     1      62.699   8.345   3.583  1.00  0.00     0.002 A 
HETATM   12  C   UNL     1      63.106   7.269   2.808  1.00  0.00     0.001 A 
ENDROOT
BRANCH   3  13
HETATM   13  O   UNL     1      67.237   8.567   7.344  1.00  0.00    -0.346 OA
HETATM   14  H   UNL     1      67.840   8.034   7.823  1.00  0.00     0.219 HD
ENDBRANCH   3  13
TORSDOF 1
ENDMDL
MODEL 8
REMARK VINA RESULT:      -4.6      2.668      3.695
REMARK  1 active torsions:
REMARK  status: ('A' for Active; 'I' for Inactive)
REMARK    1  A    between atoms: C_3  and  O_8 
ROOT
HETATM    1  N   UNL     1      62.593   7.638   1.388  1.00  0.00    -0.336 N 
ATOM      2  HN  UNL     1      62.471   7.592   0.376  1.00  0.00     0.168 HD
HETATM    3  C   UNL     1      62.964   6.558   2.088  1.00  0.00     0.140 A 
HETATM    4  C   UNL     1      62.386   8.780   2.057  1.00  0.00     0.044 A 
HETATM    5  C   UNL     1      62.891   7.717   4.174  1.00  0.00    -0.045 A 
HETATM    6  C   UNL     1      62.526   8.886   3.462  1.00  0.00    -0.003 A 
HETATM    7  C   UNL     1      63.121   6.536   3.460  1.00  0.00     0.063 A 
HETATM    8  C   UNL     1      63.040   7.707   5.670  1.00  0.00     0.049 C 
HETATM    9  C   UNL     1      62.027   9.910   1.334  1.00  0.00     0.030 A 
HETATM   10  C   UNL     1      62.309  10.142   4.075  1.00  0.00     0.014 A 
HETATM   11  C   UNL     1      61.828  11.149   1.946  1.00  0.00     0.002 A 
HETATM   12  C   UNL     1      61.972  11.266   3.321  1.00  0.00     0.001 A 
ENDROOT
BRANCH   3  13
HETATM   13  O   UNL     1      63.198   5.444   1.337  1.00  0.00    -0.346 OA
HETATM   14  H   UNL     1      63.263   5.513   0.405  1.00  0.00     0.219 HD
ENDBRANCH   3  13
TORSDOF 1
ENDMDL
MODEL 9
REMARK VINA RESULT:      -4.2      4.471      5.939
REMARK  1 active torsions:
REMARK  status: ('A' for Active; 'I' for Inactive)
REMARK    1  A    between atoms: C_3  and  O_8 
ROOT
HETATM    1  N   UNL     1      64.946   5.735   7.384  1.00  0.00    -0.336 N 
ATOM      2  HN  UNL     1      64.231   5.246   7.922  1.00  0.00     0.168 HD
HETATM    3  C   UNL     1      66.243   5.431   7.522  1.00  0.00     0.140 A 
HETATM    4  C   UNL     1      64.617   6.702   6.516  1.00  0.00     0.044 A 
HETATM    5  C   UNL     1      66.940   7.090   5.954  1.00  0.00    -0.045 A 
HETATM    6  C   UNL     1      65.575   7.418   5.760  1.00  0.00    -0.003 A 
HETATM    7  C   UNL     1      67.268   6.067   6.850  1.00  0.00     0.063 A 
HETATM    8  C   UNL     1      68.044   7.806   5.226  1.00  0.00     0.049 C 
HETATM    9  C   UNL     1      63.271   7.004   6.348  1.00  0.00     0.030 A 
HETATM   10  C   UNL     1      65.126   8.405   4.852  1.00  0.00     0.014 A 
HETATM   11  C   UNL     1      62.837   7.969   5.438  1.00  0.00     0.002 A 
HETATM   12  C   UNL     1      63.768   8.671   4.686  1.00  0.00     0.001 A 
ENDROOT
BRANCH   3  13
HETATM   13  O   UNL     1      66.500   4.410   8.389  1.00  0.00    -0.346 OA
HETATM   14  H   UNL     1      67.019   4.564   9.153  1.00  0.00     0.219 HD
ENDBRANCH   3  13
TORSDOF 1
ENDMDL
