MODEL 1
REMARK VINA RESULT:      -5.5      0.000      0.000
REMARK  1 active torsions:
REMARK  status: ('A' for Active; 'I' for Inactive)
REMARK    1  A    between atoms: C_1  and  N_2 
ROOT
HETATM    1  C   UNL     1      62.885   8.927   3.962  1.00  0.00     0.036 A 
HETATM    2  C   UNL     1      62.796   8.263   2.705  1.00  0.00    -0.029 A 
HETATM    3  C   UNL     1      62.242   8.940   1.580  1.00  0.00    -0.054 A 
HETATM    4  C   UNL     1      62.380  10.241   4.036  1.00  0.00     0.030 A 
HETATM    5  C   UNL     1      63.355   6.880   2.468  1.00  0.00     0.051 C 
HETATM    6  C   UNL     1      61.838  10.901   2.935  1.00  0.00     0.003 A 
HETATM    7  C   UNL     1      61.773  10.255   1.713  1.00  0.00     0.007 A 
HETATM    8  C   UNL     1      62.152   8.334   0.201  1.00  0.00     0.049 C 
ENDROOT
BRANCH   1   9
HETATM    9  N   UNL     1      63.517   8.378   5.068  1.00  0.00    -0.377 N 
HETATM   10  C   UNL     1      64.841   8.858   5.500  1.00  0.00     0.150 C 
HETATM   11  C   UNL     1      65.666   7.660   6.032  1.00  0.00     0.252 C 
HETATM   12  N   UNL     1      64.984   6.856   7.081  1.00  0.00    -0.072 N 
HETATM   13  C   UNL     1      63.637   6.478   6.599  1.00  0.00     0.252 C 
HETATM   14  H   UNL     1      65.527   6.015   7.275  1.00  0.00     0.277 HD
HETATM   15  H   UNL     1      64.902   7.405   7.937  1.00  0.00     0.277 HD
HETATM   16  C   UNL     1      62.786   7.694   6.143  1.00  0.00     0.150 C 
ENDBRANCH   1   9
TORSDOF 1
ENDMDL
MODEL 2
REMARK VINA RESULT:      -5.1      0.838      2.195
REMARK  1 active torsions:
REMARK  status: ('A' for Active; 'I' for Inactive)
REMARK    1  A    between atoms: C_1  and  N_2 
ROOT
HETATM    1  C   UNL     1      63.016   8.390   3.563  1.00  0.00     0.036 A 
HETATM    2  C   UNL     1      62.609   9.754   3.525  1.00  0.00    -0.029 A 
HETATM    3  C   UNL     1      62.070  10.304   2.325  1.00  0.00    -0.054 A 
HETATM    4  C   UNL     1      62.889   7.644   2.373  1.00  0.00     0.030 A 
HETATM    5  C   UNL     1      62.629  10.650   4.741  1.00  0.00     0.051 C 
HETATM    6  C   UNL     1      62.363   8.183   1.200  1.00  0.00     0.003 A 
HETATM    7  C   UNL     1      61.952   9.505   1.178  1.00  0.00     0.007 A 
HETATM    8  C   UNL     1      61.569  11.722   2.206  1.00  0.00     0.049 C 
ENDROOT
BRANCH   1   9
HETATM    9  N   UNL     1      63.437   7.755   4.722  1.00  0.00    -0.377 N 
HETATM   10  C   UNL     1      64.757   8.046   5.308  1.00  0.00     0.150 C 
HETATM   11  C   UNL     1      65.344   6.743   5.907  1.00  0.00     0.252 C 
HETATM   12  N   UNL     1      64.442   6.039   6.858  1.00  0.00    -0.072 N 
HETATM   13  C   UNL     1      63.120   5.853   6.221  1.00  0.00     0.252 C 
HETATM   14  H   UNL     1      64.840   5.129   7.095  1.00  0.00     0.277 HD
HETATM   15  H   UNL     1      64.341   6.591   7.709  1.00  0.00     0.277 HD
HETATM   16  C   UNL     1      62.501   7.176   5.695  1.00  0.00     0.150 C 
ENDBRANCH   1   9
TORSDOF 1
ENDMDL
MODEL 3
REMARK VINA RESULT:      -4.8      2.120      3.533
REMARK  1 active torsions:
REMARK  status: ('A' for Active; 'I' for Inactive)
REMARK    1  A    between atoms: C_1  and  N_2 
ROOT
HETATM    1  C   UNL     1      62.497   8.329   3.393  1.00  0.00     0.036 A 
HETATM    2  C   UNL     1      62.101   9.351   2.484  1.00  0.00    -0.029 A 
HETATM    3  C   UNL     1      62.050  10.708   2.916  1.00  0.00    -0.054 A 
HETATM    4  C   UNL     1      62.796   8.720   4.715  1.00  0.00     0.030 A 
HETATM    5  C   UNL     1      61.815   9.084   1.026  1.00  0.00     0.051 C 
HETATM    6  C   UNL     1      62.745  10.047   5.136  1.00  0.00     0.003 A 
HETATM    7  C   UNL     1      62.378  11.036   4.240  1.00  0.00     0.007 A 
HETATM    8  C   UNL     1      61.690  11.861   2.012  1.00  0.00     0.049 C 
ENDROOT
BRANCH   1   9
HETATM    9  N   UNL     1      62.684   7.007   3.016  1.00  0.00    -0.377 N 
HETATM   10  C   UNL     1      64.032   6.481   2.741  1.00  0.00     0.150 C 
HETATM   11  C   UNL     1      63.951   5.465   1.574  1.00  0.00     0.252 C 
HETATM   12  N   UNL     1      62.948   4.383   1.765  1.00  0.00    -0.072 N 
HETATM   13  C   UNL     1      61.644   4.991   2.110  1.00  0.00     0.252 C 
HETATM   14  H   UNL     1      62.858   3.845   0.903  1.00  0.00     0.277 HD
HETATM   15  H   UNL     1      63.249   3.763   2.516  1.00  0.00     0.277 HD
HETATM   16  C   UNL     1      61.717   5.947   3.331  1.00  0.00     0.150 C 
ENDBRANCH   1   9
TORSDOF 1
ENDMDL
MODEL 4
REMARK VINA RESULT:      -4.6      1.590      3.148
REMARK  1 active torsions:
REMARK  status: ('A' for Active; 'I' for Inactive)
REMARK    1  A    between atoms: C_1  and  N_2 
ROOT
HETATM    1  C   UNL     1      64.556   7.340   4.157  1.00  0.00     0.036 A 
HETATM    2  C   UNL     1      63.619   8.405   4.030  1.00  0.00    -0.029 A 
HETATM    3  C   UNL     1      62.691   8.412   2.949  1.00  0.00    -0.054 A 
HETATM    4  C   UNL     1      64.535   6.339   3.164  1.00  0.00     0.030 A 
HETATM    5  C   UNL     1      63.488   9.507   5.055  1.00  0.00     0.051 C 
HETATM    6  C   UNL     1      63.627   6.348   2.107  1.00  0.00     0.003 A 
HETATM    7  C   UNL     1      62.708   7.377   2.002  1.00  0.00     0.007 A 
HETATM    8  C   UNL     1      61.633   9.472   2.762  1.00  0.00     0.049 C 
ENDROOT
BRANCH   1   9
HETATM    9  N   UNL     1      65.407   7.203   5.243  1.00  0.00    -0.377 N 
HETATM   10  C   UNL     1      65.279   6.062   6.167  1.00  0.00     0.150 C 
HETATM   11  C   UNL     1      65.595   6.538   7.607  1.00  0.00     0.252 C 
HETATM   12  N   UNL     1      66.896   7.244   7.753  1.00  0.00    -0.072 N 
HETATM   13  C   UNL     1      66.976   8.322   6.744  1.00  0.00     0.252 C 
HETATM   14  H   UNL     1      66.964   7.644   8.690  1.00  0.00     0.277 HD
HETATM   15  H   UNL     1      67.663   6.585   7.615  1.00  0.00     0.277 HD
HETATM   16  C   UNL     1      66.737   7.824   5.294  1.00  0.00     0.150 C 
ENDBRANCH   1   9
TORSDOF 1
ENDMDL
MODEL 5
REMARK VINA RESULT:      -4.3      2.373      4.824
REMARK  1 active torsions:
REMARK  status: ('A' for Active; 'I' for Inactive)
REMARK    1  A    between atoms: C_1  and  N_2 
ROOT
HETATM    1  C   UNL     1      63.086   8.053   3.404  1.00  0.00     0.036 A 
HETATM    2  C   UNL     1      63.952   6.976   3.062  1.00  0.00    -0.029 A 
HETATM    3  C   UNL     1      65.160   6.774   3.790  1.00  0.00    -0.054 A 
HETATM    4  C   UNL     1      63.495   8.903   4.452  1.00  0.00     0.030 A 
HETATM    5  C   UNL     1      63.608   5.953   2.005  1.00  0.00     0.051 C 
HETATM    6  C   UNL     1      64.677   8.705   5.163  1.00  0.00     0.003 A 
HETATM    7  C   UNL     1      65.503   7.644   4.836  1.00  0.00     0.007 A 
HETATM    8  C   UNL     1      66.112   5.632   3.531  1.00  0.00     0.049 C 
ENDROOT
BRANCH   1   9
HETATM    9  N   UNL     1      61.842   8.242   2.821  1.00  0.00    -0.377 N 
HETATM   10  C   UNL     1      60.604   8.028   3.591  1.00  0.00     0.150 C 
HETATM   11  C   UNL     1      59.527   7.418   2.660  1.00  0.00     0.252 C 
HETATM   12  N   UNL     1      59.290   8.182   1.406  1.00  0.00    -0.072 N 
HETATM   13  C   UNL     1      60.586   8.418   0.733  1.00  0.00     0.252 C 
HETATM   14  H   UNL     1      58.677   7.646   0.790  1.00  0.00     0.277 HD
HETATM   15  H   UNL     1      58.846   9.074   1.624  1.00  0.00     0.277 HD
HETATM   16  C   UNL     1      61.636   9.104   1.649  1.00  0.00     0.150 C 
ENDBRANCH   1   9
TORSDOF 1
ENDMDL
MODEL 6
REMARK VINA RESULT:      -4.3      2.645      4.800
REMARK  1 active torsions:
REMARK  status: ('A' for Active; 'I' for Inactive)
REMARK    1  A    between atoms: C_1  and  N_2 
ROOT
HETATM    1  C   UNL     1      61.873   8.774   3.346  1.00  0.00     0.036 A 
HETATM    2  C   UNL     1      63.079   8.151   3.775  1.00  0.00    -0.029 A 
HETATM    3  C   UNL     1      63.951   8.830   4.676  1.00  0.00    -0.054 A 
HETATM    4  C   UNL     1      61.613  10.076   3.822  1.00  0.00     0.030 A 
HETATM    5  C   UNL     1      63.451   6.737   3.395  1.00  0.00     0.051 C 
HETATM    6  C   UNL     1      62.466  10.739   4.702  1.00  0.00     0.003 A 
HETATM    7  C   UNL     1      63.627  10.117   5.129  1.00  0.00     0.007 A 
HETATM    8  C   UNL     1      65.223   8.229   5.221  1.00  0.00     0.049 C 
ENDROOT
BRANCH   1   9
HETATM    9  N   UNL     1      60.921   8.132   2.568  1.00  0.00    -0.377 N 
HETATM   10  C   UNL     1      61.087   8.018   1.109  1.00  0.00     0.150 C 
HETATM   11  C   UNL     1      59.700   8.143   0.430  1.00  0.00     0.252 C 
HETATM   12  N   UNL     1      58.667   7.212   0.958  1.00  0.00    -0.072 N 
HETATM   13  C   UNL     1      58.616   7.335   2.432  1.00  0.00     0.252 C 
HETATM   14  H   UNL     1      57.757   7.452   0.563  1.00  0.00     0.277 HD
HETATM   15  H   UNL     1      58.901   6.254   0.700  1.00  0.00     0.277 HD
HETATM   16  C   UNL     1      59.996   7.129   3.112  1.00  0.00     0.150 C 
ENDBRANCH   1   9
TORSDOF 1
ENDMDL
MODEL 7
REMARK VINA RESULT:      -4.1      2.615      3.524
REMARK  1 active torsions:
REMARK  status: ('A' for Active; 'I' for Inactive)
REMARK    1  A    between atoms: C_1  and  N_2 
ROOT
HETATM    1  C   UNL     1      61.024   8.262   2.669  1.00  0.00     0.036 A 
HETATM    2  C   UNL     1      60.075   7.318   3.157  1.00  0.00    -0.029 A 
HETATM    3  C   UNL     1      59.065   6.809   2.288  1.00  0.00    -0.054 A 
HETATM    4  C   UNL     1      60.892   8.677   1.328  1.00  0.00     0.030 A 
HETATM    5  C   UNL     1      60.137   6.739   4.550  1.00  0.00     0.051 C 
HETATM    6  C   UNL     1      59.903   8.180   0.481  1.00  0.00     0.003 A 
HETATM    7  C   UNL     1      58.998   7.248   0.958  1.00  0.00     0.007 A 
HETATM    8  C   UNL     1      58.050   5.773   2.703  1.00  0.00     0.049 C 
ENDROOT
BRANCH   1   9
HETATM    9  N   UNL     1      62.102   8.710   3.417  1.00  0.00    -0.377 N 
HETATM   10  C   UNL     1      63.380   7.976   3.420  1.00  0.00     0.150 C 
HETATM   11  C   UNL     1      64.006   8.053   4.835  1.00  0.00     0.252 C 
HETATM   12  N   UNL     1      64.142   9.431   5.376  1.00  0.00    -0.072 N 
HETATM   13  C   UNL     1      62.838  10.123   5.269  1.00  0.00     0.252 C 
HETATM   14  H   UNL     1      64.427   9.387   6.355  1.00  0.00     0.277 HD
HETATM   15  H   UNL     1      64.848   9.942   4.846  1.00  0.00     0.277 HD
HETATM   16  C   UNL     1      62.255  10.111   3.830  1.00  0.00     0.150 C 
ENDBRANCH   1   9
TORSDOF 1
ENDMDL
MODEL 8
REMARK VINA RESULT:      -4.1      2.086      3.204
REMARK  1 active torsions:
REMARK  status: ('A' for Active; 'I' for Inactive)
REMARK    1  A    between atoms: C_1  and  N_2 
ROOT
HETATM    1  C   UNL     1      64.123   7.464   5.351  1.00  0.00     0.036 A 
HETATM    2  C   UNL     1      62.954   6.663   5.212  1.00  0.00    -0.029 A 
HETATM    3  C   UNL     1      61.814   7.180   4.529  1.00  0.00    -0.054 A 
HETATM    4  C   UNL     1      64.080   8.770   4.821  1.00  0.00     0.030 A 
HETATM    5  C   UNL     1      62.885   5.227   5.674  1.00  0.00     0.051 C 
HETATM    6  C   UNL     1      62.964   9.274   4.156  1.00  0.00     0.003 A 
HETATM    7  C   UNL     1      61.839   8.482   4.007  1.00  0.00     0.007 A 
HETATM    8  C   UNL     1      60.552   6.388   4.292  1.00  0.00     0.049 C 
ENDROOT
BRANCH   1   9
HETATM    9  N   UNL     1      65.308   6.991   5.895  1.00  0.00    -0.377 N 
HETATM   10  C   UNL     1      65.412   6.681   7.332  1.00  0.00     0.150 C 
HETATM   11  C   UNL     1      66.827   7.063   7.832  1.00  0.00     0.252 C 
HETATM   12  N   UNL     1      67.942   6.474   7.043  1.00  0.00    -0.072 N 
HETATM   13  C   UNL     1      67.724   6.766   5.609  1.00  0.00     0.252 C 
HETATM   14  H   UNL     1      68.827   6.882   7.345  1.00  0.00     0.277 HD
HETATM   15  H   UNL     1      67.972   5.465   7.189  1.00  0.00     0.277 HD
HETATM   16  C   UNL     1      66.333   6.307   5.095  1.00  0.00     0.150 C 
ENDBRANCH   1   9
TORSDOF 1
ENDMDL
MODEL 9
REMARK VINA RESULT:      -4.0      2.261      2.597
REMARK  1 active torsions:
REMARK  status: ('A' for Active; 'I' for Inactive)
REMARK    1  A    between atoms: C_1  and  N_2 
ROOT
HETATM    1  C   UNL     1      63.800   7.445   3.894  1.00  0.00     0.036 A 
HETATM    2  C   UNL     1      63.063   7.618   2.688  1.00  0.00    -0.029 A 
HETATM    3  C   UNL     1      62.284   8.796   2.493  1.00  0.00    -0.054 A 
HETATM    4  C   UNL     1      63.695   8.459   4.868  1.00  0.00     0.030 A 
HETATM    5  C   UNL     1      63.134   6.643   1.537  1.00  0.00     0.051 C 
HETATM    6  C   UNL     1      62.932   9.609   4.675  1.00  0.00     0.003 A 
HETATM    7  C   UNL     1      62.234   9.778   3.492  1.00  0.00     0.007 A 
HETATM    8  C   UNL     1      61.510   9.086   1.230  1.00  0.00     0.049 C 
ENDROOT
BRANCH   1   9
HETATM    9  N   UNL     1      64.671   6.386   4.106  1.00  0.00    -0.377 N 
HETATM   10  C   UNL     1      66.115   6.530   3.854  1.00  0.00     0.150 C 
HETATM   11  C   UNL     1      66.666   5.198   3.285  1.00  0.00     0.252 C 
HETATM   12  N   UNL     1      66.349   3.998   4.104  1.00  0.00    -0.072 N 
HETATM   13  C   UNL     1      64.895   3.968   4.374  1.00  0.00     0.252 C 
HETATM   14  H   UNL     1      66.621   3.156   3.595  1.00  0.00     0.277 HD
HETATM   15  H   UNL     1      66.863   4.036   4.984  1.00  0.00     0.277 HD
HETATM   16  C   UNL     1      64.364   5.277   5.020  1.00  0.00     0.150 C 
ENDBRANCH   1   9
TORSDOF 1
ENDMDL
