MODEL 1
REMARK VINA RESULT:      -4.4      0.000      0.000
REMARK  2 active torsions:
REMARK  status: ('A' for Active; 'I' for Inactive)
REMARK    1  A    between atoms: C_1  and  C_5 
REMARK    2  A    between atoms: C_5  and  C_7 
ROOT
HETATM    1  N   UNL     1      61.779  11.400   3.097  1.00  0.00    -0.375 N 
ATOM      2  HN  UNL     1      61.489  12.357   3.294  1.00  0.00     0.164 HD
HETATM    3  C   UNL     1      62.642   9.300   3.876  1.00  0.00    -0.033 A 
HETATM    4  C   UNL     1      62.237  10.624   4.115  1.00  0.00     0.095 A 
HETATM    5  C   UNL     1      61.699  10.931   1.823  1.00  0.00     0.087 A 
HETATM    6  C   UNL     1      62.564   8.804   2.565  1.00  0.00     0.010 A 
HETATM    7  C   UNL     1      62.089   9.623   1.536  1.00  0.00     0.018 A 
ENDROOT
BRANCH   3   8
HETATM    8  C   UNL     1      63.123   8.429   5.012  1.00  0.00     0.153 C 
BRANCH   8   9
HETATM    9  C   UNL     1      64.619   8.422   5.140  1.00  0.00     0.176 C 
HETATM   10  O   UNL     1      65.282   7.580   4.553  1.00  0.00    -0.648 OA
HETATM   11  O   UNL     1      65.232   9.378   5.872  1.00  0.00    -0.648 OA
ENDBRANCH   8   9
ENDBRANCH   3   8
TORSDOF 2
ENDMDL
MODEL 2
REMARK VINA RESULT:      -4.3      2.338      2.896
REMARK  2 active torsions:
REMARK  status: ('A' for Active; 'I' for Inactive)
REMARK    1  A    between atoms: C_1  and  C_5 
REMARK    2  A    between atoms: C_5  and  C_7 
ROOT
HETATM    1  N   UNL     1      59.971   8.033   2.549  1.00  0.00    -0.375 N 
ATOM      2  HN  UNL     1      59.082   7.599   2.797  1.00  0.00     0.164 HD
HETATM    3  C   UNL     1      62.048   9.023   3.231  1.00  0.00    -0.033 A 
HETATM    4  C   UNL     1      60.816   8.424   3.539  1.00  0.00     0.095 A 
HETATM    5  C   UNL     1      60.281   8.208   1.236  1.00  0.00     0.087 A 
HETATM    6  C   UNL     1      62.381   9.208   1.879  1.00  0.00     0.010 A 
HETATM    7  C   UNL     1      61.494   8.797   0.879  1.00  0.00     0.018 A 
ENDROOT
BRANCH   3   8
HETATM    8  C   UNL     1      62.999   9.429   4.331  1.00  0.00     0.153 C 
BRANCH   8   9
HETATM    9  C   UNL     1      62.641  10.754   4.942  1.00  0.00     0.176 C 
HETATM   10  O   UNL     1      63.047  11.046   6.057  1.00  0.00    -0.648 OA
HETATM   11  O   UNL     1      61.905  11.639   4.235  1.00  0.00    -0.648 OA
ENDBRANCH   8   9
ENDBRANCH   3   8
TORSDOF 2
ENDMDL
MODEL 3
REMARK VINA RESULT:      -4.2      2.950      4.226
REMARK  2 active torsions:
REMARK  status: ('A' for Active; 'I' for Inactive)
REMARK    1  A    between atoms: C_1  and  C_5 
REMARK    2  A    between atoms: C_5  and  C_7 
ROOT
HETATM    1  N   UNL     1      64.183   7.088   3.275  1.00  0.00    -0.375 N 
ATOM      2  HN  UNL     1      64.375   6.294   2.663  1.00  0.00     0.164 HD
HETATM    3  C   UNL     1      62.793   8.954   3.863  1.00  0.00    -0.033 A 
HETATM    4  C   UNL     1      63.086   7.855   3.038  1.00  0.00     0.095 A 
HETATM    5  C   UNL     1      65.030   7.352   4.305  1.00  0.00     0.087 A 
HETATM    6  C   UNL     1      63.660   9.237   4.931  1.00  0.00     0.010 A 
HETATM    7  C   UNL     1      64.782   8.432   5.153  1.00  0.00     0.018 A 
ENDROOT
BRANCH   3   8
HETATM    8  C   UNL     1      61.559   9.788   3.618  1.00  0.00     0.153 C 
BRANCH   8   9
HETATM    9  C   UNL     1      61.886  11.211   3.264  1.00  0.00     0.176 C 
HETATM   10  O   UNL     1      61.966  12.060   4.140  1.00  0.00    -0.648 OA
HETATM   11  O   UNL     1      62.135  11.539   1.977  1.00  0.00    -0.648 OA
ENDBRANCH   8   9
ENDBRANCH   3   8
TORSDOF 2
ENDMDL
MODEL 4
REMARK VINA RESULT:      -4.2      0.974      1.840
REMARK  2 active torsions:
REMARK  status: ('A' for Active; 'I' for Inactive)
REMARK    1  A    between atoms: C_1  and  C_5 
REMARK    2  A    between atoms: C_5  and  C_7 
ROOT
HETATM    1  N   UNL     1      62.296   9.217   1.621  1.00  0.00    -0.375 N 
ATOM      2  HN  UNL     1      62.287   8.772   0.703  1.00  0.00     0.164 HD
HETATM    3  C   UNL     1      62.793   9.107   3.967  1.00  0.00    -0.033 A 
HETATM    4  C   UNL     1      62.766   8.521   2.690  1.00  0.00     0.095 A 
HETATM    5  C   UNL     1      61.837  10.491   1.745  1.00  0.00     0.087 A 
HETATM    6  C   UNL     1      62.322  10.422   4.108  1.00  0.00     0.010 A 
HETATM    7  C   UNL     1      61.844  11.117   2.992  1.00  0.00     0.018 A 
ENDROOT
BRANCH   3   8
HETATM    8  C   UNL     1      63.342   8.344   5.148  1.00  0.00     0.153 C 
BRANCH   8   9
HETATM    9  C   UNL     1      64.826   8.513   5.304  1.00  0.00     0.176 C 
HETATM   10  O   UNL     1      65.276   9.489   5.887  1.00  0.00    -0.648 OA
HETATM   11  O   UNL     1      65.661   7.559   4.835  1.00  0.00    -0.648 OA
ENDBRANCH   8   9
ENDBRANCH   3   8
TORSDOF 2
ENDMDL
MODEL 5
REMARK VINA RESULT:      -4.1      1.797      2.379
REMARK  2 active torsions:
REMARK  status: ('A' for Active; 'I' for Inactive)
REMARK    1  A    between atoms: C_1  and  C_5 
REMARK    2  A    between atoms: C_5  and  C_7 
ROOT
HETATM    1  N   UNL     1      62.111   9.736   2.550  1.00  0.00    -0.375 N 
ATOM      2  HN  UNL     1      61.750   9.686   1.598  1.00  0.00     0.164 HD
HETATM    3  C   UNL     1      63.276   8.701   4.375  1.00  0.00    -0.033 A 
HETATM    4  C   UNL     1      62.766   8.663   3.067  1.00  0.00     0.095 A 
HETATM    5  C   UNL     1      61.926  10.874   3.272  1.00  0.00     0.087 A 
HETATM    6  C   UNL     1      63.092   9.870   5.130  1.00  0.00     0.010 A 
HETATM    7  C   UNL     1      62.415  10.961   4.575  1.00  0.00     0.018 A 
ENDROOT
BRANCH   3   8
HETATM    8  C   UNL     1      64.029   7.519   4.938  1.00  0.00     0.153 C 
BRANCH   8   9
HETATM    9  C   UNL     1      63.610   7.184   6.341  1.00  0.00     0.176 C 
HETATM   10  O   UNL     1      62.444   6.913   6.587  1.00  0.00    -0.648 OA
HETATM   11  O   UNL     1      64.538   7.141   7.323  1.00  0.00    -0.648 OA
ENDBRANCH   8   9
ENDBRANCH   3   8
TORSDOF 2
ENDMDL
MODEL 6
REMARK VINA RESULT:      -4.0      2.995      4.484
REMARK  2 active torsions:
REMARK  status: ('A' for Active; 'I' for Inactive)
REMARK    1  A    between atoms: C_1  and  C_5 
REMARK    2  A    between atoms: C_5  and  C_7 
ROOT
HETATM    1  N   UNL     1      63.929   6.751   6.657  1.00  0.00    -0.375 N 
ATOM      2  HN  UNL     1      63.540   6.025   7.259  1.00  0.00     0.164 HD
HETATM    3  C   UNL     1      63.589   8.557   5.113  1.00  0.00    -0.033 A 
HETATM    4  C   UNL     1      63.084   7.547   5.949  1.00  0.00     0.095 A 
HETATM    5  C   UNL     1      65.279   6.899   6.583  1.00  0.00     0.087 A 
HETATM    6  C   UNL     1      64.981   8.720   5.028  1.00  0.00     0.010 A 
HETATM    7  C   UNL     1      65.828   7.889   5.767  1.00  0.00     0.018 A 
ENDROOT
BRANCH   3   8
HETATM    8  C   UNL     1      62.649   9.459   4.350  1.00  0.00     0.153 C 
BRANCH   8   9
HETATM    9  C   UNL     1      62.596  10.849   4.917  1.00  0.00     0.176 C 
HETATM   10  O   UNL     1      62.149  11.769   4.248  1.00  0.00    -0.648 OA
HETATM   11  O   UNL     1      63.005  11.069   6.186  1.00  0.00    -0.648 OA
ENDBRANCH   8   9
ENDBRANCH   3   8
TORSDOF 2
ENDMDL
MODEL 7
REMARK VINA RESULT:      -3.9      3.352      4.402
REMARK  2 active torsions:
REMARK  status: ('A' for Active; 'I' for Inactive)
REMARK    1  A    between atoms: C_1  and  C_5 
REMARK    2  A    between atoms: C_5  and  C_7 
ROOT
HETATM    1  N   UNL     1      62.613   9.366   4.243  1.00  0.00    -0.375 N 
ATOM      2  HN  UNL     1      62.904   8.856   5.076  1.00  0.00     0.164 HD
HETATM    3  C   UNL     1      62.162   9.388   1.886  1.00  0.00    -0.033 A 
HETATM    4  C   UNL     1      62.560   8.714   3.052  1.00  0.00     0.095 A 
HETATM    5  C   UNL     1      62.288  10.683   4.350  1.00  0.00     0.087 A 
HETATM    6  C   UNL     1      61.823  10.748   1.983  1.00  0.00     0.010 A 
HETATM    7  C   UNL     1      61.886  11.396   3.221  1.00  0.00     0.018 A 
ENDROOT
BRANCH   3   8
HETATM    8  C   UNL     1      62.075   8.656   0.569  1.00  0.00     0.153 C 
BRANCH   8   9
HETATM    9  C   UNL     1      60.869   7.765   0.483  1.00  0.00     0.176 C 
HETATM   10  O   UNL     1      59.752   8.250   0.386  1.00  0.00    -0.648 OA
HETATM   11  O   UNL     1      61.029   6.423   0.468  1.00  0.00    -0.648 OA
ENDBRANCH   8   9
ENDBRANCH   3   8
TORSDOF 2
ENDMDL
MODEL 8
REMARK VINA RESULT:      -3.8      5.087      7.184
REMARK  2 active torsions:
REMARK  status: ('A' for Active; 'I' for Inactive)
REMARK    1  A    between atoms: C_1  and  C_5 
REMARK    2  A    between atoms: C_5  and  C_7 
ROOT
HETATM    1  N   UNL     1      66.826   3.859   8.290  1.00  0.00    -0.375 N 
ATOM      2  HN  UNL     1      66.720   2.844   8.285  1.00  0.00     0.164 HD
HETATM    3  C   UNL     1      66.059   6.020   7.584  1.00  0.00    -0.033 A 
HETATM    4  C   UNL     1      65.941   4.620   7.594  1.00  0.00     0.095 A 
HETATM    5  C   UNL     1      67.848   4.415   8.994  1.00  0.00     0.087 A 
HETATM    6  C   UNL     1      67.110   6.607   8.307  1.00  0.00     0.010 A 
HETATM    7  C   UNL     1      68.006   5.801   9.015  1.00  0.00     0.018 A 
ENDROOT
BRANCH   3   8
HETATM    8  C   UNL     1      65.059   6.867   6.834  1.00  0.00     0.153 C 
BRANCH   8   9
HETATM    9  C   UNL     1      65.715   7.826   5.882  1.00  0.00     0.176 C 
HETATM   10  O   UNL     1      66.318   7.406   4.905  1.00  0.00    -0.648 OA
HETATM   11  O   UNL     1      65.597   9.156   6.086  1.00  0.00    -0.648 OA
ENDBRANCH   8   9
ENDBRANCH   3   8
TORSDOF 2
ENDMDL
MODEL 9
REMARK VINA RESULT:      -3.7      2.753      3.352
REMARK  2 active torsions:
REMARK  status: ('A' for Active; 'I' for Inactive)
REMARK    1  A    between atoms: C_1  and  C_5 
REMARK    2  A    between atoms: C_5  and  C_7 
ROOT
HETATM    1  N   UNL     1      59.913   8.469   1.007  1.00  0.00    -0.375 N 
ATOM      2  HN  UNL     1      59.678   8.693   0.040  1.00  0.00     0.164 HD
HETATM    3  C   UNL     1      61.424   8.652   2.862  1.00  0.00    -0.033 A 
HETATM    4  C   UNL     1      61.074   8.940   1.533  1.00  0.00     0.095 A 
HETATM    5  C   UNL     1      59.055   7.708   1.739  1.00  0.00     0.087 A 
HETATM    6  C   UNL     1      60.547   7.866   3.628  1.00  0.00     0.010 A 
HETATM    7  C   UNL     1      59.358   7.394   3.064  1.00  0.00     0.018 A 
ENDROOT
BRANCH   3   8
HETATM    8  C   UNL     1      62.700   9.199   3.455  1.00  0.00     0.153 C 
BRANCH   8   9
HETATM    9  C   UNL     1      62.450  10.300   4.446  1.00  0.00     0.176 C 
HETATM   10  O   UNL     1      61.750  11.254   4.140  1.00  0.00    -0.648 OA
HETATM   11  O   UNL     1      62.966  10.208   5.691  1.00  0.00    -0.648 OA
ENDBRANCH   8   9
ENDBRANCH   3   8
TORSDOF 2
ENDMDL
