MODEL 1
REMARK VINA RESULT:      -5.2      0.000      0.000
REMARK  3 active torsions:
REMARK  status: ('A' for Active; 'I' for Inactive)
REMARK    1  A    between atoms: N_1  and  C_2 
REMARK    2  A    between atoms: C_2  and  C_5 
REMARK    3  A    between atoms: C_6  and  O_7 
ROOT
HETATM    1  N   UNL     1      65.338   7.697   6.065  1.00  0.00    -0.065 N 
HETATM    2  C   UNL     1      66.767   8.103   6.128  1.00  0.00     0.266 C 
HETATM    3  C   UNL     1      65.060   6.560   6.974  1.00  0.00     0.235 C 
HETATM    4  C   UNL     1      67.746   6.931   5.878  1.00  0.00     0.144 C 
HETATM    5  C   UNL     1      65.969   5.358   6.705  1.00  0.00     0.030 C 
HETATM    6  C   UNL     1      67.425   5.792   6.865  1.00  0.00     0.035 C 
HETATM    7  H   UNL     1      64.783   8.470   6.431  1.00  0.00     0.280 HD
ENDROOT
BRANCH   1   8
HETATM    8  C   UNL     1      64.806   7.571   4.682  1.00  0.00     0.273 C 
BRANCH   8   9
HETATM    9  C   UNL     1      63.761   8.622   4.405  1.00  0.00    -0.033 A 
HETATM   10  C   UNL     1      62.992   8.554   3.231  1.00  0.00     0.009 A 
HETATM   11  C   UNL     1      62.083   9.571   2.929  1.00  0.00     0.001 A 
HETATM   12  C   UNL     1      61.919  10.649   3.801  1.00  0.00     0.000 A 
HETATM   13  C   UNL     1      62.671  10.714   4.979  1.00  0.00     0.001 A 
HETATM   14  C   UNL     1      63.585   9.703   5.284  1.00  0.00     0.009 A 
ENDBRANCH   8   9
ENDBRANCH   1   8
BRANCH   4  15
HETATM   15  O   UNL     1      67.656   6.505   4.540  1.00  0.00    -0.394 OA
HETATM   16  H   UNL     1      66.735   6.563   4.244  1.00  0.00     0.210 HD
ENDBRANCH   4  15
TORSDOF 3
ENDMDL
MODEL 2
REMARK VINA RESULT:      -5.0      1.335      1.712
REMARK  3 active torsions:
REMARK  status: ('A' for Active; 'I' for Inactive)
REMARK    1  A    between atoms: N_1  and  C_2 
REMARK    2  A    between atoms: C_2  and  C_5 
REMARK    3  A    between atoms: C_6  and  O_7 
ROOT
HETATM    1  N   UNL     1      65.213   6.975   5.656  1.00  0.00    -0.065 N 
HETATM    2  C   UNL     1      65.186   6.611   7.097  1.00  0.00     0.266 C 
HETATM    3  C   UNL     1      66.219   6.176   4.918  1.00  0.00     0.235 C 
HETATM    4  C   UNL     1      66.575   6.692   7.774  1.00  0.00     0.144 C 
HETATM    5  C   UNL     1      67.620   6.291   5.524  1.00  0.00     0.030 C 
HETATM    6  C   UNL     1      67.570   5.826   6.978  1.00  0.00     0.035 C 
HETATM    7  H   UNL     1      64.316   6.706   5.254  1.00  0.00     0.280 HD
ENDROOT
BRANCH   1   8
HETATM    8  C   UNL     1      65.231   8.441   5.403  1.00  0.00     0.273 C 
BRANCH   8   9
HETATM    9  C   UNL     1      63.973   8.885   4.703  1.00  0.00    -0.033 A 
HETATM   10  C   UNL     1      63.467   8.136   3.626  1.00  0.00     0.009 A 
HETATM   11  C   UNL     1      62.351   8.589   2.920  1.00  0.00     0.001 A 
HETATM   12  C   UNL     1      61.719   9.777   3.292  1.00  0.00     0.000 A 
HETATM   13  C   UNL     1      62.208  10.520   4.372  1.00  0.00     0.001 A 
HETATM   14  C   UNL     1      63.327  10.074   5.079  1.00  0.00     0.009 A 
ENDBRANCH   8   9
ENDBRANCH   1   8
BRANCH   4  15
HETATM   15  O   UNL     1      66.995   8.032   7.852  1.00  0.00    -0.394 OA
HETATM   16  H   UNL     1      66.591   8.540   7.132  1.00  0.00     0.210 HD
ENDBRANCH   4  15
TORSDOF 3
ENDMDL
MODEL 3
REMARK VINA RESULT:      -4.9      1.824      2.892
REMARK  3 active torsions:
REMARK  status: ('A' for Active; 'I' for Inactive)
REMARK    1  A    between atoms: N_1  and  C_2 
REMARK    2  A    between atoms: C_2  and  C_5 
REMARK    3  A    between atoms: C_6  and  O_7 
ROOT
HETATM    1  N   UNL     1      63.783   7.099   4.376  1.00  0.00    -0.065 N 
HETATM    2  C   UNL     1      63.994   5.925   5.263  1.00  0.00     0.266 C 
HETATM    3  C   UNL     1      65.065   7.772   4.058  1.00  0.00     0.235 C 
HETATM    4  C   UNL     1      64.784   6.265   6.549  1.00  0.00     0.144 C 
HETATM    5  C   UNL     1      65.839   8.182   5.314  1.00  0.00     0.030 C 
HETATM    6  C   UNL     1      66.113   6.938   6.156  1.00  0.00     0.035 C 
HETATM    7  H   UNL     1      63.438   6.751   3.482  1.00  0.00     0.280 HD
ENDROOT
BRANCH   1   8
HETATM    8  C   UNL     1      62.669   7.988   4.804  1.00  0.00     0.273 C 
BRANCH   8   9
HETATM    9  C   UNL     1      62.420   9.072   3.788  1.00  0.00    -0.033 A 
HETATM   10  C   UNL     1      62.238  10.401   4.210  1.00  0.00     0.009 A 
HETATM   11  C   UNL     1      61.922  11.394   3.280  1.00  0.00     0.001 A 
HETATM   12  C   UNL     1      61.806  11.078   1.926  1.00  0.00     0.000 A 
HETATM   13  C   UNL     1      62.000   9.760   1.497  1.00  0.00     0.001 A 
HETATM   14  C   UNL     1      62.311   8.761   2.423  1.00  0.00     0.009 A 
ENDBRANCH   8   9
ENDBRANCH   1   8
BRANCH   4  15
HETATM   15  O   UNL     1      64.010   7.088   7.387  1.00  0.00    -0.394 OA
HETATM   16  H   UNL     1      64.553   7.823   7.710  1.00  0.00     0.210 HD
ENDBRANCH   4  15
TORSDOF 3
ENDMDL
MODEL 4
REMARK VINA RESULT:      -4.3      1.808      2.455
REMARK  3 active torsions:
REMARK  status: ('A' for Active; 'I' for Inactive)
REMARK    1  A    between atoms: N_1  and  C_2 
REMARK    2  A    between atoms: C_2  and  C_5 
REMARK    3  A    between atoms: C_6  and  O_7 
ROOT
HETATM    1  N   UNL     1      64.523   6.847   5.609  1.00  0.00    -0.065 N 
HETATM    2  C   UNL     1      65.229   6.799   6.916  1.00  0.00     0.266 C 
HETATM    3  C   UNL     1      65.352   6.267   4.527  1.00  0.00     0.235 C 
HETATM    4  C   UNL     1      66.634   7.447   6.875  1.00  0.00     0.144 C 
HETATM    5  C   UNL     1      66.725   6.934   4.417  1.00  0.00     0.030 C 
HETATM    6  C   UNL     1      67.455   6.788   5.751  1.00  0.00     0.035 C 
HETATM    7  H   UNL     1      63.710   6.236   5.676  1.00  0.00     0.280 HD
ENDROOT
BRANCH   1   8
HETATM    8  C   UNL     1      63.889   8.160   5.312  1.00  0.00     0.273 C 
BRANCH   8   9
HETATM    9  C   UNL     1      62.667   7.989   4.447  1.00  0.00    -0.033 A 
HETATM   10  C   UNL     1      62.454   8.850   3.356  1.00  0.00     0.009 A 
HETATM   11  C   UNL     1      61.281   8.750   2.604  1.00  0.00     0.001 A 
HETATM   12  C   UNL     1      60.325   7.783   2.918  1.00  0.00     0.000 A 
HETATM   13  C   UNL     1      60.538   6.914   3.994  1.00  0.00     0.001 A 
HETATM   14  C   UNL     1      61.706   7.012   4.753  1.00  0.00     0.009 A 
ENDBRANCH   8   9
ENDBRANCH   1   8
BRANCH   4  15
HETATM   15  O   UNL     1      66.519   8.837   6.693  1.00  0.00    -0.394 OA
HETATM   16  H   UNL     1      67.243   9.150   6.130  1.00  0.00     0.210 HD
ENDBRANCH   4  15
TORSDOF 3
ENDMDL
MODEL 5
REMARK VINA RESULT:      -4.3      4.217      6.667
REMARK  3 active torsions:
REMARK  status: ('A' for Active; 'I' for Inactive)
REMARK    1  A    between atoms: N_1  and  C_2 
REMARK    2  A    between atoms: C_2  and  C_5 
REMARK    3  A    between atoms: C_6  and  O_7 
ROOT
HETATM    1  N   UNL     1      60.341   6.939   2.830  1.00  0.00    -0.065 N 
HETATM    2  C   UNL     1      59.583   6.479   1.637  1.00  0.00     0.266 C 
HETATM    3  C   UNL     1      59.516   6.855   4.058  1.00  0.00     0.235 C 
HETATM    4  C   UNL     1      58.230   7.206   1.455  1.00  0.00     0.144 C 
HETATM    5  C   UNL     1      58.198   7.623   3.932  1.00  0.00     0.030 C 
HETATM    6  C   UNL     1      57.408   7.064   2.751  1.00  0.00     0.035 C 
HETATM    7  H   UNL     1      61.106   6.283   2.980  1.00  0.00     0.280 HD
ENDROOT
BRANCH   1   8
HETATM    8  C   UNL     1      61.075   8.217   2.624  1.00  0.00     0.273 C 
BRANCH   8   9
HETATM    9  C   UNL     1      62.315   8.273   3.479  1.00  0.00    -0.033 A 
HETATM   10  C   UNL     1      62.513   9.354   4.356  1.00  0.00     0.009 A 
HETATM   11  C   UNL     1      63.699   9.454   5.087  1.00  0.00     0.001 A 
HETATM   12  C   UNL     1      64.685   8.472   4.966  1.00  0.00     0.000 A 
HETATM   13  C   UNL     1      64.487   7.387   4.105  1.00  0.00     0.001 A 
HETATM   14  C   UNL     1      63.305   7.284   3.368  1.00  0.00     0.009 A 
ENDBRANCH   8   9
ENDBRANCH   1   8
BRANCH   4  15
HETATM   15  O   UNL     1      58.448   8.555   1.120  1.00  0.00    -0.394 OA
HETATM   16  H   UNL     1      59.140   8.922   1.691  1.00  0.00     0.210 HD
ENDBRANCH   4  15
TORSDOF 3
ENDMDL
MODEL 6
REMARK VINA RESULT:      -4.3      1.785      2.678
REMARK  3 active torsions:
REMARK  status: ('A' for Active; 'I' for Inactive)
REMARK    1  A    between atoms: N_1  and  C_2 
REMARK    2  A    between atoms: C_2  and  C_5 
REMARK    3  A    between atoms: C_6  and  O_7 
ROOT
HETATM    1  N   UNL     1      65.969   6.639   6.345  1.00  0.00    -0.065 N 
HETATM    2  C   UNL     1      66.515   5.272   6.136  1.00  0.00     0.266 C 
HETATM    3  C   UNL     1      66.670   7.335   7.449  1.00  0.00     0.235 C 
HETATM    4  C   UNL     1      66.526   4.415   7.423  1.00  0.00     0.144 C 
HETATM    5  C   UNL     1      66.639   6.541   8.757  1.00  0.00     0.030 C 
HETATM    6  C   UNL     1      67.287   5.178   8.525  1.00  0.00     0.035 C 
HETATM    7  H   UNL     1      66.181   7.186   5.511  1.00  0.00     0.280 HD
ENDROOT
BRANCH   1   8
HETATM    8  C   UNL     1      64.483   6.699   6.376  1.00  0.00     0.273 C 
BRANCH   8   9
HETATM    9  C   UNL     1      63.943   7.383   5.148  1.00  0.00    -0.033 A 
HETATM   10  C   UNL     1      63.423   8.686   5.242  1.00  0.00     0.009 A 
HETATM   11  C   UNL     1      62.843   9.292   4.125  1.00  0.00     0.001 A 
HETATM   12  C   UNL     1      62.795   8.616   2.905  1.00  0.00     0.000 A 
HETATM   13  C   UNL     1      63.323   7.324   2.800  1.00  0.00     0.001 A 
HETATM   14  C   UNL     1      63.900   6.712   3.915  1.00  0.00     0.009 A 
ENDBRANCH   8   9
ENDBRANCH   1   8
BRANCH   4  15
HETATM   15  O   UNL     1      65.208   4.112   7.812  1.00  0.00    -0.394 OA
HETATM   16  H   UNL     1      65.039   4.479   8.693  1.00  0.00     0.210 HD
ENDBRANCH   4  15
TORSDOF 3
ENDMDL
MODEL 7
REMARK VINA RESULT:      -4.2      1.970      2.321
REMARK  3 active torsions:
REMARK  status: ('A' for Active; 'I' for Inactive)
REMARK    1  A    between atoms: N_1  and  C_2 
REMARK    2  A    between atoms: C_2  and  C_5 
REMARK    3  A    between atoms: C_6  and  O_7 
ROOT
HETATM    1  N   UNL     1      63.357   6.310   4.492  1.00  0.00    -0.065 N 
HETATM    2  C   UNL     1      63.080   6.723   5.893  1.00  0.00     0.266 C 
HETATM    3  C   UNL     1      63.918   4.941   4.435  1.00  0.00     0.235 C 
HETATM    4  C   UNL     1      64.306   6.579   6.826  1.00  0.00     0.144 C 
HETATM    5  C   UNL     1      65.174   4.785   5.296  1.00  0.00     0.030 C 
HETATM    6  C   UNL     1      64.829   5.132   6.742  1.00  0.00     0.035 C 
HETATM    7  H   UNL     1      62.463   6.250   4.007  1.00  0.00     0.280 HD
ENDROOT
BRANCH   1   8
HETATM    8  C   UNL     1      64.068   7.341   3.688  1.00  0.00     0.273 C 
BRANCH   8   9
HETATM    9  C   UNL     1      63.191   8.544   3.452  1.00  0.00    -0.033 A 
HETATM   10  C   UNL     1      62.566   8.723   2.205  1.00  0.00     0.009 A 
HETATM   11  C   UNL     1      61.823   9.878   1.954  1.00  0.00     0.001 A 
HETATM   12  C   UNL     1      61.680  10.851   2.945  1.00  0.00     0.000 A 
HETATM   13  C   UNL     1      62.287  10.672   4.193  1.00  0.00     0.001 A 
HETATM   14  C   UNL     1      63.036   9.521   4.448  1.00  0.00     0.009 A 
ENDBRANCH   8   9
ENDBRANCH   1   8
BRANCH   4  15
HETATM   15  O   UNL     1      65.295   7.514   6.470  1.00  0.00    -0.394 OA
HETATM   16  H   UNL     1      65.243   7.693   5.519  1.00  0.00     0.210 HD
ENDBRANCH   4  15
TORSDOF 3
ENDMDL
MODEL 8
REMARK VINA RESULT:      -4.1      2.655      5.636
REMARK  3 active torsions:
REMARK  status: ('A' for Active; 'I' for Inactive)
REMARK    1  A    between atoms: N_1  and  C_2 
REMARK    2  A    between atoms: C_2  and  C_5 
REMARK    3  A    between atoms: C_6  and  O_7 
ROOT
HETATM    1  N   UNL     1      63.096   7.581   3.324  1.00  0.00    -0.065 N 
HETATM    2  C   UNL     1      62.471   8.419   2.268  1.00  0.00     0.266 C 
HETATM    3  C   UNL     1      62.176   6.513   3.779  1.00  0.00     0.235 C 
HETATM    4  C   UNL     1      61.098   9.000   2.682  1.00  0.00     0.144 C 
HETATM    5  C   UNL     1      60.831   7.063   4.260  1.00  0.00     0.030 C 
HETATM    6  C   UNL     1      60.179   7.844   3.121  1.00  0.00     0.035 C 
HETATM    7  H   UNL     1      63.883   7.090   2.901  1.00  0.00     0.280 HD
ENDROOT
BRANCH   1   8
HETATM    8  C   UNL     1      63.770   8.362   4.396  1.00  0.00     0.273 C 
BRANCH   8   9
HETATM    9  C   UNL     1      65.111   7.766   4.740  1.00  0.00    -0.033 A 
HETATM   10  C   UNL     1      65.824   8.240   5.855  1.00  0.00     0.009 A 
HETATM   11  C   UNL     1      67.103   7.751   6.128  1.00  0.00     0.001 A 
HETATM   12  C   UNL     1      67.673   6.776   5.307  1.00  0.00     0.000 A 
HETATM   13  C   UNL     1      66.962   6.290   4.203  1.00  0.00     0.001 A 
HETATM   14  C   UNL     1      65.684   6.779   3.923  1.00  0.00     0.009 A 
ENDBRANCH   8   9
ENDBRANCH   1   8
BRANCH   4  15
HETATM   15  O   UNL     1      61.265   9.952   3.704  1.00  0.00    -0.394 OA
HETATM   16  H   UNL     1      61.075   9.542   4.562  1.00  0.00     0.210 HD
ENDBRANCH   4  15
TORSDOF 3
ENDMDL
MODEL 9
REMARK VINA RESULT:      -4.1     12.236     14.251
REMARK  3 active torsions:
REMARK  status: ('A' for Active; 'I' for Inactive)
REMARK    1  A    between atoms: N_1  and  C_2 
REMARK    2  A    between atoms: C_2  and  C_5 
REMARK    3  A    between atoms: C_6  and  O_7 
ROOT
HETATM    1  N   UNL     1      56.541   1.523  12.783  1.00  0.00    -0.065 N 
HETATM    2  C   UNL     1      55.903   2.861  12.668  1.00  0.00     0.266 C 
HETATM    3  C   UNL     1      55.534   0.438  12.716  1.00  0.00     0.235 C 
HETATM    4  C   UNL     1      54.766   3.085  13.692  1.00  0.00     0.144 C 
HETATM    5  C   UNL     1      54.430   0.596  13.765  1.00  0.00     0.030 C 
HETATM    6  C   UNL     1      53.741   1.943  13.559  1.00  0.00     0.035 C 
HETATM    7  H   UNL     1      57.128   1.390  11.961  1.00  0.00     0.280 HD
ENDROOT
BRANCH   1   8
HETATM    8  C   UNL     1      57.537   1.421  13.884  1.00  0.00     0.273 C 
BRANCH   8   9
HETATM    9  C   UNL     1      58.667   0.498  13.508  1.00  0.00    -0.033 A 
HETATM   10  C   UNL     1      58.659  -0.837  13.949  1.00  0.00     0.009 A 
HETATM   11  C   UNL     1      59.745  -1.672  13.675  1.00  0.00     0.001 A 
HETATM   12  C   UNL     1      60.834  -1.192  12.947  1.00  0.00     0.000 A 
HETATM   13  C   UNL     1      60.842   0.132  12.493  1.00  0.00     0.001 A 
HETATM   14  C   UNL     1      59.762   0.972  12.768  1.00  0.00     0.009 A 
ENDBRANCH   8   9
ENDBRANCH   1   8
BRANCH   4  15
HETATM   15  O   UNL     1      55.297   3.162  14.993  1.00  0.00    -0.394 OA
HETATM   16  H   UNL     1      55.469   4.089  15.217  1.00  0.00     0.210 HD
ENDBRANCH   4  15
TORSDOF 3
ENDMDL
