MODEL 1
REMARK VINA RESULT:      -4.7      0.000      0.000
REMARK  2 active torsions:
REMARK  status: ('A' for Active; 'I' for Inactive)
REMARK    1  A    between atoms: C_4  and  C_7 
REMARK    2  A    between atoms: N_5  and  C_7 
ROOT
HETATM    1  C   UNL     1      62.100  11.233   3.532  1.00  0.00     0.051 A 
HETATM    2  C   UNL     1      61.788  11.236   2.176  1.00  0.00     0.117 A 
HETATM    3  F   UNL     1      61.363  12.370   1.602  1.00  0.00    -0.206 F 
HETATM    4  C   UNL     1      62.546  10.054   4.144  1.00  0.00    -0.030 A 
HETATM    5  C   UNL     1      62.352   8.907   2.002  1.00  0.00     0.004 A 
HETATM    6  C   UNL     1      61.909  10.086   1.406  1.00  0.00     0.042 A 
HETATM    7  C   UNL     1      62.670   8.893   3.363  1.00  0.00     0.009 A 
ENDROOT
BRANCH   4   8
HETATM    8  C   UNL     1      62.891  10.027   5.609  1.00  0.00     0.268 C 
BRANCH   8   9
HETATM    9  N   UNL     1      63.494  11.285   6.035  1.00  0.00    -0.075 N 
HETATM   10  H   UNL     1      64.477  11.298   5.766  1.00  0.00     0.274 HD
HETATM   11  H   UNL     1      63.417  11.373   7.048  1.00  0.00     0.274 HD
HETATM   12  H   UNL     1      63.009  12.062   5.587  1.00  0.00     0.274 HD
ENDBRANCH   8   9
ENDBRANCH   4   8
TORSDOF 2
ENDMDL
MODEL 2
REMARK VINA RESULT:      -4.4      1.639      2.251
REMARK  2 active torsions:
REMARK  status: ('A' for Active; 'I' for Inactive)
REMARK    1  A    between atoms: C_4  and  C_7 
REMARK    2  A    between atoms: N_5  and  C_7 
ROOT
HETATM    1  C   UNL     1      62.566   8.836   2.770  1.00  0.00     0.051 A 
HETATM    2  C   UNL     1      62.161   9.641   1.710  1.00  0.00     0.117 A 
HETATM    3  F   UNL     1      62.112   9.124   0.474  1.00  0.00    -0.206 F 
HETATM    4  C   UNL     1      62.622   9.364   4.066  1.00  0.00    -0.030 A 
HETATM    5  C   UNL     1      61.859  11.508   3.193  1.00  0.00     0.004 A 
HETATM    6  C   UNL     1      61.808  10.970   1.908  1.00  0.00     0.042 A 
HETATM    7  C   UNL     1      62.262  10.708   4.265  1.00  0.00     0.009 A 
ENDROOT
BRANCH   4   8
HETATM    8  C   UNL     1      63.055   8.511   5.230  1.00  0.00     0.268 C 
BRANCH   8   9
HETATM    9  N   UNL     1      64.421   8.821   5.634  1.00  0.00    -0.075 N 
HETATM   10  H   UNL     1      65.073   8.257   5.088  1.00  0.00     0.274 HD
HETATM   11  H   UNL     1      64.538   8.610   6.626  1.00  0.00     0.274 HD
HETATM   12  H   UNL     1      64.608   9.809   5.472  1.00  0.00     0.274 HD
ENDBRANCH   8   9
ENDBRANCH   4   8
TORSDOF 2
ENDMDL
MODEL 3
REMARK VINA RESULT:      -4.3      1.477      1.843
REMARK  2 active torsions:
REMARK  status: ('A' for Active; 'I' for Inactive)
REMARK    1  A    between atoms: C_4  and  C_7 
REMARK    2  A    between atoms: N_5  and  C_7 
ROOT
HETATM    1  C   UNL     1      62.274  10.188   4.318  1.00  0.00     0.051 A 
HETATM    2  C   UNL     1      61.990  11.256   3.473  1.00  0.00     0.117 A 
HETATM    3  F   UNL     1      61.860  12.486   3.989  1.00  0.00    -0.206 F 
HETATM    4  C   UNL     1      62.411   8.897   3.791  1.00  0.00    -0.030 A 
HETATM    5  C   UNL     1      61.972   9.792   1.567  1.00  0.00     0.004 A 
HETATM    6  C   UNL     1      61.837  11.071   2.104  1.00  0.00     0.042 A 
HETATM    7  C   UNL     1      62.259   8.713   2.406  1.00  0.00     0.009 A 
ENDROOT
BRANCH   4   8
HETATM    8  C   UNL     1      62.720   7.726   4.686  1.00  0.00     0.268 C 
BRANCH   8   9
HETATM    9  N   UNL     1      63.198   8.168   5.991  1.00  0.00    -0.075 N 
HETATM   10  H   UNL     1      62.441   8.099   6.671  1.00  0.00     0.274 HD
HETATM   11  H   UNL     1      63.510   9.138   5.928  1.00  0.00     0.274 HD
HETATM   12  H   UNL     1      63.975   7.578   6.286  1.00  0.00     0.274 HD
ENDBRANCH   8   9
ENDBRANCH   4   8
TORSDOF 2
ENDMDL
MODEL 4
REMARK VINA RESULT:      -4.3      1.697      2.334
REMARK  2 active torsions:
REMARK  status: ('A' for Active; 'I' for Inactive)
REMARK    1  A    between atoms: C_4  and  C_7 
REMARK    2  A    between atoms: N_5  and  C_7 
ROOT
HETATM    1  C   UNL     1      62.829   8.711   3.362  1.00  0.00     0.051 A 
HETATM    2  C   UNL     1      62.493   8.655   2.012  1.00  0.00     0.117 A 
HETATM    3  F   UNL     1      62.700   7.520   1.331  1.00  0.00    -0.206 F 
HETATM    4  C   UNL     1      62.618   9.892   4.086  1.00  0.00    -0.030 A 
HETATM    5  C   UNL     1      61.734  10.934   2.068  1.00  0.00     0.004 A 
HETATM    6  C   UNL     1      61.949   9.754   1.360  1.00  0.00     0.042 A 
HETATM    7  C   UNL     1      62.065  11.001   3.424  1.00  0.00     0.009 A 
ENDROOT
BRANCH   4   8
HETATM    8  C   UNL     1      62.972   9.975   5.547  1.00  0.00     0.268 C 
BRANCH   8   9
HETATM    9  N   UNL     1      63.271  11.346   5.943  1.00  0.00    -0.075 N 
HETATM   10  H   UNL     1      63.236  11.422   6.960  1.00  0.00     0.274 HD
HETATM   11  H   UNL     1      62.582  11.977   5.531  1.00  0.00     0.274 HD
HETATM   12  H   UNL     1      64.202  11.599   5.615  1.00  0.00     0.274 HD
ENDBRANCH   8   9
ENDBRANCH   4   8
TORSDOF 2
ENDMDL
MODEL 5
REMARK VINA RESULT:      -4.2      2.523      3.429
REMARK  2 active torsions:
REMARK  status: ('A' for Active; 'I' for Inactive)
REMARK    1  A    between atoms: C_4  and  C_7 
REMARK    2  A    between atoms: N_5  and  C_7 
ROOT
HETATM    1  C   UNL     1      61.912  10.750   3.148  1.00  0.00     0.051 A 
HETATM    2  C   UNL     1      62.357  11.050   4.432  1.00  0.00     0.117 A 
HETATM    3  F   UNL     1      62.132  12.271   4.937  1.00  0.00    -0.206 F 
HETATM    4  C   UNL     1      62.143   9.477   2.609  1.00  0.00    -0.030 A 
HETATM    5  C   UNL     1      63.265   8.838   4.676  1.00  0.00     0.004 A 
HETATM    6  C   UNL     1      63.030  10.107   5.200  1.00  0.00     0.042 A 
HETATM    7  C   UNL     1      62.821   8.525   3.388  1.00  0.00     0.009 A 
ENDROOT
BRANCH   4   8
HETATM    8  C   UNL     1      61.669   9.129   1.222  1.00  0.00     0.268 C 
BRANCH   8   9
HETATM    9  N   UNL     1      60.265   8.733   1.225  1.00  0.00    -0.075 N 
HETATM   10  H   UNL     1      59.879   8.843   0.288  1.00  0.00     0.274 HD
HETATM   11  H   UNL     1      59.747   9.324   1.877  1.00  0.00     0.274 HD
HETATM   12  H   UNL     1      60.188   7.759   1.513  1.00  0.00     0.274 HD
ENDBRANCH   8   9
ENDBRANCH   4   8
TORSDOF 2
ENDMDL
MODEL 6
REMARK VINA RESULT:      -4.0      2.421      2.974
REMARK  2 active torsions:
REMARK  status: ('A' for Active; 'I' for Inactive)
REMARK    1  A    between atoms: C_4  and  C_7 
REMARK    2  A    between atoms: N_5  and  C_7 
ROOT
HETATM    1  C   UNL     1      63.521   9.061   4.728  1.00  0.00     0.051 A 
HETATM    2  C   UNL     1      63.577   8.024   3.802  1.00  0.00     0.117 A 
HETATM    3  F   UNL     1      64.372   6.971   4.042  1.00  0.00    -0.206 F 
HETATM    4  C   UNL     1      62.695  10.167   4.489  1.00  0.00    -0.030 A 
HETATM    5  C   UNL     1      62.000   9.154   2.385  1.00  0.00     0.004 A 
HETATM    6  C   UNL     1      62.826   8.060   2.634  1.00  0.00     0.042 A 
HETATM    7  C   UNL     1      61.934  10.200   3.309  1.00  0.00     0.009 A 
ENDROOT
BRANCH   4   8
HETATM    8  C   UNL     1      62.617  11.300   5.478  1.00  0.00     0.268 C 
BRANCH   8   9
HETATM    9  N   UNL     1      63.838  11.398   6.270  1.00  0.00    -0.075 N 
HETATM   10  H   UNL     1      63.834  10.677   6.991  1.00  0.00     0.274 HD
HETATM   11  H   UNL     1      63.886  12.318   6.709  1.00  0.00     0.274 HD
HETATM   12  H   UNL     1      64.647  11.268   5.663  1.00  0.00     0.274 HD
ENDBRANCH   8   9
ENDBRANCH   4   8
TORSDOF 2
ENDMDL
MODEL 7
REMARK VINA RESULT:      -3.9      2.973      3.977
REMARK  2 active torsions:
REMARK  status: ('A' for Active; 'I' for Inactive)
REMARK    1  A    between atoms: C_4  and  C_7 
REMARK    2  A    between atoms: N_5  and  C_7 
ROOT
HETATM    1  C   UNL     1      62.528   8.822   3.353  1.00  0.00     0.051 A 
HETATM    2  C   UNL     1      62.484   9.800   4.342  1.00  0.00     0.117 A 
HETATM    3  F   UNL     1      62.790   9.471   5.605  1.00  0.00    -0.206 F 
HETATM    4  C   UNL     1      62.209   9.152   2.030  1.00  0.00    -0.030 A 
HETATM    5  C   UNL     1      61.811  11.452   2.732  1.00  0.00     0.004 A 
HETATM    6  C   UNL     1      62.129  11.110   4.045  1.00  0.00     0.042 A 
HETATM    7  C   UNL     1      61.853  10.478   1.731  1.00  0.00     0.009 A 
ENDROOT
BRANCH   4   8
HETATM    8  C   UNL     1      62.252   8.111   0.942  1.00  0.00     0.268 C 
BRANCH   8   9
HETATM    9  N   UNL     1      60.923   7.860   0.397  1.00  0.00    -0.075 N 
HETATM   10  H   UNL     1      60.629   6.914   0.639  1.00  0.00     0.274 HD
HETATM   11  H   UNL     1      60.948   7.959  -0.619  1.00  0.00     0.274 HD
HETATM   12  H   UNL     1      60.263   8.531   0.788  1.00  0.00     0.274 HD
ENDBRANCH   8   9
ENDBRANCH   4   8
TORSDOF 2
ENDMDL
MODEL 8
REMARK VINA RESULT:      -3.6      3.073      3.855
REMARK  2 active torsions:
REMARK  status: ('A' for Active; 'I' for Inactive)
REMARK    1  A    between atoms: C_4  and  C_7 
REMARK    2  A    between atoms: N_5  and  C_7 
ROOT
HETATM    1  C   UNL     1      64.033   9.173   5.076  1.00  0.00     0.051 A 
HETATM    2  C   UNL     1      64.883   8.070   5.056  1.00  0.00     0.117 A 
HETATM    3  F   UNL     1      65.850   7.971   5.977  1.00  0.00    -0.206 F 
HETATM    4  C   UNL     1      63.018   9.289   4.117  1.00  0.00    -0.030 A 
HETATM    5  C   UNL     1      63.740   7.177   3.140  1.00  0.00     0.004 A 
HETATM    6  C   UNL     1      64.746   7.073   4.098  1.00  0.00     0.042 A 
HETATM    7  C   UNL     1      62.880   8.278   3.152  1.00  0.00     0.009 A 
ENDROOT
BRANCH   4   8
HETATM    8  C   UNL     1      62.086  10.472   4.120  1.00  0.00     0.268 C 
BRANCH   8   9
HETATM    9  N   UNL     1      62.550  11.510   5.033  1.00  0.00    -0.075 N 
HETATM   10  H   UNL     1      62.933  12.288   4.496  1.00  0.00     0.274 HD
HETATM   11  H   UNL     1      63.274  11.128   5.642  1.00  0.00     0.274 HD
HETATM   12  H   UNL     1      61.768  11.840   5.598  1.00  0.00     0.274 HD
ENDBRANCH   8   9
ENDBRANCH   4   8
TORSDOF 2
ENDMDL
MODEL 9
REMARK VINA RESULT:      -3.5     13.158     14.286
REMARK  2 active torsions:
REMARK  status: ('A' for Active; 'I' for Inactive)
REMARK    1  A    between atoms: C_4  and  C_7 
REMARK    2  A    between atoms: N_5  and  C_7 
ROOT
HETATM    1  C   UNL     1      56.931   2.353  12.562  1.00  0.00     0.051 A 
HETATM    2  C   UNL     1      58.275   2.470  12.218  1.00  0.00     0.117 A 
HETATM    3  F   UNL     1      58.631   3.312  11.238  1.00  0.00    -0.206 F 
HETATM    4  C   UNL     1      56.546   1.475  13.584  1.00  0.00    -0.030 A 
HETATM    5  C   UNL     1      58.883   0.853  13.888  1.00  0.00     0.004 A 
HETATM    6  C   UNL     1      59.252   1.729  12.870  1.00  0.00     0.042 A 
HETATM    7  C   UNL     1      57.537   0.729  14.243  1.00  0.00     0.009 A 
ENDROOT
BRANCH   4   8
HETATM    8  C   UNL     1      55.098   1.334  13.975  1.00  0.00     0.268 C 
BRANCH   8   9
HETATM    9  N   UNL     1      54.686   2.406  14.874  1.00  0.00    -0.075 N 
HETATM   10  H   UNL     1      54.079   2.025  15.600  1.00  0.00     0.274 HD
HETATM   11  H   UNL     1      54.178   3.116  14.346  1.00  0.00     0.274 HD
HETATM   12  H   UNL     1      55.510   2.824  15.304  1.00  0.00     0.274 HD
ENDBRANCH   8   9
ENDBRANCH   4   8
TORSDOF 2
ENDMDL
