MODEL 1
REMARK VINA RESULT:      -4.8      0.000      0.000
REMARK  2 active torsions:
REMARK  status: ('A' for Active; 'I' for Inactive)
REMARK    1  A    between atoms: N_1  and  C_5 
REMARK    2  A    between atoms: C_10  and  O_13 
ROOT
HETATM    1  C   UNL     1      63.562   8.889   4.825  1.00  0.00     0.039 A 
HETATM    2  C   UNL     1      63.125   8.497   3.550  1.00  0.00     0.033 A 
HETATM    3  C   UNL     1      63.178  10.147   5.317  1.00  0.00     0.033 A 
HETATM    4  C   UNL     1      61.952  10.589   3.291  1.00  0.00     0.065 A 
HETATM    5  C   UNL     1      62.375  10.997   4.549  1.00  0.00     0.039 A 
HETATM    6  C   UNL     1      62.319   9.348   2.788  1.00  0.00     0.039 A 
ENDROOT
BRANCH   1   7
HETATM    7  N   UNL     1      64.380   8.024   5.610  1.00  0.00    -0.317 N 
HETATM    8  C   UNL     1      65.745   8.100   5.795  1.00  0.00     0.188 A 
HETATM    9  N   UNL     1      66.210   7.141   6.566  1.00  0.00    -0.360 N 
HETATM   10  C   UNL     1      65.116   6.405   6.912  1.00  0.00     0.106 A 
ATOM     11  HN  UNL     1      67.179   6.983   6.845  1.00  0.00     0.166 HD
HETATM   12  C   UNL     1      63.978   6.929   6.347  1.00  0.00     0.115 A 
ENDBRANCH   1   7
BRANCH   4  13
HETATM   13  O   UNL     1      61.169  11.385   2.510  1.00  0.00    -0.361 OA
HETATM   14  H   UNL     1      61.481  12.225   2.237  1.00  0.00     0.217 HD
ENDBRANCH   4  13
TORSDOF 2
ENDMDL
MODEL 2
REMARK VINA RESULT:      -4.8      0.060      1.396
REMARK  2 active torsions:
REMARK  status: ('A' for Active; 'I' for Inactive)
REMARK    1  A    between atoms: N_1  and  C_5 
REMARK    2  A    between atoms: C_10  and  O_13 
ROOT
HETATM    1  C   UNL     1      63.594   8.864   4.851  1.00  0.00     0.039 A 
HETATM    2  C   UNL     1      63.203  10.123   5.331  1.00  0.00     0.033 A 
HETATM    3  C   UNL     1      63.159   8.456   3.579  1.00  0.00     0.033 A 
HETATM    4  C   UNL     1      61.971  10.533   3.297  1.00  0.00     0.065 A 
HETATM    5  C   UNL     1      62.346   9.290   2.804  1.00  0.00     0.039 A 
HETATM    6  C   UNL     1      62.394  10.955   4.550  1.00  0.00     0.039 A 
ENDROOT
BRANCH   1   7
HETATM    7  N   UNL     1      64.424   8.013   5.639  1.00  0.00    -0.317 N 
HETATM    8  C   UNL     1      65.791   8.092   5.804  1.00  0.00     0.188 A 
HETATM    9  N   UNL     1      66.268   7.148   6.584  1.00  0.00    -0.360 N 
HETATM   10  C   UNL     1      65.179   6.417   6.958  1.00  0.00     0.106 A 
ATOM     11  HN  UNL     1      67.240   6.994   6.852  1.00  0.00     0.166 HD
HETATM   12  C   UNL     1      64.033   6.931   6.401  1.00  0.00     0.115 A 
ENDBRANCH   1   7
BRANCH   4  13
HETATM   13  O   UNL     1      61.181  11.377   2.575  1.00  0.00    -0.361 OA
HETATM   14  H   UNL     1      60.560  11.925   3.012  1.00  0.00     0.217 HD
ENDBRANCH   4  13
TORSDOF 2
ENDMDL
MODEL 3
REMARK VINA RESULT:      -4.8      3.100      4.778
REMARK  2 active torsions:
REMARK  status: ('A' for Active; 'I' for Inactive)
REMARK    1  A    between atoms: N_1  and  C_5 
REMARK    2  A    between atoms: C_10  and  O_13 
ROOT
HETATM    1  C   UNL     1      62.095   9.336   3.516  1.00  0.00     0.039 A 
HETATM    2  C   UNL     1      61.774  10.654   3.878  1.00  0.00     0.033 A 
HETATM    3  C   UNL     1      63.177   8.702   4.148  1.00  0.00     0.033 A 
HETATM    4  C   UNL     1      63.590  10.676   5.466  1.00  0.00     0.065 A 
HETATM    5  C   UNL     1      63.925   9.373   5.122  1.00  0.00     0.039 A 
HETATM    6  C   UNL     1      62.523  11.319   4.854  1.00  0.00     0.039 A 
ENDROOT
BRANCH   1   7
HETATM    7  N   UNL     1      61.333   8.650   2.525  1.00  0.00    -0.317 N 
HETATM    8  C   UNL     1      61.360   8.847   1.159  1.00  0.00     0.188 A 
HETATM    9  N   UNL     1      60.525   8.064   0.513  1.00  0.00    -0.360 N 
HETATM   10  C   UNL     1      59.925   7.314   1.481  1.00  0.00     0.106 A 
ATOM     11  HN  UNL     1      60.362   8.026  -0.493  1.00  0.00     0.166 HD
HETATM   12  C   UNL     1      60.408   7.645   2.724  1.00  0.00     0.115 A 
ENDBRANCH   1   7
BRANCH   4  13
HETATM   13  O   UNL     1      64.291  11.367   6.408  1.00  0.00    -0.361 OA
HETATM   14  H   UNL     1      64.894  10.916   6.966  1.00  0.00     0.217 HD
ENDBRANCH   4  13
TORSDOF 2
ENDMDL
MODEL 4
REMARK VINA RESULT:      -4.5      2.049      2.220
REMARK  2 active torsions:
REMARK  status: ('A' for Active; 'I' for Inactive)
REMARK    1  A    between atoms: N_1  and  C_5 
REMARK    2  A    between atoms: C_10  and  O_13 
ROOT
HETATM    1  C   UNL     1      62.290   8.813   3.847  1.00  0.00     0.039 A 
HETATM    2  C   UNL     1      62.126   8.801   2.454  1.00  0.00     0.033 A 
HETATM    3  C   UNL     1      62.265  10.044   4.524  1.00  0.00     0.033 A 
HETATM    4  C   UNL     1      61.921  11.205   2.442  1.00  0.00     0.065 A 
HETATM    5  C   UNL     1      62.082  11.239   3.820  1.00  0.00     0.039 A 
HETATM    6  C   UNL     1      61.940   9.998   1.755  1.00  0.00     0.039 A 
ENDROOT
BRANCH   1   7
HETATM    7  N   UNL     1      62.474   7.596   4.567  1.00  0.00    -0.317 N 
HETATM    8  C   UNL     1      62.587   6.322   4.047  1.00  0.00     0.188 A 
HETATM    9  N   UNL     1      62.735   5.403   4.975  1.00  0.00    -0.360 N 
HETATM   10  C   UNL     1      62.727   6.087   6.154  1.00  0.00     0.106 A 
ATOM     11  HN  UNL     1      62.834   4.396   4.841  1.00  0.00     0.166 HD
HETATM   12  C   UNL     1      62.578   7.436   5.933  1.00  0.00     0.115 A 
ENDBRANCH   1   7
BRANCH   4  13
HETATM   13  O   UNL     1      61.740  12.345   1.717  1.00  0.00    -0.361 OA
HETATM   14  H   UNL     1      62.480  12.790   1.353  1.00  0.00     0.217 HD
ENDBRANCH   4  13
TORSDOF 2
ENDMDL
MODEL 5
REMARK VINA RESULT:      -4.2      3.019      5.067
REMARK  2 active torsions:
REMARK  status: ('A' for Active; 'I' for Inactive)
REMARK    1  A    between atoms: N_1  and  C_5 
REMARK    2  A    between atoms: C_10  and  O_13 
ROOT
HETATM    1  C   UNL     1      63.370   8.635   4.932  1.00  0.00     0.039 A 
HETATM    2  C   UNL     1      62.640   7.640   5.600  1.00  0.00     0.033 A 
HETATM    3  C   UNL     1      64.768   8.658   5.065  1.00  0.00     0.033 A 
HETATM    4  C   UNL     1      64.682   6.728   6.505  1.00  0.00     0.065 A 
HETATM    5  C   UNL     1      65.423   7.705   5.854  1.00  0.00     0.039 A 
HETATM    6  C   UNL     1      63.299   6.688   6.384  1.00  0.00     0.039 A 
ENDROOT
BRANCH   1   7
HETATM    7  N   UNL     1      62.705   9.606   4.127  1.00  0.00    -0.317 N 
HETATM    8  C   UNL     1      62.207   9.440   2.850  1.00  0.00     0.188 A 
HETATM    9  N   UNL     1      61.660  10.534   2.368  1.00  0.00    -0.360 N 
HETATM   10  C   UNL     1      61.791  11.460   3.360  1.00  0.00     0.106 A 
ATOM     11  HN  UNL     1      61.231  10.662   1.452  1.00  0.00     0.166 HD
HETATM   12  C   UNL     1      62.420  10.916   4.455  1.00  0.00     0.115 A 
ENDBRANCH   1   7
BRANCH   4  13
HETATM   13  O   UNL     1      65.279   5.782   7.283  1.00  0.00    -0.361 OA
HETATM   14  H   UNL     1      64.870   5.503   8.078  1.00  0.00     0.217 HD
ENDBRANCH   4  13
TORSDOF 2
ENDMDL
MODEL 6
REMARK VINA RESULT:      -4.0      1.956      3.158
REMARK  2 active torsions:
REMARK  status: ('A' for Active; 'I' for Inactive)
REMARK    1  A    between atoms: N_1  and  C_5 
REMARK    2  A    between atoms: C_10  and  O_13 
ROOT
HETATM    1  C   UNL     1      64.847   6.983   6.511  1.00  0.00     0.039 A 
HETATM    2  C   UNL     1      63.485   6.666   6.395  1.00  0.00     0.033 A 
HETATM    3  C   UNL     1      65.368   8.036   5.741  1.00  0.00     0.033 A 
HETATM    4  C   UNL     1      63.198   8.428   4.771  1.00  0.00     0.065 A 
HETATM    5  C   UNL     1      64.544   8.757   4.870  1.00  0.00     0.039 A 
HETATM    6  C   UNL     1      62.664   7.392   5.526  1.00  0.00     0.039 A 
ENDROOT
BRANCH   1   7
HETATM    7  N   UNL     1      65.689   6.251   7.398  1.00  0.00    -0.317 N 
HETATM    8  C   UNL     1      65.680   4.891   7.634  1.00  0.00     0.188 A 
HETATM    9  N   UNL     1      66.573   4.520   8.525  1.00  0.00    -0.360 N 
HETATM   10  C   UNL     1      67.205   5.672   8.891  1.00  0.00     0.106 A 
ATOM     11  HN  UNL     1      66.754   3.577   8.868  1.00  0.00     0.166 HD
HETATM   12  C   UNL     1      66.690   6.748   8.209  1.00  0.00     0.115 A 
ENDBRANCH   1   7
BRANCH   4  13
HETATM   13  O   UNL     1      62.359   9.104   3.937  1.00  0.00    -0.361 OA
HETATM   14  H   UNL     1      62.064   8.701   3.144  1.00  0.00     0.217 HD
ENDBRANCH   4  13
TORSDOF 2
ENDMDL
MODEL 7
REMARK VINA RESULT:      -3.8      3.212      5.195
REMARK  2 active torsions:
REMARK  status: ('A' for Active; 'I' for Inactive)
REMARK    1  A    between atoms: N_1  and  C_5 
REMARK    2  A    between atoms: C_10  and  O_13 
ROOT
HETATM    1  C   UNL     1      64.365   8.158   4.417  1.00  0.00     0.039 A 
HETATM    2  C   UNL     1      65.302   8.313   5.450  1.00  0.00     0.033 A 
HETATM    3  C   UNL     1      64.430   7.011   3.607  1.00  0.00     0.033 A 
HETATM    4  C   UNL     1      66.330   6.213   4.855  1.00  0.00     0.065 A 
HETATM    5  C   UNL     1      65.414   6.041   3.826  1.00  0.00     0.039 A 
HETATM    6  C   UNL     1      66.281   7.338   5.667  1.00  0.00     0.039 A 
ENDROOT
BRANCH   1   7
HETATM    7  N   UNL     1      63.361   9.145   4.193  1.00  0.00    -0.317 N 
HETATM    8  C   UNL     1      62.414   9.167   3.189  1.00  0.00     0.188 A 
HETATM    9  N   UNL     1      61.636  10.225   3.244  1.00  0.00    -0.360 N 
HETATM   10  C   UNL     1      62.075  10.930   4.325  1.00  0.00     0.106 A 
ATOM     11  HN  UNL     1      60.870  10.466   2.614  1.00  0.00     0.166 HD
HETATM   12  C   UNL     1      63.127  10.286   4.932  1.00  0.00     0.115 A 
ENDBRANCH   1   7
BRANCH   4  13
HETATM   13  O   UNL     1      67.304   5.293   5.103  1.00  0.00    -0.361 OA
HETATM   14  H   UNL     1      68.141   5.571   5.417  1.00  0.00     0.217 HD
ENDBRANCH   4  13
TORSDOF 2
ENDMDL
MODEL 8
REMARK VINA RESULT:      -3.8      6.948      8.159
REMARK  2 active torsions:
REMARK  status: ('A' for Active; 'I' for Inactive)
REMARK    1  A    between atoms: N_1  and  C_5 
REMARK    2  A    between atoms: C_10  and  O_13 
ROOT
HETATM    1  C   UNL     1      57.362   6.652   5.742  1.00  0.00     0.039 A 
HETATM    2  C   UNL     1      56.641   7.345   6.727  1.00  0.00     0.033 A 
HETATM    3  C   UNL     1      58.515   5.942   6.117  1.00  0.00     0.033 A 
HETATM    4  C   UNL     1      58.211   6.619   8.409  1.00  0.00     0.065 A 
HETATM    5  C   UNL     1      58.940   5.928   7.450  1.00  0.00     0.039 A 
HETATM    6  C   UNL     1      57.068   7.324   8.058  1.00  0.00     0.039 A 
ENDROOT
BRANCH   1   7
HETATM    7  N   UNL     1      56.931   6.664   4.383  1.00  0.00    -0.317 N 
HETATM    8  C   UNL     1      57.626   7.129   3.286  1.00  0.00     0.188 A 
HETATM    9  N   UNL     1      56.948   7.016   2.165  1.00  0.00    -0.360 N 
HETATM   10  C   UNL     1      55.761   6.450   2.527  1.00  0.00     0.106 A 
ATOM     11  HN  UNL     1      57.244   7.292   1.229  1.00  0.00     0.166 HD
HETATM   12  C   UNL     1      55.727   6.214   3.881  1.00  0.00     0.115 A 
ENDBRANCH   1   7
BRANCH   4  13
HETATM   13  O   UNL     1      58.588   6.632   9.718  1.00  0.00    -0.361 OA
HETATM   14  H   UNL     1      58.539   7.427  10.212  1.00  0.00     0.217 HD
ENDBRANCH   4  13
TORSDOF 2
ENDMDL
MODEL 9
REMARK VINA RESULT:      -3.8      3.321      5.237
REMARK  2 active torsions:
REMARK  status: ('A' for Active; 'I' for Inactive)
REMARK    1  A    between atoms: N_1  and  C_5 
REMARK    2  A    between atoms: C_10  and  O_13 
ROOT
HETATM    1  C   UNL     1      62.585   7.849   4.097  1.00  0.00     0.039 A 
HETATM    2  C   UNL     1      62.076   7.023   5.110  1.00  0.00     0.033 A 
HETATM    3  C   UNL     1      63.879   8.377   4.236  1.00  0.00     0.033 A 
HETATM    4  C   UNL     1      64.126   7.265   6.360  1.00  0.00     0.065 A 
HETATM    5  C   UNL     1      64.648   8.087   5.369  1.00  0.00     0.039 A 
HETATM    6  C   UNL     1      62.850   6.732   6.238  1.00  0.00     0.039 A 
ENDROOT
BRANCH   1   7
HETATM    7  N   UNL     1      61.804   8.146   2.942  1.00  0.00    -0.317 N 
HETATM    8  C   UNL     1      60.439   8.002   2.791  1.00  0.00     0.188 A 
HETATM    9  N   UNL     1      60.018   8.348   1.595  1.00  0.00    -0.360 N 
HETATM   10  C   UNL     1      61.139   8.743   0.927  1.00  0.00     0.106 A 
ATOM     11  HN  UNL     1      59.060   8.326   1.243  1.00  0.00     0.166 HD
HETATM   12  C   UNL     1      62.248   8.639   1.732  1.00  0.00     0.115 A 
ENDBRANCH   1   7
BRANCH   4  13
HETATM   13  O   UNL     1      64.840   6.956   7.478  1.00  0.00    -0.361 OA
HETATM   14  H   UNL     1      64.732   6.120   7.886  1.00  0.00     0.217 HD
ENDBRANCH   4  13
TORSDOF 2
ENDMDL
