MODEL 1
REMARK VINA RESULT:      -5.3      0.000      0.000
REMARK  1 active torsions:
REMARK  status: ('A' for Active; 'I' for Inactive)
REMARK    1  A    between atoms: N_1  and  C_2 
ROOT
HETATM    1  N   UNL     1      63.049   7.982   4.200  1.00  0.00    -0.378 N 
HETATM    2  N   UNL     1      64.106   6.831   6.678  1.00  0.00    -0.072 N 
HETATM    3  C   UNL     1      62.183   7.184   5.080  1.00  0.00     0.150 C 
HETATM    4  C   UNL     1      64.490   7.703   4.323  1.00  0.00     0.150 C 
HETATM    5  C   UNL     1      62.687   7.223   6.539  1.00  0.00     0.252 C 
HETATM    6  C   UNL     1      64.922   7.710   5.811  1.00  0.00     0.252 C 
HETATM    7  H   UNL     1      64.400   6.937   7.649  1.00  0.00     0.277 HD
HETATM    8  H   UNL     1      64.229   5.856   6.403  1.00  0.00     0.277 HD
ENDROOT
BRANCH   1   9
HETATM    9  C   UNL     1      62.602   9.104   3.524  1.00  0.00     0.030 A 
HETATM   10  C   UNL     1      62.412   9.119   2.133  1.00  0.00     0.032 A 
HETATM   11  C   UNL     1      61.985  10.270   1.461  1.00  0.00     0.044 A 
HETATM   12  C   UNL     1      61.744  11.432   2.175  1.00  0.00     0.116 A 
HETATM   13  C   UNL     1      61.917  11.460   3.550  1.00  0.00     0.044 A 
HETATM   14  F   UNL     1      61.343  12.536   1.533  1.00  0.00    -0.206 F 
HETATM   15  C   UNL     1      62.342  10.303   4.213  1.00  0.00     0.032 A 
ENDBRANCH   1   9
TORSDOF 1
ENDMDL
MODEL 2
REMARK VINA RESULT:      -5.0      1.147      1.646
REMARK  1 active torsions:
REMARK  status: ('A' for Active; 'I' for Inactive)
REMARK    1  A    between atoms: N_1  and  C_2 
ROOT
HETATM    1  N   UNL     1      62.951   7.842   4.398  1.00  0.00    -0.378 N 
HETATM    2  N   UNL     1      62.194   5.324   5.691  1.00  0.00    -0.072 N 
HETATM    3  C   UNL     1      63.236   6.555   3.748  1.00  0.00     0.150 C 
HETATM    4  C   UNL     1      62.811   7.781   5.864  1.00  0.00     0.150 C 
HETATM    5  C   UNL     1      62.251   5.463   4.220  1.00  0.00     0.252 C 
HETATM    6  C   UNL     1      61.848   6.639   6.273  1.00  0.00     0.252 C 
HETATM    7  H   UNL     1      61.484   4.637   5.945  1.00  0.00     0.277 HD
HETATM    8  H   UNL     1      63.097   5.009   6.048  1.00  0.00     0.277 HD
ENDROOT
BRANCH   1   9
HETATM    9  C   UNL     1      62.555   8.966   3.696  1.00  0.00     0.030 A 
HETATM   10  C   UNL     1      62.364   8.956   2.304  1.00  0.00     0.032 A 
HETATM   11  C   UNL     1      61.990  10.109   1.604  1.00  0.00     0.044 A 
HETATM   12  C   UNL     1      61.803  11.297   2.291  1.00  0.00     0.116 A 
HETATM   13  C   UNL     1      61.978  11.351   3.664  1.00  0.00     0.044 A 
HETATM   14  F   UNL     1      61.452  12.403   1.622  1.00  0.00    -0.206 F 
HETATM   15  C   UNL     1      62.350  10.192   4.355  1.00  0.00     0.032 A 
ENDBRANCH   1   9
TORSDOF 1
ENDMDL
MODEL 3
REMARK VINA RESULT:      -4.9      1.181      2.171
REMARK  1 active torsions:
REMARK  status: ('A' for Active; 'I' for Inactive)
REMARK    1  A    between atoms: N_1  and  C_2 
ROOT
HETATM    1  N   UNL     1      62.922   7.776   4.389  1.00  0.00    -0.378 N 
HETATM    2  N   UNL     1      62.061   5.239   5.576  1.00  0.00    -0.072 N 
HETATM    3  C   UNL     1      63.192   6.503   3.705  1.00  0.00     0.150 C 
HETATM    4  C   UNL     1      62.737   7.672   5.847  1.00  0.00     0.150 C 
HETATM    5  C   UNL     1      62.164   5.424   4.112  1.00  0.00     0.252 C 
HETATM    6  C   UNL     1      61.733   6.545   6.191  1.00  0.00     0.252 C 
HETATM    7  H   UNL     1      61.325   4.565   5.787  1.00  0.00     0.277 HD
HETATM    8  H   UNL     1      62.944   4.888   5.948  1.00  0.00     0.277 HD
ENDROOT
BRANCH   1   9
HETATM    9  C   UNL     1      62.577   8.932   3.712  1.00  0.00     0.030 A 
HETATM   10  C   UNL     1      62.387  10.159   4.367  1.00  0.00     0.032 A 
HETATM   11  C   UNL     1      62.011  11.314   3.672  1.00  0.00     0.044 A 
HETATM   12  C   UNL     1      61.814  11.256   2.302  1.00  0.00     0.116 A 
HETATM   13  C   UNL     1      61.992  10.066   1.616  1.00  0.00     0.044 A 
HETATM   14  F   UNL     1      61.446  12.358   1.636  1.00  0.00    -0.206 F 
HETATM   15  C   UNL     1      62.371   8.917   2.320  1.00  0.00     0.032 A 
ENDBRANCH   1   9
TORSDOF 1
ENDMDL
MODEL 4
REMARK VINA RESULT:      -4.7      1.392      2.476
REMARK  1 active torsions:
REMARK  status: ('A' for Active; 'I' for Inactive)
REMARK    1  A    between atoms: N_1  and  C_2 
ROOT
HETATM    1  N   UNL     1      64.168   8.106   5.516  1.00  0.00    -0.378 N 
HETATM    2  N   UNL     1      65.523   5.515   5.703  1.00  0.00    -0.072 N 
HETATM    3  C   UNL     1      65.635   8.030   5.501  1.00  0.00     0.150 C 
HETATM    4  C   UNL     1      63.491   6.968   6.162  1.00  0.00     0.150 C 
HETATM    5  C   UNL     1      66.116   6.659   4.977  1.00  0.00     0.252 C 
HETATM    6  C   UNL     1      64.049   5.626   5.627  1.00  0.00     0.252 C 
HETATM    7  H   UNL     1      65.825   4.640   5.273  1.00  0.00     0.277 HD
HETATM    8  H   UNL     1      65.826   5.524   6.677  1.00  0.00     0.277 HD
ENDROOT
BRANCH   1   9
HETATM    9  C   UNL     1      63.456   9.005   4.742  1.00  0.00     0.030 A 
HETATM   10  C   UNL     1      63.075  10.271   5.216  1.00  0.00     0.032 A 
HETATM   11  C   UNL     1      62.331  11.158   4.429  1.00  0.00     0.044 A 
HETATM   12  C   UNL     1      61.952  10.788   3.150  1.00  0.00     0.116 A 
HETATM   13  C   UNL     1      62.308   9.549   2.642  1.00  0.00     0.044 A 
HETATM   14  F   UNL     1      61.233  11.632   2.399  1.00  0.00    -0.206 F 
HETATM   15  C   UNL     1      63.054   8.670   3.435  1.00  0.00     0.032 A 
ENDBRANCH   1   9
TORSDOF 1
ENDMDL
MODEL 5
REMARK VINA RESULT:      -4.7      1.980      2.735
REMARK  1 active torsions:
REMARK  status: ('A' for Active; 'I' for Inactive)
REMARK    1  A    between atoms: N_1  and  C_2 
ROOT
HETATM    1  N   UNL     1      65.286   7.284   5.155  1.00  0.00    -0.378 N 
HETATM    2  N   UNL     1      67.846   7.017   6.555  1.00  0.00    -0.072 N 
HETATM    3  C   UNL     1      65.329   6.814   6.548  1.00  0.00     0.150 C 
HETATM    4  C   UNL     1      66.525   7.068   4.387  1.00  0.00     0.150 C 
HETATM    5  C   UNL     1      66.591   7.334   7.271  1.00  0.00     0.252 C 
HETATM    6  C   UNL     1      67.755   7.567   5.185  1.00  0.00     0.252 C 
HETATM    7  H   UNL     1      68.637   7.438   7.044  1.00  0.00     0.277 HD
HETATM    8  H   UNL     1      67.984   6.006   6.520  1.00  0.00     0.277 HD
ENDROOT
BRANCH   1   9
HETATM    9  C   UNL     1      64.293   8.118   4.676  1.00  0.00     0.030 A 
HETATM   10  C   UNL     1      63.602   7.857   3.481  1.00  0.00     0.032 A 
HETATM   11  C   UNL     1      62.618   8.727   2.995  1.00  0.00     0.044 A 
HETATM   12  C   UNL     1      62.312   9.878   3.700  1.00  0.00     0.116 A 
HETATM   13  C   UNL     1      62.968  10.173   4.884  1.00  0.00     0.044 A 
HETATM   14  F   UNL     1      61.377  10.715   3.232  1.00  0.00    -0.206 F 
HETATM   15  C   UNL     1      63.948   9.297   5.363  1.00  0.00     0.032 A 
ENDBRANCH   1   9
TORSDOF 1
ENDMDL
MODEL 6
REMARK VINA RESULT:      -4.5      1.916      2.662
REMARK  1 active torsions:
REMARK  status: ('A' for Active; 'I' for Inactive)
REMARK    1  A    between atoms: N_1  and  C_2 
ROOT
HETATM    1  N   UNL     1      62.736   8.451   4.925  1.00  0.00    -0.378 N 
HETATM    2  N   UNL     1      64.936   7.397   6.549  1.00  0.00    -0.072 N 
HETATM    3  C   UNL     1      63.973   9.227   5.099  1.00  0.00     0.150 C 
HETATM    4  C   UNL     1      62.459   7.474   5.993  1.00  0.00     0.150 C 
HETATM    5  C   UNL     1      65.172   8.301   5.403  1.00  0.00     0.252 C 
HETATM    6  C   UNL     1      63.712   6.610   6.281  1.00  0.00     0.252 C 
HETATM    7  H   UNL     1      65.731   6.768   6.661  1.00  0.00     0.277 HD
HETATM    8  H   UNL     1      64.823   7.939   7.406  1.00  0.00     0.277 HD
ENDROOT
BRANCH   1   9
HETATM    9  C   UNL     1      62.036   8.415   3.734  1.00  0.00     0.030 A 
HETATM   10  C   UNL     1      62.447   9.129   2.596  1.00  0.00     0.032 A 
HETATM   11  C   UNL     1      61.711   9.103   1.405  1.00  0.00     0.044 A 
HETATM   12  C   UNL     1      60.544   8.361   1.336  1.00  0.00     0.116 A 
HETATM   13  C   UNL     1      60.103   7.640   2.435  1.00  0.00     0.044 A 
HETATM   14  F   UNL     1      59.834   8.341   0.201  1.00  0.00    -0.206 F 
HETATM   15  C   UNL     1      60.847   7.670   3.619  1.00  0.00     0.032 A 
ENDBRANCH   1   9
TORSDOF 1
ENDMDL
MODEL 7
REMARK VINA RESULT:      -4.3      3.051      5.179
REMARK  1 active torsions:
REMARK  status: ('A' for Active; 'I' for Inactive)
REMARK    1  A    between atoms: N_1  and  C_2 
ROOT
HETATM    1  N   UNL     1      62.022   8.680   4.288  1.00  0.00    -0.378 N 
HETATM    2  N   UNL     1      60.810   9.396   1.718  1.00  0.00    -0.072 N 
HETATM    3  C   UNL     1      60.963   7.844   3.704  1.00  0.00     0.150 C 
HETATM    4  C   UNL     1      62.025  10.083   3.839  1.00  0.00     0.150 C 
HETATM    5  C   UNL     1      60.922   7.991   2.167  1.00  0.00     0.252 C 
HETATM    6  C   UNL     1      61.936  10.163   2.295  1.00  0.00     0.252 C 
HETATM    7  H   UNL     1      60.852   9.436   0.699  1.00  0.00     0.277 HD
HETATM    8  H   UNL     1      59.921   9.792   2.025  1.00  0.00     0.277 HD
ENDROOT
BRANCH   1   9
HETATM    9  C   UNL     1      63.104   8.152   4.968  1.00  0.00     0.030 A 
HETATM   10  C   UNL     1      62.985   7.056   5.838  1.00  0.00     0.032 A 
HETATM   11  C   UNL     1      64.086   6.551   6.540  1.00  0.00     0.044 A 
HETATM   12  C   UNL     1      65.329   7.142   6.384  1.00  0.00     0.116 A 
HETATM   13  C   UNL     1      65.490   8.225   5.536  1.00  0.00     0.044 A 
HETATM   14  F   UNL     1      66.381   6.666   7.062  1.00  0.00    -0.206 F 
HETATM   15  C   UNL     1      64.385   8.721   4.836  1.00  0.00     0.032 A 
ENDBRANCH   1   9
TORSDOF 1
ENDMDL
MODEL 8
REMARK VINA RESULT:      -4.3      2.417      3.499
REMARK  1 active torsions:
REMARK  status: ('A' for Active; 'I' for Inactive)
REMARK    1  A    between atoms: N_1  and  C_2 
ROOT
HETATM    1  N   UNL     1      66.174   7.721   5.115  1.00  0.00    -0.378 N 
HETATM    2  N   UNL     1      67.899   5.973   6.714  1.00  0.00    -0.072 N 
HETATM    3  C   UNL     1      67.083   6.770   4.460  1.00  0.00     0.150 C 
HETATM    4  C   UNL     1      66.569   8.124   6.477  1.00  0.00     0.150 C 
HETATM    5  C   UNL     1      67.393   5.571   5.384  1.00  0.00     0.252 C 
HETATM    6  C   UNL     1      66.911   6.881   7.336  1.00  0.00     0.252 C 
HETATM    7  H   UNL     1      68.024   5.147   7.299  1.00  0.00     0.277 HD
HETATM    8  H   UNL     1      68.799   6.446   6.618  1.00  0.00     0.277 HD
ENDROOT
BRANCH   1   9
HETATM    9  C   UNL     1      64.907   7.998   4.636  1.00  0.00     0.030 A 
HETATM   10  C   UNL     1      64.292   7.222   3.640  1.00  0.00     0.032 A 
HETATM   11  C   UNL     1      63.019   7.532   3.145  1.00  0.00     0.044 A 
HETATM   12  C   UNL     1      62.341   8.633   3.641  1.00  0.00     0.116 A 
HETATM   13  C   UNL     1      62.910   9.425   4.625  1.00  0.00     0.044 A 
HETATM   14  F   UNL     1      61.127   8.936   3.164  1.00  0.00    -0.206 F 
HETATM   15  C   UNL     1      64.181   9.105   5.115  1.00  0.00     0.032 A 
ENDBRANCH   1   9
TORSDOF 1
ENDMDL
MODEL 9
REMARK VINA RESULT:      -4.3      2.825      4.332
REMARK  1 active torsions:
REMARK  status: ('A' for Active; 'I' for Inactive)
REMARK    1  A    between atoms: N_1  and  C_2 
ROOT
HETATM    1  N   UNL     1      66.038   6.471   6.711  1.00  0.00    -0.378 N 
HETATM    2  N   UNL     1      66.903   4.540   8.738  1.00  0.00    -0.072 N 
HETATM    3  C   UNL     1      66.358   5.087   6.334  1.00  0.00     0.150 C 
HETATM    4  C   UNL     1      66.682   6.944   7.949  1.00  0.00     0.150 C 
HETATM    5  C   UNL     1      66.162   4.126   7.527  1.00  0.00     0.252 C 
HETATM    6  C   UNL     1      66.490   5.916   9.092  1.00  0.00     0.252 C 
HETATM    7  H   UNL     1      66.685   3.907   9.509  1.00  0.00     0.277 HD
HETATM    8  H   UNL     1      67.907   4.509   8.563  1.00  0.00     0.277 HD
ENDROOT
BRANCH   1   9
HETATM    9  C   UNL     1      65.001   7.184   6.137  1.00  0.00     0.030 A 
HETATM   10  C   UNL     1      65.220   8.310   5.326  1.00  0.00     0.032 A 
HETATM   11  C   UNL     1      64.159   9.038   4.775  1.00  0.00     0.044 A 
HETATM   12  C   UNL     1      62.855   8.648   5.031  1.00  0.00     0.116 A 
HETATM   13  C   UNL     1      62.594   7.543   5.825  1.00  0.00     0.044 A 
HETATM   14  F   UNL     1      61.838   9.348   4.511  1.00  0.00    -0.206 F 
HETATM   15  C   UNL     1      63.662   6.821   6.369  1.00  0.00     0.032 A 
ENDBRANCH   1   9
TORSDOF 1
ENDMDL
