MODEL 1
REMARK VINA RESULT:      -4.2      0.000      0.000
REMARK  1 active torsions:
REMARK  status: ('A' for Active; 'I' for Inactive)
REMARK    1  A    between atoms: C_1  and  C_2 
ROOT
HETATM    1  C   UNL     1      62.385   9.422   2.687  1.00  0.00     0.112 C 
HETATM    2  N   UNL     1      60.247   8.390   3.395  1.00  0.00    -0.074 N 
HETATM    3  C   UNL     1      61.683   8.521   3.705  1.00  0.00     0.247 C 
HETATM    4  C   UNL     1      62.162   8.923   1.256  1.00  0.00     0.019 C 
HETATM    5  C   UNL     1      60.058   7.786   2.066  1.00  0.00     0.232 C 
HETATM    6  C   UNL     1      60.686   8.647   0.973  1.00  0.00     0.028 C 
HETATM    7  H   UNL     1      59.816   9.314   3.409  1.00  0.00     0.277 HD
HETATM    8  H   UNL     1      59.812   7.790   4.096  1.00  0.00     0.277 HD
ENDROOT
BRANCH   1   9
HETATM    9  C   UNL     1      61.981  10.881   2.816  1.00  0.00     0.178 C 
HETATM   10  O   UNL     1      62.005  11.665   1.876  1.00  0.00    -0.648 OA
HETATM   11  O   UNL     1      61.524  11.241   4.037  1.00  0.00    -0.648 OA
ENDBRANCH   1   9
TORSDOF 1
ENDMDL
MODEL 2
REMARK VINA RESULT:      -3.9      3.043      3.980
REMARK  1 active torsions:
REMARK  status: ('A' for Active; 'I' for Inactive)
REMARK    1  A    between atoms: C_1  and  C_2 
ROOT
HETATM    1  C   UNL     1      63.279   8.938   4.334  1.00  0.00     0.112 C 
HETATM    2  N   UNL     1      64.667   8.123   6.217  1.00  0.00    -0.074 N 
HETATM    3  C   UNL     1      64.683   8.557   4.807  1.00  0.00     0.247 C 
HETATM    4  C   UNL     1      62.286   7.794   4.558  1.00  0.00     0.019 C 
HETATM    5  C   UNL     1      63.807   6.939   6.383  1.00  0.00     0.232 C 
HETATM    6  C   UNL     1      62.366   7.242   5.981  1.00  0.00     0.028 C 
HETATM    7  H   UNL     1      64.310   8.881   6.797  1.00  0.00     0.277 HD
HETATM    8  H   UNL     1      65.618   7.882   6.498  1.00  0.00     0.277 HD
ENDROOT
BRANCH   1   9
HETATM    9  C   UNL     1      62.773  10.222   4.971  1.00  0.00     0.178 C 
HETATM   10  O   UNL     1      63.237  10.679   6.008  1.00  0.00    -0.648 OA
HETATM   11  O   UNL     1      61.814  10.868   4.270  1.00  0.00    -0.648 OA
ENDBRANCH   1   9
TORSDOF 1
ENDMDL
MODEL 3
REMARK VINA RESULT:      -3.8      5.119      6.109
REMARK  1 active torsions:
REMARK  status: ('A' for Active; 'I' for Inactive)
REMARK    1  A    between atoms: C_1  and  C_2 
ROOT
HETATM    1  C   UNL     1      65.672   7.607   5.002  1.00  0.00     0.112 C 
HETATM    2  N   UNL     1      66.883   8.223   7.075  1.00  0.00    -0.074 N 
HETATM    3  C   UNL     1      67.006   8.037   5.616  1.00  0.00     0.247 C 
HETATM    4  C   UNL     1      65.125   6.349   5.685  1.00  0.00     0.019 C 
HETATM    5  C   UNL     1      66.483   6.964   7.724  1.00  0.00     0.232 C 
HETATM    6  C   UNL     1      65.129   6.481   7.207  1.00  0.00     0.028 C 
HETATM    7  H   UNL     1      66.180   8.936   7.263  1.00  0.00     0.277 HD
HETATM    8  H   UNL     1      67.787   8.514   7.447  1.00  0.00     0.277 HD
ENDROOT
BRANCH   1   9
HETATM    9  C   UNL     1      64.636   8.718   5.012  1.00  0.00     0.178 C 
HETATM   10  O   UNL     1      64.710   9.692   5.751  1.00  0.00    -0.648 OA
HETATM   11  O   UNL     1      63.655   8.592   4.090  1.00  0.00    -0.648 OA
ENDBRANCH   1   9
TORSDOF 1
ENDMDL
MODEL 4
REMARK VINA RESULT:      -3.8      1.670      2.689
REMARK  1 active torsions:
REMARK  status: ('A' for Active; 'I' for Inactive)
REMARK    1  A    between atoms: C_1  and  C_2 
ROOT
HETATM    1  C   UNL     1      61.597   9.626   3.888  1.00  0.00     0.112 C 
HETATM    2  N   UNL     1      62.825   8.038   2.435  1.00  0.00    -0.074 N 
HETATM    3  C   UNL     1      61.498   8.410   2.964  1.00  0.00     0.247 C 
HETATM    4  C   UNL     1      62.605   9.388   5.016  1.00  0.00     0.019 C 
HETATM    5  C   UNL     1      63.739   7.687   3.534  1.00  0.00     0.232 C 
HETATM    6  C   UNL     1      63.939   8.864   4.485  1.00  0.00     0.028 C 
HETATM    7  H   UNL     1      63.211   8.826   1.916  1.00  0.00     0.277 HD
HETATM    8  H   UNL     1      62.720   7.230   1.821  1.00  0.00     0.277 HD
ENDROOT
BRANCH   1   9
HETATM    9  C   UNL     1      61.920  10.908   3.138  1.00  0.00     0.178 C 
HETATM   10  O   UNL     1      62.024  10.959   1.919  1.00  0.00    -0.648 OA
HETATM   11  O   UNL     1      62.016  12.013   3.911  1.00  0.00    -0.648 OA
ENDBRANCH   1   9
TORSDOF 1
ENDMDL
MODEL 5
REMARK VINA RESULT:      -3.7      3.004      4.095
REMARK  1 active torsions:
REMARK  status: ('A' for Active; 'I' for Inactive)
REMARK    1  A    between atoms: C_1  and  C_2 
ROOT
HETATM    1  C   UNL     1      63.224   8.226   4.566  1.00  0.00     0.112 C 
HETATM    2  N   UNL     1      61.348   9.501   3.569  1.00  0.00    -0.074 N 
HETATM    3  C   UNL     1      62.368   8.464   3.320  1.00  0.00     0.247 C 
HETATM    4  C   UNL     1      63.859   9.529   5.062  1.00  0.00     0.019 C 
HETATM    5  C   UNL     1      61.988  10.781   3.917  1.00  0.00     0.232 C 
HETATM    6  C   UNL     1      62.829  10.652   5.185  1.00  0.00     0.028 C 
HETATM    7  H   UNL     1      60.750   9.205   4.338  1.00  0.00     0.277 HD
HETATM    8  H   UNL     1      60.795   9.628   2.721  1.00  0.00     0.277 HD
ENDROOT
BRANCH   1   9
HETATM    9  C   UNL     1      62.457   7.541   5.684  1.00  0.00     0.178 C 
HETATM   10  O   UNL     1      62.790   7.612   6.860  1.00  0.00    -0.648 OA
HETATM   11  O   UNL     1      61.333   6.899   5.296  1.00  0.00    -0.648 OA
ENDBRANCH   1   9
TORSDOF 1
ENDMDL
MODEL 6
REMARK VINA RESULT:      -3.7      2.996      4.034
REMARK  1 active torsions:
REMARK  status: ('A' for Active; 'I' for Inactive)
REMARK    1  A    between atoms: C_1  and  C_2 
ROOT
HETATM    1  C   UNL     1      63.243   8.273   4.525  1.00  0.00     0.112 C 
HETATM    2  N   UNL     1      61.381   9.537   3.489  1.00  0.00    -0.074 N 
HETATM    3  C   UNL     1      62.426   8.522   3.256  1.00  0.00     0.247 C 
HETATM    4  C   UNL     1      63.837   9.576   5.070  1.00  0.00     0.019 C 
HETATM    5  C   UNL     1      61.986  10.820   3.885  1.00  0.00     0.232 C 
HETATM    6  C   UNL     1      62.784  10.679   5.179  1.00  0.00     0.028 C 
HETATM    7  H   UNL     1      60.761   9.215   4.231  1.00  0.00     0.277 HD
HETATM    8  H   UNL     1      60.855   9.673   2.626  1.00  0.00     0.277 HD
ENDROOT
BRANCH   1   9
HETATM    9  C   UNL     1      62.450   7.552   5.602  1.00  0.00     0.178 C 
HETATM   10  O   UNL     1      61.411   6.945   5.371  1.00  0.00    -0.648 OA
HETATM   11  O   UNL     1      63.011   7.567   6.832  1.00  0.00    -0.648 OA
ENDBRANCH   1   9
TORSDOF 1
ENDMDL
MODEL 7
REMARK VINA RESULT:      -3.7      4.228      4.895
REMARK  1 active torsions:
REMARK  status: ('A' for Active; 'I' for Inactive)
REMARK    1  A    between atoms: C_1  and  C_2 
ROOT
HETATM    1  C   UNL     1      65.192   7.014   5.255  1.00  0.00     0.112 C 
HETATM    2  N   UNL     1      63.140   7.921   6.307  1.00  0.00    -0.074 N 
HETATM    3  C   UNL     1      64.137   6.834   6.349  1.00  0.00     0.247 C 
HETATM    4  C   UNL     1      64.545   7.129   3.871  1.00  0.00     0.019 C 
HETATM    5  C   UNL     1      62.438   7.928   5.012  1.00  0.00     0.232 C 
HETATM    6  C   UNL     1      63.412   8.154   3.858  1.00  0.00     0.028 C 
HETATM    7  H   UNL     1      63.613   8.814   6.438  1.00  0.00     0.277 HD
HETATM    8  H   UNL     1      62.459   7.771   7.051  1.00  0.00     0.277 HD
ENDROOT
BRANCH   1   9
HETATM    9  C   UNL     1      66.115   8.192   5.517  1.00  0.00     0.178 C 
HETATM   10  O   UNL     1      65.874   9.055   6.352  1.00  0.00    -0.648 OA
HETATM   11  O   UNL     1      67.266   8.184   4.808  1.00  0.00    -0.648 OA
ENDBRANCH   1   9
TORSDOF 1
ENDMDL
MODEL 8
REMARK VINA RESULT:      -3.7      6.956      7.856
REMARK  1 active torsions:
REMARK  status: ('A' for Active; 'I' for Inactive)
REMARK    1  A    between atoms: C_1  and  C_2 
ROOT
HETATM    1  C   UNL     1      67.011   7.016   7.459  1.00  0.00     0.112 C 
HETATM    2  N   UNL     1      66.178   5.014   8.657  1.00  0.00    -0.074 N 
HETATM    3  C   UNL     1      66.858   6.314   8.810  1.00  0.00     0.247 C 
HETATM    4  C   UNL     1      67.730   6.122   6.445  1.00  0.00     0.019 C 
HETATM    5  C   UNL     1      66.957   4.123   7.782  1.00  0.00     0.232 C 
HETATM    6  C   UNL     1      67.118   4.723   6.387  1.00  0.00     0.028 C 
HETATM    7  H   UNL     1      65.256   5.164   8.249  1.00  0.00     0.277 HD
HETATM    8  H   UNL     1      66.089   4.579   9.576  1.00  0.00     0.277 HD
ENDROOT
BRANCH   1   9
HETATM    9  C   UNL     1      65.686   7.507   6.899  1.00  0.00     0.178 C 
HETATM   10  O   UNL     1      64.608   7.015   7.210  1.00  0.00    -0.648 OA
HETATM   11  O   UNL     1      65.774   8.579   6.081  1.00  0.00    -0.648 OA
ENDBRANCH   1   9
TORSDOF 1
ENDMDL
MODEL 9
REMARK VINA RESULT:      -3.4      7.063      8.039
REMARK  1 active torsions:
REMARK  status: ('A' for Active; 'I' for Inactive)
REMARK    1  A    between atoms: C_1  and  C_2 
ROOT
HETATM    1  C   UNL     1      65.792   5.513   6.999  1.00  0.00     0.112 C 
HETATM    2  N   UNL     1      65.835   7.965   6.650  1.00  0.00    -0.074 N 
HETATM    3  C   UNL     1      64.972   6.769   6.700  1.00  0.00     0.247 C 
HETATM    4  C   UNL     1      66.933   5.339   5.993  1.00  0.00     0.019 C 
HETATM    5  C   UNL     1      66.843   7.830   5.585  1.00  0.00     0.232 C 
HETATM    6  C   UNL     1      67.746   6.623   5.829  1.00  0.00     0.028 C 
HETATM    7  H   UNL     1      66.307   8.076   7.546  1.00  0.00     0.277 HD
HETATM    8  H   UNL     1      65.255   8.781   6.453  1.00  0.00     0.277 HD
ENDROOT
BRANCH   1   9
HETATM    9  C   UNL     1      66.321   5.482   8.424  1.00  0.00     0.178 C 
HETATM   10  O   UNL     1      66.267   6.448   9.175  1.00  0.00    -0.648 OA
HETATM   11  O   UNL     1      66.796   4.284   8.831  1.00  0.00    -0.648 OA
ENDBRANCH   1   9
TORSDOF 1
ENDMDL
