MODEL 1
REMARK VINA RESULT:      -3.6      0.000      0.000
REMARK  1 active torsions:
REMARK  status: ('A' for Active; 'I' for Inactive)
REMARK    1  A    between atoms: C_3  and  N_5 
ROOT
HETATM    1  C   UNL     1      63.019  10.689   5.401  1.00  0.00     0.289 C 
HETATM    2  O   UNL     1      62.039  11.058   4.555  1.00  0.00    -0.320 OA
HETATM    3  C   UNL     1      63.507   9.300   5.141  1.00  0.00     0.284 C 
HETATM    4  O   UNL     1      63.348  11.360   6.365  1.00  0.00    -0.263 OA
HETATM    5  C   UNL     1      61.701  10.010   3.730  1.00  0.00     0.181 C 
HETATM    6  C   UNL     1      62.935   9.120   3.740  1.00  0.00     0.070 C 
ENDROOT
BRANCH   3   7
HETATM    7  N   UNL     1      62.924   8.336   6.085  1.00  0.00    -0.066 N 
HETATM    8  H   UNL     1      63.594   7.589   6.266  1.00  0.00     0.275 HD
HETATM    9  H   UNL     1      62.073   7.941   5.685  1.00  0.00     0.275 HD
HETATM   10  H   UNL     1      62.700   8.811   6.960  1.00  0.00     0.275 HD
ENDBRANCH   3   7
TORSDOF 1
ENDMDL
MODEL 2
REMARK VINA RESULT:      -3.6      1.952      2.325
REMARK  1 active torsions:
REMARK  status: ('A' for Active; 'I' for Inactive)
REMARK    1  A    between atoms: C_3  and  N_5 
ROOT
HETATM    1  C   UNL     1      62.265  10.718   4.016  1.00  0.00     0.289 C 
HETATM    2  O   UNL     1      62.049  11.902   3.413  1.00  0.00    -0.320 OA
HETATM    3  C   UNL     1      62.012   9.558   3.107  1.00  0.00     0.284 C 
HETATM    4  O   UNL     1      62.484  10.615   5.212  1.00  0.00    -0.263 OA
HETATM    5  C   UNL     1      61.571  11.708   2.137  1.00  0.00     0.181 C 
HETATM    6  C   UNL     1      62.036  10.305   1.779  1.00  0.00     0.070 C 
ENDROOT
BRANCH   3   7
HETATM    7  N   UNL     1      60.696   8.952   3.357  1.00  0.00    -0.066 N 
HETATM    8  H   UNL     1      60.325   8.573   2.486  1.00  0.00     0.275 HD
HETATM    9  H   UNL     1      60.058   9.663   3.717  1.00  0.00     0.275 HD
HETATM   10  H   UNL     1      60.791   8.203   4.042  1.00  0.00     0.275 HD
ENDBRANCH   3   7
TORSDOF 1
ENDMDL
MODEL 3
REMARK VINA RESULT:      -3.2      5.371      6.328
REMARK  1 active torsions:
REMARK  status: ('A' for Active; 'I' for Inactive)
REMARK    1  A    between atoms: C_3  and  N_5 
ROOT
HETATM    1  C   UNL     1      65.823   6.664   7.710  1.00  0.00     0.289 C 
HETATM    2  O   UNL     1      66.182   6.374   8.975  1.00  0.00    -0.320 OA
HETATM    3  C   UNL     1      66.982   6.636   6.766  1.00  0.00     0.284 C 
HETATM    4  O   UNL     1      64.708   7.058   7.412  1.00  0.00    -0.263 OA
HETATM    5  C   UNL     1      67.546   6.213   9.059  1.00  0.00     0.181 C 
HETATM    6  C   UNL     1      67.964   5.865   7.639  1.00  0.00     0.070 C 
ENDROOT
BRANCH   3   7
HETATM    7  N   UNL     1      67.473   7.991   6.474  1.00  0.00    -0.066 N 
HETATM    8  H   UNL     1      68.267   7.935   5.836  1.00  0.00     0.275 HD
HETATM    9  H   UNL     1      67.766   8.440   7.342  1.00  0.00     0.275 HD
HETATM   10  H   UNL     1      66.728   8.538   6.044  1.00  0.00     0.275 HD
ENDBRANCH   3   7
TORSDOF 1
ENDMDL
MODEL 4
REMARK VINA RESULT:      -3.1      1.724      2.322
REMARK  1 active torsions:
REMARK  status: ('A' for Active; 'I' for Inactive)
REMARK    1  A    between atoms: C_3  and  N_5 
ROOT
HETATM    1  C   UNL     1      62.419  10.733   4.715  1.00  0.00     0.289 C 
HETATM    2  O   UNL     1      63.502  10.333   5.409  1.00  0.00    -0.320 OA
HETATM    3  C   UNL     1      61.854   9.645   3.859  1.00  0.00     0.284 C 
HETATM    4  O   UNL     1      62.051  11.895   4.677  1.00  0.00    -0.263 OA
HETATM    5  C   UNL     1      63.838   9.043   5.068  1.00  0.00     0.181 C 
HETATM    6  C   UNL     1      62.545   8.458   4.519  1.00  0.00     0.070 C 
ENDROOT
BRANCH   3   7
HETATM    7  N   UNL     1      62.268   9.792   2.456  1.00  0.00    -0.066 N 
HETATM    8  H   UNL     1      63.126   9.264   2.297  1.00  0.00     0.275 HD
HETATM    9  H   UNL     1      62.434  10.778   2.252  1.00  0.00     0.275 HD
HETATM   10  H   UNL     1      61.532   9.438   1.845  1.00  0.00     0.275 HD
ENDBRANCH   3   7
TORSDOF 1
ENDMDL
MODEL 5
REMARK VINA RESULT:      -3.1      1.796      2.108
REMARK  1 active torsions:
REMARK  status: ('A' for Active; 'I' for Inactive)
REMARK    1  A    between atoms: C_3  and  N_5 
ROOT
HETATM    1  C   UNL     1      62.172  10.708   4.101  1.00  0.00     0.289 C 
HETATM    2  O   UNL     1      61.609   9.498   3.919  1.00  0.00    -0.320 OA
HETATM    3  C   UNL     1      63.309  10.669   5.071  1.00  0.00     0.284 C 
HETATM    4  O   UNL     1      61.697  11.734   3.644  1.00  0.00    -0.263 OA
HETATM    5  C   UNL     1      62.193   8.570   4.750  1.00  0.00     0.181 C 
HETATM    6  C   UNL     1      63.556   9.166   5.068  1.00  0.00     0.070 C 
ENDROOT
BRANCH   3   7
HETATM    7  N   UNL     1      62.901  11.143   6.401  1.00  0.00    -0.066 N 
HETATM    8  H   UNL     1      63.644  11.714   6.803  1.00  0.00     0.275 HD
HETATM    9  H   UNL     1      62.723  10.341   7.007  1.00  0.00     0.275 HD
HETATM   10  H   UNL     1      62.050  11.700   6.318  1.00  0.00     0.275 HD
ENDBRANCH   3   7
TORSDOF 1
ENDMDL
MODEL 6
REMARK VINA RESULT:      -3.1      4.386      5.235
REMARK  1 active torsions:
REMARK  status: ('A' for Active; 'I' for Inactive)
REMARK    1  A    between atoms: C_3  and  N_5 
ROOT
HETATM    1  C   UNL     1      66.013   8.038   6.051  1.00  0.00     0.289 C 
HETATM    2  O   UNL     1      66.151   7.540   7.294  1.00  0.00    -0.320 OA
HETATM    3  C   UNL     1      66.833   7.298   5.043  1.00  0.00     0.284 C 
HETATM    4  O   UNL     1      65.412   9.073   5.816  1.00  0.00    -0.263 OA
HETATM    5  C   UNL     1      67.084   6.528   7.302  1.00  0.00     0.181 C 
HETATM    6  C   UNL     1      67.113   6.043   5.860  1.00  0.00     0.070 C 
ENDROOT
BRANCH   3   7
HETATM    7  N   UNL     1      68.075   8.018   4.724  1.00  0.00    -0.066 N 
HETATM    8  H   UNL     1      68.345   8.600   5.517  1.00  0.00     0.275 HD
HETATM    9  H   UNL     1      67.925   8.607   3.905  1.00  0.00     0.275 HD
HETATM   10  H   UNL     1      68.817   7.345   4.527  1.00  0.00     0.275 HD
ENDBRANCH   3   7
TORSDOF 1
ENDMDL
MODEL 7
REMARK VINA RESULT:      -3.0      2.866      3.638
REMARK  1 active torsions:
REMARK  status: ('A' for Active; 'I' for Inactive)
REMARK    1  A    between atoms: C_3  and  N_5 
ROOT
HETATM    1  C   UNL     1      62.629   8.873   2.663  1.00  0.00     0.289 C 
HETATM    2  O   UNL     1      62.669   9.659   3.755  1.00  0.00    -0.320 OA
HETATM    3  C   UNL     1      61.881   9.502   1.532  1.00  0.00     0.284 C 
HETATM    4  O   UNL     1      63.023   7.719   2.664  1.00  0.00    -0.263 OA
HETATM    5  C   UNL     1      61.930  10.801   3.549  1.00  0.00     0.181 C 
HETATM    6  C   UNL     1      61.883  10.941   2.035  1.00  0.00     0.070 C 
ENDROOT
BRANCH   3   7
HETATM    7  N   UNL     1      60.513   8.973   1.429  1.00  0.00    -0.066 N 
HETATM    8  H   UNL     1      59.903   9.477   2.073  1.00  0.00     0.275 HD
HETATM    9  H   UNL     1      60.514   7.981   1.667  1.00  0.00     0.275 HD
HETATM   10  H   UNL     1      60.173   9.093   0.474  1.00  0.00     0.275 HD
ENDBRANCH   3   7
TORSDOF 1
ENDMDL
MODEL 8
REMARK VINA RESULT:      -3.0      1.615      2.083
REMARK  1 active torsions:
REMARK  status: ('A' for Active; 'I' for Inactive)
REMARK    1  A    between atoms: C_3  and  N_5 
ROOT
HETATM    1  C   UNL     1      64.344   9.140   5.356  1.00  0.00     0.289 C 
HETATM    2  O   UNL     1      64.096  10.402   5.755  1.00  0.00    -0.320 OA
HETATM    3  C   UNL     1      63.248   8.583   4.504  1.00  0.00     0.284 C 
HETATM    4  O   UNL     1      65.280   8.484   5.781  1.00  0.00    -0.263 OA
HETATM    5  C   UNL     1      62.850  10.802   5.329  1.00  0.00     0.181 C 
HETATM    6  C   UNL     1      62.557   9.893   4.144  1.00  0.00     0.070 C 
ENDROOT
BRANCH   3   7
HETATM    7  N   UNL     1      62.359   7.703   5.275  1.00  0.00    -0.066 N 
HETATM    8  H   UNL     1      62.899   7.213   5.988  1.00  0.00     0.275 HD
HETATM    9  H   UNL     1      61.928   7.023   4.648  1.00  0.00     0.275 HD
HETATM   10  H   UNL     1      61.631   8.261   5.723  1.00  0.00     0.275 HD
ENDBRANCH   3   7
TORSDOF 1
ENDMDL
MODEL 9
REMARK VINA RESULT:      -2.9      2.571      2.989
REMARK  1 active torsions:
REMARK  status: ('A' for Active; 'I' for Inactive)
REMARK    1  A    between atoms: C_3  and  N_5 
ROOT
HETATM    1  C   UNL     1      65.571   8.519   5.845  1.00  0.00     0.289 C 
HETATM    2  O   UNL     1      64.711   9.496   5.500  1.00  0.00    -0.320 OA
HETATM    3  C   UNL     1      65.157   7.182   5.317  1.00  0.00     0.284 C 
HETATM    4  O   UNL     1      66.487   8.690   6.631  1.00  0.00    -0.263 OA
HETATM    5  C   UNL     1      63.637   8.971   4.820  1.00  0.00     0.181 C 
HETATM    6  C   UNL     1      64.161   7.654   4.266  1.00  0.00     0.070 C 
ENDROOT
BRANCH   3   7
HETATM    7  N   UNL     1      64.500   6.372   6.353  1.00  0.00    -0.066 N 
HETATM    8  H   UNL     1      64.550   5.386   6.097  1.00  0.00     0.275 HD
HETATM    9  H   UNL     1      63.522   6.653   6.434  1.00  0.00     0.275 HD
HETATM   10  H   UNL     1      64.969   6.517   7.247  1.00  0.00     0.275 HD
ENDBRANCH   3   7
TORSDOF 1
ENDMDL
