MODEL 1
REMARK VINA RESULT:      -5.1      0.000      0.000
REMARK  1 active torsions:
REMARK  status: ('A' for Active; 'I' for Inactive)
REMARK    1  A    between atoms: C_3  and  C_7 
ROOT
HETATM    1  N   UNL     1      63.462   7.758   6.381  1.00  0.00    -0.300 N 
ATOM      2  HN  UNL     1      62.488   7.777   6.684  1.00  0.00     0.187 HD
HETATM    3  C   UNL     1      64.007   8.401   5.332  1.00  0.00     0.059 A 
HETATM    4  N   UNL     1      64.478   7.087   6.940  1.00  0.00    -0.311 N 
HETATM    5  C   UNL     1      65.400   8.114   5.258  1.00  0.00     0.050 A 
HETATM    6  C   UNL     1      65.666   7.267   6.306  1.00  0.00     0.109 A 
HETATM    7  H   UNL     1      64.373   6.516   7.736  1.00  0.00     0.186 HD
ENDROOT
BRANCH   3   8
HETATM    8  C   UNL     1      63.203   9.251   4.442  1.00  0.00    -0.008 A 
HETATM    9  C   UNL     1      62.853   8.806   3.157  1.00  0.00     0.014 A 
HETATM   10  C   UNL     1      62.095   9.610   2.300  1.00  0.00     0.001 A 
HETATM   11  C   UNL     1      61.675  10.870   2.717  1.00  0.00     0.000 A 
HETATM   12  C   UNL     1      62.011  11.327   3.988  1.00  0.00     0.001 A 
HETATM   13  C   UNL     1      62.770  10.523   4.846  1.00  0.00     0.014 A 
ENDBRANCH   3   8
TORSDOF 1
ENDMDL
MODEL 2
REMARK VINA RESULT:      -5.1      0.060      1.454
REMARK  1 active torsions:
REMARK  status: ('A' for Active; 'I' for Inactive)
REMARK    1  A    between atoms: C_3  and  C_7 
ROOT
HETATM    1  N   UNL     1      63.446   7.794   6.390  1.00  0.00    -0.300 N 
ATOM      2  HN  UNL     1      62.486   7.875   6.725  1.00  0.00     0.187 HD
HETATM    3  C   UNL     1      63.987   8.374   5.303  1.00  0.00     0.059 A 
HETATM    4  N   UNL     1      64.444   7.087   6.938  1.00  0.00    -0.311 N 
HETATM    5  C   UNL     1      65.360   8.010   5.192  1.00  0.00     0.050 A 
HETATM    6  C   UNL     1      65.617   7.183   6.257  1.00  0.00     0.109 A 
HETATM    7  H   UNL     1      64.337   6.549   7.754  1.00  0.00     0.186 HD
ENDROOT
BRANCH   3   8
HETATM    8  C   UNL     1      63.197   9.236   4.413  1.00  0.00    -0.008 A 
HETATM    9  C   UNL     1      62.773  10.504   4.841  1.00  0.00     0.014 A 
HETATM   10  C   UNL     1      62.014  11.329   4.005  1.00  0.00     0.001 A 
HETATM   11  C   UNL     1      61.670  10.897   2.726  1.00  0.00     0.000 A 
HETATM   12  C   UNL     1      62.083   9.643   2.284  1.00  0.00     0.001 A 
HETATM   13  C   UNL     1      62.842   8.818   3.121  1.00  0.00     0.014 A 
ENDBRANCH   3   8
TORSDOF 1
ENDMDL
MODEL 3
REMARK VINA RESULT:      -4.5      1.830      4.559
REMARK  1 active torsions:
REMARK  status: ('A' for Active; 'I' for Inactive)
REMARK    1  A    between atoms: C_3  and  C_7 
ROOT
HETATM    1  N   UNL     1      63.288  10.678   5.702  1.00  0.00    -0.300 N 
ATOM      2  HN  UNL     1      63.789  10.819   6.579  1.00  0.00     0.187 HD
HETATM    3  C   UNL     1      63.243   9.560   4.954  1.00  0.00     0.059 A 
HETATM    4  N   UNL     1      62.529  11.565   5.043  1.00  0.00    -0.311 N 
HETATM    5  C   UNL     1      62.427   9.776   3.807  1.00  0.00     0.050 A 
HETATM    6  C   UNL     1      61.987  11.074   3.897  1.00  0.00     0.109 A 
HETATM    7  H   UNL     1      62.380  12.485   5.358  1.00  0.00     0.186 HD
ENDROOT
BRANCH   3   8
HETATM    8  C   UNL     1      63.970   8.342   5.339  1.00  0.00    -0.008 A 
HETATM    9  C   UNL     1      63.312   7.305   6.019  1.00  0.00     0.014 A 
HETATM   10  C   UNL     1      63.997   6.146   6.398  1.00  0.00     0.001 A 
HETATM   11  C   UNL     1      65.350   6.007   6.100  1.00  0.00     0.000 A 
HETATM   12  C   UNL     1      66.019   7.025   5.425  1.00  0.00     0.001 A 
HETATM   13  C   UNL     1      65.333   8.185   5.047  1.00  0.00     0.014 A 
ENDBRANCH   3   8
TORSDOF 1
ENDMDL
MODEL 4
REMARK VINA RESULT:      -4.4      2.060      3.808
REMARK  1 active torsions:
REMARK  status: ('A' for Active; 'I' for Inactive)
REMARK    1  A    between atoms: C_3  and  C_7 
ROOT
HETATM    1  N   UNL     1      63.948   9.781   5.539  1.00  0.00    -0.300 N 
ATOM      2  HN  UNL     1      64.702   9.235   5.955  1.00  0.00     0.187 HD
HETATM    3  C   UNL     1      63.222   9.480   4.447  1.00  0.00     0.059 A 
HETATM    4  N   UNL     1      63.463  10.957   5.961  1.00  0.00    -0.311 N 
HETATM    5  C   UNL     1      62.263  10.504   4.203  1.00  0.00     0.050 A 
HETATM    6  C   UNL     1      62.448  11.436   5.194  1.00  0.00     0.109 A 
HETATM    7  H   UNL     1      63.810  11.430   6.751  1.00  0.00     0.186 HD
ENDROOT
BRANCH   3   8
HETATM    8  C   UNL     1      63.461   8.251   3.675  1.00  0.00    -0.008 A 
HETATM    9  C   UNL     1      62.730   7.991   2.506  1.00  0.00     0.014 A 
HETATM   10  C   UNL     1      62.943   6.822   1.769  1.00  0.00     0.001 A 
HETATM   11  C   UNL     1      63.892   5.895   2.192  1.00  0.00     0.000 A 
HETATM   12  C   UNL     1      64.628   6.137   3.350  1.00  0.00     0.001 A 
HETATM   13  C   UNL     1      64.414   7.308   4.087  1.00  0.00     0.014 A 
ENDBRANCH   3   8
TORSDOF 1
ENDMDL
MODEL 5
REMARK VINA RESULT:      -4.3      1.847      4.657
REMARK  1 active torsions:
REMARK  status: ('A' for Active; 'I' for Inactive)
REMARK    1  A    between atoms: C_3  and  C_7 
ROOT
HETATM    1  N   UNL     1      64.135   9.829   5.733  1.00  0.00    -0.300 N 
ATOM      2  HN  UNL     1      64.782  10.060   6.488  1.00  0.00     0.187 HD
HETATM    3  C   UNL     1      64.225   8.808   4.862  1.00  0.00     0.059 A 
HETATM    4  N   UNL     1      63.012  10.476   5.393  1.00  0.00    -0.311 N 
HETATM    5  C   UNL     1      63.116   8.834   3.968  1.00  0.00     0.050 A 
HETATM    6  C   UNL     1      62.360   9.919   4.339  1.00  0.00     0.109 A 
HETATM    7  H   UNL     1      62.690  11.279   5.863  1.00  0.00     0.186 HD
ENDROOT
BRANCH   3   8
HETATM    8  C   UNL     1      65.345   7.857   4.897  1.00  0.00    -0.008 A 
HETATM    9  C   UNL     1      65.445   6.838   3.937  1.00  0.00     0.014 A 
HETATM   10  C   UNL     1      66.501   5.922   3.967  1.00  0.00     0.001 A 
HETATM   11  C   UNL     1      67.475   6.014   4.959  1.00  0.00     0.000 A 
HETATM   12  C   UNL     1      67.392   7.019   5.919  1.00  0.00     0.001 A 
HETATM   13  C   UNL     1      66.335   7.935   5.889  1.00  0.00     0.014 A 
ENDBRANCH   3   8
TORSDOF 1
ENDMDL
MODEL 6
REMARK VINA RESULT:      -4.3      2.932      4.787
REMARK  1 active torsions:
REMARK  status: ('A' for Active; 'I' for Inactive)
REMARK    1  A    between atoms: C_3  and  C_7 
ROOT
HETATM    1  N   UNL     1      59.695   8.078   2.802  1.00  0.00    -0.300 N 
ATOM      2  HN  UNL     1      59.394   7.959   3.770  1.00  0.00     0.187 HD
HETATM    3  C   UNL     1      60.933   8.354   2.356  1.00  0.00     0.059 A 
HETATM    4  N   UNL     1      58.941   7.991   1.697  1.00  0.00    -0.311 N 
HETATM    5  C   UNL     1      60.931   8.433   0.934  1.00  0.00     0.050 A 
HETATM    6  C   UNL     1      59.635   8.196   0.547  1.00  0.00     0.109 A 
HETATM    7  H   UNL     1      57.976   7.799   1.717  1.00  0.00     0.186 HD
ENDROOT
BRANCH   3   8
HETATM    8  C   UNL     1      62.064   8.540   3.278  1.00  0.00    -0.008 A 
HETATM    9  C   UNL     1      63.102   7.596   3.331  1.00  0.00     0.014 A 
HETATM   10  C   UNL     1      64.177   7.759   4.209  1.00  0.00     0.001 A 
HETATM   11  C   UNL     1      64.230   8.869   5.048  1.00  0.00     0.000 A 
HETATM   12  C   UNL     1      63.209   9.816   5.009  1.00  0.00     0.001 A 
HETATM   13  C   UNL     1      62.133   9.653   4.129  1.00  0.00     0.014 A 
ENDBRANCH   3   8
TORSDOF 1
ENDMDL
MODEL 7
REMARK VINA RESULT:      -4.2      1.875      2.453
REMARK  1 active torsions:
REMARK  status: ('A' for Active; 'I' for Inactive)
REMARK    1  A    between atoms: C_3  and  C_7 
ROOT
HETATM    1  N   UNL     1      62.755   6.277   3.704  1.00  0.00    -0.300 N 
ATOM      2  HN  UNL     1      62.578   6.029   2.730  1.00  0.00     0.187 HD
HETATM    3  C   UNL     1      62.728   7.504   4.255  1.00  0.00     0.059 A 
HETATM    4  N   UNL     1      63.065   5.452   4.713  1.00  0.00    -0.311 N 
HETATM    5  C   UNL     1      63.026   7.418   5.645  1.00  0.00     0.050 A 
HETATM    6  C   UNL     1      63.237   6.086   5.903  1.00  0.00     0.109 A 
HETATM    7  H   UNL     1      63.159   4.478   4.603  1.00  0.00     0.186 HD
ENDROOT
BRANCH   3   8
HETATM    8  C   UNL     1      62.432   8.703   3.458  1.00  0.00    -0.008 A 
HETATM    9  C   UNL     1      62.231   9.943   4.085  1.00  0.00     0.014 A 
HETATM   10  C   UNL     1      61.940  11.088   3.337  1.00  0.00     0.001 A 
HETATM   11  C   UNL     1      61.847  11.009   1.950  1.00  0.00     0.000 A 
HETATM   12  C   UNL     1      62.045   9.788   1.311  1.00  0.00     0.001 A 
HETATM   13  C   UNL     1      62.336   8.642   2.060  1.00  0.00     0.014 A 
ENDBRANCH   3   8
TORSDOF 1
ENDMDL
MODEL 8
REMARK VINA RESULT:      -4.2      2.600      3.100
REMARK  1 active torsions:
REMARK  status: ('A' for Active; 'I' for Inactive)
REMARK    1  A    between atoms: C_3  and  C_7 
ROOT
HETATM    1  N   UNL     1      61.748   6.607   2.625  1.00  0.00    -0.300 N 
ATOM      2  HN  UNL     1      60.761   6.783   2.442  1.00  0.00     0.187 HD
HETATM    3  C   UNL     1      62.707   7.513   2.893  1.00  0.00     0.059 A 
HETATM    4  N   UNL     1      62.376   5.423   2.652  1.00  0.00    -0.311 N 
HETATM    5  C   UNL     1      63.954   6.855   3.093  1.00  0.00     0.050 A 
HETATM    6  C   UNL     1      63.703   5.515   2.930  1.00  0.00     0.109 A 
HETATM    7  H   UNL     1      61.918   4.568   2.485  1.00  0.00     0.186 HD
ENDROOT
BRANCH   3   8
HETATM    8  C   UNL     1      62.417   8.953   2.943  1.00  0.00    -0.008 A 
HETATM    9  C   UNL     1      62.448   9.644   4.165  1.00  0.00     0.014 A 
HETATM   10  C   UNL     1      62.166  11.012   4.225  1.00  0.00     0.001 A 
HETATM   11  C   UNL     1      61.849  11.710   3.062  1.00  0.00     0.000 A 
HETATM   12  C   UNL     1      61.815  11.041   1.841  1.00  0.00     0.001 A 
HETATM   13  C   UNL     1      62.097   9.672   1.781  1.00  0.00     0.014 A 
ENDBRANCH   3   8
TORSDOF 1
ENDMDL
MODEL 9
REMARK VINA RESULT:      -4.1     13.197     14.525
REMARK  1 active torsions:
REMARK  status: ('A' for Active; 'I' for Inactive)
REMARK    1  A    between atoms: C_3  and  C_7 
ROOT
HETATM    1  N   UNL     1      55.568   2.254  14.507  1.00  0.00    -0.300 N 
ATOM      2  HN  UNL     1      56.056   3.128  14.313  1.00  0.00     0.187 HD
HETATM    3  C   UNL     1      56.043   1.002  14.376  1.00  0.00     0.059 A 
HETATM    4  N   UNL     1      54.311   2.101  14.947  1.00  0.00    -0.311 N 
HETATM    5  C   UNL     1      55.044   0.061  14.755  1.00  0.00     0.050 A 
HETATM    6  C   UNL     1      53.946   0.802  15.115  1.00  0.00     0.109 A 
HETATM    7  H   UNL     1      53.710   2.858  15.131  1.00  0.00     0.186 HD
ENDROOT
BRANCH   3   8
HETATM    8  C   UNL     1      57.408   0.740  13.897  1.00  0.00    -0.008 A 
HETATM    9  C   UNL     1      58.303   1.799  13.679  1.00  0.00     0.014 A 
HETATM   10  C   UNL     1      59.600   1.561  13.215  1.00  0.00     0.001 A 
HETATM   11  C   UNL     1      60.022   0.258  12.963  1.00  0.00     0.000 A 
HETATM   12  C   UNL     1      59.149  -0.805  13.175  1.00  0.00     0.001 A 
HETATM   13  C   UNL     1      57.850  -0.567  13.639  1.00  0.00     0.014 A 
ENDBRANCH   3   8
TORSDOF 1
ENDMDL
