MODEL 1
REMARK VINA RESULT:      -4.7      0.000      0.000
REMARK  0 active torsions:
REMARK  status: ('A' for Active; 'I' for Inactive)
ROOT
HETATM    1  C   UNL     1      65.356   8.240   5.502  1.00  0.00     0.222 A 
HETATM    2  N   UNL     1      64.735   7.686   4.402  1.00  0.00    -0.320 N 
HETATM    3  O   UNL     1      64.759   9.436   5.901  1.00  0.00    -0.282 OA
HETATM    4  C   UNL     1      63.701   8.534   4.061  1.00  0.00     0.070 A 
HETATM    5  C   UNL     1      63.738   9.571   4.974  1.00  0.00     0.105 A 
HETATM    6  S   UNL     1      66.658   7.699   6.376  1.00  0.00    -0.032 SA
HETATM    7  C   UNL     1      65.046   6.469   3.691  1.00  0.00     0.159 C 
HETATM    8  C   UNL     1      62.759   8.478   3.056  1.00  0.00     0.033 A 
HETATM    9  C   UNL     1      62.835  10.613   4.931  1.00  0.00     0.040 A 
HETATM   10  C   UNL     1      61.831   9.524   2.991  1.00  0.00     0.002 A 
HETATM   11  C   UNL     1      61.868  10.583   3.922  1.00  0.00     0.003 A 
ENDROOT
TORSDOF 0
ENDMDL
MODEL 2
REMARK VINA RESULT:      -4.7      1.491      1.586
REMARK  0 active torsions:
REMARK  status: ('A' for Active; 'I' for Inactive)
ROOT
HETATM    1  C   UNL     1      63.509   7.836   5.202  1.00  0.00     0.222 A 
HETATM    2  N   UNL     1      63.280   7.617   3.859  1.00  0.00    -0.320 N 
HETATM    3  O   UNL     1      63.160   9.127   5.596  1.00  0.00    -0.282 OA
HETATM    4  C   UNL     1      62.766   8.792   3.349  1.00  0.00     0.070 A 
HETATM    5  C   UNL     1      62.704   9.677   4.408  1.00  0.00     0.105 A 
HETATM    6  S   UNL     1      64.116   6.814   6.359  1.00  0.00    -0.032 SA
HETATM    7  C   UNL     1      63.507   6.428   3.073  1.00  0.00     0.159 C 
HETATM    8  C   UNL     1      62.358   9.142   2.079  1.00  0.00     0.033 A 
HETATM    9  C   UNL     1      62.233  10.964   4.256  1.00  0.00     0.040 A 
HETATM   10  C   UNL     1      61.876  10.444   1.899  1.00  0.00     0.002 A 
HETATM   11  C   UNL     1      61.813  11.348   2.979  1.00  0.00     0.003 A 
ENDROOT
TORSDOF 0
ENDMDL
MODEL 3
REMARK VINA RESULT:      -4.2      1.993      4.048
REMARK  0 active torsions:
REMARK  status: ('A' for Active; 'I' for Inactive)
ROOT
HETATM    1  C   UNL     1      64.049   9.138   5.001  1.00  0.00     0.222 A 
HETATM    2  N   UNL     1      64.090   8.060   4.140  1.00  0.00    -0.320 N 
HETATM    3  O   UNL     1      65.170   9.198   5.829  1.00  0.00    -0.282 OA
HETATM    4  C   UNL     1      65.267   7.389   4.402  1.00  0.00     0.070 A 
HETATM    5  C   UNL     1      65.893   8.091   5.415  1.00  0.00     0.105 A 
HETATM    6  S   UNL     1      62.896  10.318   5.175  1.00  0.00    -0.032 SA
HETATM    7  C   UNL     1      63.134   7.649   3.140  1.00  0.00     0.159 C 
HETATM    8  C   UNL     1      65.822   6.254   3.848  1.00  0.00     0.033 A 
HETATM    9  C   UNL     1      67.108   7.696   5.932  1.00  0.00     0.040 A 
HETATM   10  C   UNL     1      67.056   5.833   4.356  1.00  0.00     0.002 A 
HETATM   11  C   UNL     1      67.695   6.549   5.390  1.00  0.00     0.003 A 
ENDROOT
TORSDOF 0
ENDMDL
MODEL 4
REMARK VINA RESULT:      -4.2      1.969      2.629
REMARK  0 active torsions:
REMARK  status: ('A' for Active; 'I' for Inactive)
ROOT
HETATM    1  C   UNL     1      63.987   7.000   3.418  1.00  0.00     0.222 A 
HETATM    2  N   UNL     1      64.123   7.762   4.561  1.00  0.00    -0.320 N 
HETATM    3  O   UNL     1      63.188   7.622   2.459  1.00  0.00    -0.282 OA
HETATM    4  C   UNL     1      63.398   8.918   4.354  1.00  0.00     0.070 A 
HETATM    5  C   UNL     1      62.851   8.808   3.090  1.00  0.00     0.105 A 
HETATM    6  S   UNL     1      64.616   5.510   3.051  1.00  0.00    -0.032 SA
HETATM    7  C   UNL     1      64.857   7.477   5.770  1.00  0.00     0.159 C 
HETATM    8  C   UNL     1      63.184  10.024   5.150  1.00  0.00     0.033 A 
HETATM    9  C   UNL     1      62.056   9.798   2.551  1.00  0.00     0.040 A 
HETATM   10  C   UNL     1      62.381  11.043   4.625  1.00  0.00     0.002 A 
HETATM   11  C   UNL     1      61.822  10.931   3.335  1.00  0.00     0.003 A 
ENDROOT
TORSDOF 0
ENDMDL
MODEL 5
REMARK VINA RESULT:      -4.0      1.861      3.044
REMARK  0 active torsions:
REMARK  status: ('A' for Active; 'I' for Inactive)
ROOT
HETATM    1  C   UNL     1      63.956   7.787   4.614  1.00  0.00     0.222 A 
HETATM    2  N   UNL     1      63.273   8.965   4.394  1.00  0.00    -0.320 N 
HETATM    3  O   UNL     1      63.883   6.921   3.523  1.00  0.00    -0.282 OA
HETATM    4  C   UNL     1      62.734   8.881   3.127  1.00  0.00     0.070 A 
HETATM    5  C   UNL     1      63.114   7.649   2.629  1.00  0.00     0.105 A 
HETATM    6  S   UNL     1      64.813   7.284   5.942  1.00  0.00    -0.032 SA
HETATM    7  C   UNL     1      63.108  10.105   5.265  1.00  0.00     0.159 C 
HETATM    8  C   UNL     1      61.966   9.760   2.393  1.00  0.00     0.033 A 
HETATM    9  C   UNL     1      62.746   7.226   1.369  1.00  0.00     0.040 A 
HETATM   10  C   UNL     1      61.579   9.354   1.111  1.00  0.00     0.002 A 
HETATM   11  C   UNL     1      61.966   8.098   0.602  1.00  0.00     0.003 A 
ENDROOT
TORSDOF 0
ENDMDL
MODEL 6
REMARK VINA RESULT:      -4.0      2.230      2.815
REMARK  0 active torsions:
REMARK  status: ('A' for Active; 'I' for Inactive)
ROOT
HETATM    1  C   UNL     1      65.755   6.595   7.308  1.00  0.00     0.222 A 
HETATM    2  N   UNL     1      66.181   6.325   6.023  1.00  0.00    -0.320 N 
HETATM    3  O   UNL     1      64.483   7.167   7.335  1.00  0.00    -0.282 OA
HETATM    4  C   UNL     1      65.167   6.726   5.177  1.00  0.00     0.070 A 
HETATM    5  C   UNL     1      64.165   7.225   5.988  1.00  0.00     0.105 A 
HETATM    6  S   UNL     1      66.519   6.342   8.758  1.00  0.00    -0.032 SA
HETATM    7  C   UNL     1      67.422   5.742   5.573  1.00  0.00     0.159 C 
HETATM    8  C   UNL     1      65.047   6.693   3.804  1.00  0.00     0.033 A 
HETATM    9  C   UNL     1      62.987   7.720   5.470  1.00  0.00     0.040 A 
HETATM   10  C   UNL     1      63.861   7.190   3.254  1.00  0.00     0.002 A 
HETATM   11  C   UNL     1      62.838   7.699   4.080  1.00  0.00     0.003 A 
ENDROOT
TORSDOF 0
ENDMDL
MODEL 7
REMARK VINA RESULT:      -3.8     13.382     13.795
REMARK  0 active torsions:
REMARK  status: ('A' for Active; 'I' for Inactive)
ROOT
HETATM    1  C   UNL     1      55.105   2.781  12.701  1.00  0.00     0.222 A 
HETATM    2  N   UNL     1      55.372   1.812  13.645  1.00  0.00    -0.320 N 
HETATM    3  O   UNL     1      56.246   3.161  11.994  1.00  0.00    -0.282 OA
HETATM    4  C   UNL     1      56.723   1.540  13.564  1.00  0.00     0.070 A 
HETATM    5  C   UNL     1      57.220   2.360  12.568  1.00  0.00     0.105 A 
HETATM    6  S   UNL     1      53.673   3.522  12.311  1.00  0.00    -0.032 SA
HETATM    7  C   UNL     1      54.476   1.163  14.572  1.00  0.00     0.159 C 
HETATM    8  C   UNL     1      57.530   0.665  14.260  1.00  0.00     0.033 A 
HETATM    9  C   UNL     1      58.553   2.352  12.215  1.00  0.00     0.040 A 
HETATM   10  C   UNL     1      58.887   0.639  13.920  1.00  0.00     0.002 A 
HETATM   11  C   UNL     1      59.395   1.475  12.905  1.00  0.00     0.003 A 
ENDROOT
TORSDOF 0
ENDMDL
MODEL 8
REMARK VINA RESULT:      -3.8      3.017      3.725
REMARK  0 active torsions:
REMARK  status: ('A' for Active; 'I' for Inactive)
ROOT
HETATM    1  C   UNL     1      61.800   7.031   2.807  1.00  0.00     0.222 A 
HETATM    2  N   UNL     1      61.427   8.254   2.288  1.00  0.00    -0.320 N 
HETATM    3  O   UNL     1      62.455   7.153   4.032  1.00  0.00    -0.282 OA
HETATM    4  C   UNL     1      61.843   9.211   3.190  1.00  0.00     0.070 A 
HETATM    5  C   UNL     1      62.454   8.526   4.223  1.00  0.00     0.105 A 
HETATM    6  S   UNL     1      61.584   5.504   2.196  1.00  0.00    -0.032 SA
HETATM    7  C   UNL     1      60.739   8.555   1.056  1.00  0.00     0.159 C 
HETATM    8  C   UNL     1      61.736  10.586   3.188  1.00  0.00     0.033 A 
HETATM    9  C   UNL     1      62.995   9.178   5.312  1.00  0.00     0.040 A 
HETATM   10  C   UNL     1      62.277  11.271   4.282  1.00  0.00     0.002 A 
HETATM   11  C   UNL     1      62.901  10.572   5.337  1.00  0.00     0.003 A 
ENDROOT
TORSDOF 0
ENDMDL
MODEL 9
REMARK VINA RESULT:      -3.8      3.620      3.980
REMARK  0 active torsions:
REMARK  status: ('A' for Active; 'I' for Inactive)
ROOT
HETATM    1  C   UNL     1      60.851   6.564   3.333  1.00  0.00     0.222 A 
HETATM    2  N   UNL     1      60.991   7.083   2.062  1.00  0.00    -0.320 N 
HETATM    3  O   UNL     1      61.102   7.514   4.324  1.00  0.00    -0.282 OA
HETATM    4  C   UNL     1      61.343   8.409   2.212  1.00  0.00     0.070 A 
HETATM    5  C   UNL     1      61.402   8.640   3.573  1.00  0.00     0.105 A 
HETATM    6  S   UNL     1      60.443   5.032   3.819  1.00  0.00    -0.032 SA
HETATM    7  C   UNL     1      60.822   6.434   0.784  1.00  0.00     0.159 C 
HETATM    8  C   UNL     1      61.606   9.401   1.290  1.00  0.00     0.033 A 
HETATM    9  C   UNL     1      61.729   9.876   4.090  1.00  0.00     0.040 A 
HETATM   10  C   UNL     1      61.941  10.664   1.790  1.00  0.00     0.002 A 
HETATM   11  C   UNL     1      62.001  10.900   3.178  1.00  0.00     0.003 A 
ENDROOT
TORSDOF 0
ENDMDL
