MODEL 1
REMARK VINA RESULT:      -5.1      0.000      0.000
REMARK  1 active torsions:
REMARK  status: ('A' for Active; 'I' for Inactive)
REMARK    1  A    between atoms: C_3  and  O_9 
ROOT
HETATM    1  N   UNL     1      62.439  11.676   4.841  1.00  0.00    -0.314 N 
ATOM      2  HN  UNL     1      62.015  12.603   4.810  1.00  0.00     0.170 HD
HETATM    3  C   UNL     1      63.188  11.145   5.772  1.00  0.00     0.268 A 
HETATM    4  O   UNL     1      63.633   9.881   5.575  1.00  0.00    -0.272 OA
HETATM    5  C   UNL     1      63.097   9.565   4.358  1.00  0.00     0.108 A 
HETATM    6  C   UNL     1      62.369  10.663   3.915  1.00  0.00     0.070 A 
HETATM    7  C   UNL     1      63.235   8.369   3.663  1.00  0.00     0.063 A 
HETATM    8  C   UNL     1      61.717  10.588   2.678  1.00  0.00     0.034 A 
HETATM    9  C   UNL     1      62.576   8.316   2.432  1.00  0.00     0.036 A 
HETATM   10  C   UNL     1      61.830   9.397   1.943  1.00  0.00     0.026 A 
HETATM   11 CL   UNL     1      62.683   6.876   1.491  1.00  0.00    -0.084 Cl
ENDROOT
BRANCH   3  12
HETATM   12  O   UNL     1      63.543  11.739   6.886  1.00  0.00    -0.326 OA
HETATM   13  H   UNL     1      64.444  11.751   7.143  1.00  0.00     0.221 HD
ENDBRANCH   3  12
TORSDOF 1
ENDMDL
MODEL 2
REMARK VINA RESULT:      -5.0      1.330      1.987
REMARK  1 active torsions:
REMARK  status: ('A' for Active; 'I' for Inactive)
REMARK    1  A    between atoms: C_3  and  O_9 
ROOT
HETATM    1  N   UNL     1      64.042   9.708   5.675  1.00  0.00    -0.314 N 
ATOM      2  HN  UNL     1      64.752   9.239   6.238  1.00  0.00     0.170 HD
HETATM    3  C   UNL     1      63.521  10.896   5.834  1.00  0.00     0.268 A 
HETATM    4  O   UNL     1      62.584  11.295   4.940  1.00  0.00    -0.272 OA
HETATM    5  C   UNL     1      62.497  10.219   4.102  1.00  0.00     0.108 A 
HETATM    6  C   UNL     1      63.389   9.254   4.555  1.00  0.00     0.070 A 
HETATM    7  C   UNL     1      61.676  10.084   2.990  1.00  0.00     0.063 A 
HETATM    8  C   UNL     1      63.487   8.043   3.857  1.00  0.00     0.034 A 
HETATM    9  C   UNL     1      61.791   8.869   2.309  1.00  0.00     0.036 A 
HETATM   10  C   UNL     1      62.675   7.865   2.726  1.00  0.00     0.026 A 
HETATM   11 CL   UNL     1      60.816   8.600   0.913  1.00  0.00    -0.084 Cl
ENDROOT
BRANCH   3  12
HETATM   12  O   UNL     1      63.834  11.738   6.790  1.00  0.00    -0.326 OA
HETATM   13  H   UNL     1      63.315  12.506   6.926  1.00  0.00     0.221 HD
ENDBRANCH   3  12
TORSDOF 1
ENDMDL
MODEL 3
REMARK VINA RESULT:      -5.0      2.429      3.101
REMARK  1 active torsions:
REMARK  status: ('A' for Active; 'I' for Inactive)
REMARK    1  A    between atoms: C_3  and  O_9 
ROOT
HETATM    1  N   UNL     1      63.091   7.213   4.688  1.00  0.00    -0.314 N 
ATOM      2  HN  UNL     1      63.240   6.227   4.472  1.00  0.00     0.170 HD
HETATM    3  C   UNL     1      63.206   7.829   5.835  1.00  0.00     0.268 A 
HETATM    4  O   UNL     1      62.951   9.159   5.862  1.00  0.00    -0.272 OA
HETATM    5  C   UNL     1      62.631   9.425   4.561  1.00  0.00     0.108 A 
HETATM    6  C   UNL     1      62.718   8.235   3.849  1.00  0.00     0.070 A 
HETATM    7  C   UNL     1      62.279  10.654   4.015  1.00  0.00     0.063 A 
HETATM    8  C   UNL     1      62.435   8.244   2.477  1.00  0.00     0.034 A 
HETATM    9  C   UNL     1      62.000  10.640   2.646  1.00  0.00     0.036 A 
HETATM   10  C   UNL     1      62.074   9.466   1.885  1.00  0.00     0.026 A 
HETATM   11 CL   UNL     1      61.554  12.114   1.871  1.00  0.00    -0.084 Cl
ENDROOT
BRANCH   3  12
HETATM   12  O   UNL     1      63.551   7.263   6.967  1.00  0.00    -0.326 OA
HETATM   13  H   UNL     1      64.455   7.209   7.208  1.00  0.00     0.221 HD
ENDBRANCH   3  12
TORSDOF 1
ENDMDL
MODEL 4
REMARK VINA RESULT:      -4.5      2.952      3.659
REMARK  1 active torsions:
REMARK  status: ('A' for Active; 'I' for Inactive)
REMARK    1  A    between atoms: C_3  and  O_9 
ROOT
HETATM    1  N   UNL     1      66.192   7.070   5.342  1.00  0.00    -0.314 N 
ATOM      2  HN  UNL     1      66.784   6.241   5.292  1.00  0.00     0.170 HD
HETATM    3  C   UNL     1      66.269   8.086   6.162  1.00  0.00     0.268 A 
HETATM    4  O   UNL     1      65.353   9.075   6.024  1.00  0.00    -0.272 OA
HETATM    5  C   UNL     1      64.593   8.631   4.978  1.00  0.00     0.108 A 
HETATM    6  C   UNL     1      65.109   7.408   4.567  1.00  0.00     0.070 A 
HETATM    7  C   UNL     1      63.496   9.264   4.407  1.00  0.00     0.063 A 
HETATM    8  C   UNL     1      64.498   6.741   3.497  1.00  0.00     0.034 A 
HETATM    9  C   UNL     1      62.902   8.581   3.342  1.00  0.00     0.036 A 
HETATM   10  C   UNL     1      63.386   7.346   2.890  1.00  0.00     0.026 A 
HETATM   11 CL   UNL     1      61.534   9.282   2.562  1.00  0.00    -0.084 Cl
ENDROOT
BRANCH   3  12
HETATM   12  O   UNL     1      67.164   8.228   7.110  1.00  0.00    -0.326 OA
HETATM   13  H   UNL     1      67.303   7.539   7.729  1.00  0.00     0.221 HD
ENDBRANCH   3  12
TORSDOF 1
ENDMDL
MODEL 5
REMARK VINA RESULT:      -4.4      1.715      2.529
REMARK  1 active torsions:
REMARK  status: ('A' for Active; 'I' for Inactive)
REMARK    1  A    between atoms: C_3  and  O_9 
ROOT
HETATM    1  N   UNL     1      63.318  10.350   5.536  1.00  0.00    -0.314 N 
ATOM      2  HN  UNL     1      63.650  10.682   6.442  1.00  0.00     0.170 HD
HETATM    3  C   UNL     1      62.536  10.950   4.677  1.00  0.00     0.268 A 
HETATM    4  O   UNL     1      62.238  10.290   3.532  1.00  0.00    -0.272 OA
HETATM    5  C   UNL     1      62.920   9.116   3.681  1.00  0.00     0.108 A 
HETATM    6  C   UNL     1      63.578   9.158   4.905  1.00  0.00     0.070 A 
HETATM    7  C   UNL     1      62.970   8.052   2.788  1.00  0.00     0.063 A 
HETATM    8  C   UNL     1      64.354   8.058   5.294  1.00  0.00     0.034 A 
HETATM    9  C   UNL     1      63.750   6.967   3.196  1.00  0.00     0.036 A 
HETATM   10  C   UNL     1      64.431   6.962   4.420  1.00  0.00     0.026 A 
HETATM   11 CL   UNL     1      63.878   5.596   2.159  1.00  0.00    -0.084 Cl
ENDROOT
BRANCH   3  12
HETATM   12  O   UNL     1      62.015  12.144   4.833  1.00  0.00    -0.326 OA
HETATM   13  H   UNL     1      62.569  12.899   4.841  1.00  0.00     0.221 HD
ENDBRANCH   3  12
TORSDOF 1
ENDMDL
MODEL 6
REMARK VINA RESULT:      -4.4      2.185      2.476
REMARK  1 active torsions:
REMARK  status: ('A' for Active; 'I' for Inactive)
REMARK    1  A    between atoms: C_3  and  O_9 
ROOT
HETATM    1  N   UNL     1      63.190   8.915   5.949  1.00  0.00    -0.314 N 
ATOM      2  HN  UNL     1      63.045   9.594   6.696  1.00  0.00     0.170 HD
HETATM    3  C   UNL     1      63.737   7.729   6.009  1.00  0.00     0.268 A 
HETATM    4  O   UNL     1      63.813   7.013   4.862  1.00  0.00    -0.272 OA
HETATM    5  C   UNL     1      63.238   7.853   3.950  1.00  0.00     0.108 A 
HETATM    6  C   UNL     1      62.859   9.012   4.618  1.00  0.00     0.070 A 
HETATM    7  C   UNL     1      63.049   7.620   2.593  1.00  0.00     0.063 A 
HETATM    8  C   UNL     1      62.240  10.038   3.894  1.00  0.00     0.034 A 
HETATM    9  C   UNL     1      62.430   8.657   1.891  1.00  0.00     0.036 A 
HETATM   10  C   UNL     1      62.030   9.844   2.519  1.00  0.00     0.026 A 
HETATM   11 CL   UNL     1      62.149   8.468   0.201  1.00  0.00    -0.084 Cl
ENDROOT
BRANCH   3  12
HETATM   12  O   UNL     1      64.220   7.174   7.095  1.00  0.00    -0.326 OA
HETATM   13  H   UNL     1      64.482   7.708   7.818  1.00  0.00     0.221 HD
ENDBRANCH   3  12
TORSDOF 1
ENDMDL
MODEL 7
REMARK VINA RESULT:      -4.3      2.722      3.451
REMARK  1 active torsions:
REMARK  status: ('A' for Active; 'I' for Inactive)
REMARK    1  A    between atoms: C_3  and  O_9 
ROOT
HETATM    1  N   UNL     1      63.368   8.381   6.083  1.00  0.00    -0.314 N 
ATOM      2  HN  UNL     1      63.668   8.463   7.055  1.00  0.00     0.170 HD
HETATM    3  C   UNL     1      63.299   7.314   5.332  1.00  0.00     0.268 A 
HETATM    4  O   UNL     1      62.864   7.470   4.059  1.00  0.00    -0.272 OA
HETATM    5  C   UNL     1      62.622   8.813   3.990  1.00  0.00     0.108 A 
HETATM    6  C   UNL     1      62.932   9.364   5.228  1.00  0.00     0.070 A 
HETATM    7  C   UNL     1      62.152   9.528   2.896  1.00  0.00     0.063 A 
HETATM    8  C   UNL     1      62.767  10.743   5.415  1.00  0.00     0.034 A 
HETATM    9  C   UNL     1      61.995  10.901   3.104  1.00  0.00     0.036 A 
HETATM   10  C   UNL     1      62.293  11.504   4.334  1.00  0.00     0.026 A 
HETATM   11 CL   UNL     1      61.416  11.880   1.810  1.00  0.00    -0.084 Cl
ENDROOT
BRANCH   3  12
HETATM   12  O   UNL     1      63.618   6.099   5.711  1.00  0.00    -0.326 OA
HETATM   13  H   UNL     1      64.202   5.972   6.432  1.00  0.00     0.221 HD
ENDBRANCH   3  12
TORSDOF 1
ENDMDL
MODEL 8
REMARK VINA RESULT:      -4.2      2.796      3.631
REMARK  1 active torsions:
REMARK  status: ('A' for Active; 'I' for Inactive)
REMARK    1  A    between atoms: C_3  and  O_9 
ROOT
HETATM    1  N   UNL     1      62.246   8.735   3.114  1.00  0.00    -0.314 N 
ATOM      2  HN  UNL     1      61.615   8.463   2.360  1.00  0.00     0.170 HD
HETATM    3  C   UNL     1      62.180   9.772   3.908  1.00  0.00     0.268 A 
HETATM    4  O   UNL     1      63.152   9.911   4.840  1.00  0.00    -0.272 OA
HETATM    5  C   UNL     1      63.942   8.820   4.611  1.00  0.00     0.108 A 
HETATM    6  C   UNL     1      63.384   8.105   3.557  1.00  0.00     0.070 A 
HETATM    7  C   UNL     1      65.098   8.460   5.292  1.00  0.00     0.063 A 
HETATM    8  C   UNL     1      64.015   6.931   3.127  1.00  0.00     0.034 A 
HETATM    9  C   UNL     1      65.711   7.285   4.847  1.00  0.00     0.036 A 
HETATM   10  C   UNL     1      65.188   6.531   3.788  1.00  0.00     0.026 A 
HETATM   11 CL   UNL     1      67.152   6.750   5.626  1.00  0.00    -0.084 Cl
ENDROOT
BRANCH   3  12
HETATM   12  O   UNL     1      61.245  10.691   3.875  1.00  0.00    -0.326 OA
HETATM   13  H   UNL     1      60.708  10.786   3.114  1.00  0.00     0.221 HD
ENDBRANCH   3  12
TORSDOF 1
ENDMDL
MODEL 9
REMARK VINA RESULT:      -4.0      6.043      6.969
REMARK  1 active torsions:
REMARK  status: ('A' for Active; 'I' for Inactive)
REMARK    1  A    between atoms: C_3  and  O_9 
ROOT
HETATM    1  N   UNL     1      68.075   4.759   7.468  1.00  0.00    -0.314 N 
ATOM      2  HN  UNL     1      69.041   4.447   7.369  1.00  0.00     0.170 HD
HETATM    3  C   UNL     1      67.136   4.292   8.249  1.00  0.00     0.268 A 
HETATM    4  O   UNL     1      65.920   4.887   8.193  1.00  0.00    -0.272 OA
HETATM    5  C   UNL     1      66.109   5.861   7.254  1.00  0.00     0.108 A 
HETATM    6  C   UNL     1      67.425   5.779   6.815  1.00  0.00     0.070 A 
HETATM    7  C   UNL     1      65.175   6.784   6.799  1.00  0.00     0.063 A 
HETATM    8  C   UNL     1      67.871   6.681   5.840  1.00  0.00     0.034 A 
HETATM    9  C   UNL     1      65.641   7.674   5.828  1.00  0.00     0.036 A 
HETATM   10  C   UNL     1      66.958   7.631   5.353  1.00  0.00     0.026 A 
HETATM   11 CL   UNL     1      64.560   8.859   5.197  1.00  0.00    -0.084 Cl
ENDROOT
BRANCH   3  12
HETATM   12  O   UNL     1      67.276   3.291   9.085  1.00  0.00    -0.326 OA
HETATM   13  H   UNL     1      66.866   3.324   9.927  1.00  0.00     0.221 HD
ENDBRANCH   3  12
TORSDOF 1
ENDMDL
