MODEL 1
REMARK VINA RESULT:      -4.6      0.000      0.000
REMARK  1 active torsions:
REMARK  status: ('A' for Active; 'I' for Inactive)
REMARK    1  A    between atoms: C_9  and  N_10 
ROOT
HETATM    1  N   UNL     1      63.025  10.968   6.040  1.00  0.00    -0.311 N 
ATOM      2  HN  UNL     1      63.240  11.303   6.979  1.00  0.00     0.186 HD
HETATM    3  C   UNL     1      62.789   9.640   4.189  1.00  0.00     0.011 A 
HETATM    4  N   UNL     1      62.480  11.650   5.014  1.00  0.00    -0.300 N 
HETATM    5  C   UNL     1      62.307  10.906   3.876  1.00  0.00     0.059 A 
HETATM    6  C   UNL     1      63.217   9.748   5.530  1.00  0.00     0.120 A 
HETATM    7  C   UNL     1      62.767   8.635   3.206  1.00  0.00     0.044 A 
HETATM    8  C   UNL     1      61.800  11.232   2.618  1.00  0.00     0.034 A 
HETATM    9  C   UNL     1      62.219   8.913   1.946  1.00  0.00     0.026 A 
HETATM   10  C   UNL     1      61.789  10.213   1.656  1.00  0.00     0.031 A 
HETATM   11  H   UNL     1      62.227  12.598   5.075  1.00  0.00     0.187 HD
ENDROOT
BRANCH   9  12
HETATM   12  N   UNL     1      62.319   7.964   0.917  1.00  0.00    -0.399 N 
HETATM   13  H   UNL     1      63.205   7.692   0.584  1.00  0.00     0.156 HD
HETATM   14  H   UNL     1      61.506   7.571   0.529  1.00  0.00     0.156 HD
ENDBRANCH   9  12
TORSDOF 1
ENDMDL
MODEL 2
REMARK VINA RESULT:      -4.6      1.990      2.847
REMARK  1 active torsions:
REMARK  status: ('A' for Active; 'I' for Inactive)
REMARK    1  A    between atoms: C_9  and  N_10 
ROOT
HETATM    1  N   UNL     1      64.371   7.335   5.189  1.00  0.00    -0.311 N 
ATOM      2  HN  UNL     1      64.882   6.522   5.531  1.00  0.00     0.186 HD
HETATM    3  C   UNL     1      63.165   8.767   3.870  1.00  0.00     0.011 A 
HETATM    4  N   UNL     1      64.112   8.491   5.830  1.00  0.00    -0.300 N 
HETATM    5  C   UNL     1      63.386   9.390   5.093  1.00  0.00     0.059 A 
HETATM    6  C   UNL     1      63.798   7.511   3.995  1.00  0.00     0.120 A 
HETATM    7  C   UNL     1      62.451   9.451   2.871  1.00  0.00     0.044 A 
HETATM    8  C   UNL     1      62.931  10.678   5.379  1.00  0.00     0.034 A 
HETATM    9  C   UNL     1      61.936  10.727   3.141  1.00  0.00     0.026 A 
HETATM   10  C   UNL     1      62.223  11.338   4.366  1.00  0.00     0.031 A 
HETATM   11  H   UNL     1      64.416   8.675   6.747  1.00  0.00     0.187 HD
ENDROOT
BRANCH   9  12
HETATM   12  N   UNL     1      61.346  11.473   2.109  1.00  0.00    -0.399 N 
HETATM   13  H   UNL     1      60.535  12.003   2.287  1.00  0.00     0.156 HD
HETATM   14  H   UNL     1      61.742  11.468   1.208  1.00  0.00     0.156 HD
ENDBRANCH   9  12
TORSDOF 1
ENDMDL
MODEL 3
REMARK VINA RESULT:      -4.5      0.924      1.967
REMARK  1 active torsions:
REMARK  status: ('A' for Active; 'I' for Inactive)
REMARK    1  A    between atoms: C_9  and  N_10 
ROOT
HETATM    1  N   UNL     1      63.213  11.102   6.096  1.00  0.00    -0.311 N 
ATOM      2  HN  UNL     1      63.396  11.646   6.939  1.00  0.00     0.186 HD
HETATM    3  C   UNL     1      62.445  10.436   4.044  1.00  0.00     0.011 A 
HETATM    4  N   UNL     1      63.665   9.874   5.779  1.00  0.00    -0.300 N 
HETATM    5  C   UNL     1      63.244   9.420   4.556  1.00  0.00     0.059 A 
HETATM    6  C   UNL     1      62.466  11.437   5.039  1.00  0.00     0.120 A 
HETATM    7  C   UNL     1      61.838  10.264   2.787  1.00  0.00     0.044 A 
HETATM    8  C   UNL     1      63.473   8.222   3.878  1.00  0.00     0.034 A 
HETATM    9  C   UNL     1      62.086   9.094   2.055  1.00  0.00     0.026 A 
HETATM   10  C   UNL     1      62.856   8.075   2.628  1.00  0.00     0.031 A 
HETATM   11  H   UNL     1      64.248   9.348   6.372  1.00  0.00     0.187 HD
ENDROOT
BRANCH   9  12
HETATM   12  N   UNL     1      61.377   8.851   0.869  1.00  0.00    -0.399 N 
HETATM   13  H   UNL     1      61.150   9.598   0.270  1.00  0.00     0.156 HD
HETATM   14  H   UNL     1      61.106   7.934   0.636  1.00  0.00     0.156 HD
ENDBRANCH   9  12
TORSDOF 1
ENDMDL
MODEL 4
REMARK VINA RESULT:      -4.5      1.712      3.443
REMARK  1 active torsions:
REMARK  status: ('A' for Active; 'I' for Inactive)
REMARK    1  A    between atoms: C_9  and  N_10 
ROOT
HETATM    1  N   UNL     1      61.180  10.105   1.376  1.00  0.00    -0.311 N 
ATOM      2  HN  UNL     1      60.658  10.211   0.506  1.00  0.00     0.186 HD
HETATM    3  C   UNL     1      62.519   9.275   3.038  1.00  0.00     0.011 A 
HETATM    4  N   UNL     1      61.281  10.971   2.403  1.00  0.00    -0.300 N 
HETATM    5  C   UNL     1      62.075  10.533   3.430  1.00  0.00     0.059 A 
HETATM    6  C   UNL     1      61.931   9.072   1.771  1.00  0.00     0.120 A 
HETATM    7  C   UNL     1      63.355   8.543   3.900  1.00  0.00     0.044 A 
HETATM    8  C   UNL     1      62.420  11.109   4.653  1.00  0.00     0.034 A 
HETATM    9  C   UNL     1      63.761   9.112   5.115  1.00  0.00     0.026 A 
HETATM   10  C   UNL     1      63.253  10.360   5.494  1.00  0.00     0.031 A 
HETATM   11  H   UNL     1      60.824  11.842   2.415  1.00  0.00     0.187 HD
ENDROOT
BRANCH   9  12
HETATM   12  N   UNL     1      64.476   8.339   6.042  1.00  0.00    -0.399 N 
HETATM   13  H   UNL     1      64.529   7.362   5.932  1.00  0.00     0.156 HD
HETATM   14  H   UNL     1      64.926   8.772   6.803  1.00  0.00     0.156 HD
ENDBRANCH   9  12
TORSDOF 1
ENDMDL
MODEL 5
REMARK VINA RESULT:      -4.5      0.935      4.141
REMARK  1 active torsions:
REMARK  status: ('A' for Active; 'I' for Inactive)
REMARK    1  A    between atoms: C_9  and  N_10 
ROOT
HETATM    1  N   UNL     1      61.777   8.634   0.983  1.00  0.00    -0.311 N 
ATOM      2  HN  UNL     1      61.439   8.357   0.061  1.00  0.00     0.186 HD
HETATM    3  C   UNL     1      62.159   9.802   2.915  1.00  0.00     0.011 A 
HETATM    4  N   UNL     1      62.585   7.951   1.817  1.00  0.00    -0.300 N 
HETATM    5  C   UNL     1      62.847   8.597   2.997  1.00  0.00     0.059 A 
HETATM    6  C   UNL     1      61.526   9.762   1.654  1.00  0.00     0.120 A 
HETATM    7  C   UNL     1      62.242  10.714   3.982  1.00  0.00     0.044 A 
HETATM    8  C   UNL     1      63.629   8.246   4.098  1.00  0.00     0.034 A 
HETATM    9  C   UNL     1      62.978  10.373   5.126  1.00  0.00     0.026 A 
HETATM   10  C   UNL     1      63.696   9.172   5.147  1.00  0.00     0.031 A 
HETATM   11  H   UNL     1      62.954   7.066   1.599  1.00  0.00     0.187 HD
ENDROOT
BRANCH   9  12
HETATM   12  N   UNL     1      63.184  11.328   6.133  1.00  0.00    -0.399 N 
HETATM   13  H   UNL     1      63.526  12.221   5.901  1.00  0.00     0.156 HD
HETATM   14  H   UNL     1      62.986  11.106   7.071  1.00  0.00     0.156 HD
ENDBRANCH   9  12
TORSDOF 1
ENDMDL
MODEL 6
REMARK VINA RESULT:      -4.5      1.819      3.408
REMARK  1 active torsions:
REMARK  status: ('A' for Active; 'I' for Inactive)
REMARK    1  A    between atoms: C_9  and  N_10 
ROOT
HETATM    1  N   UNL     1      61.416  11.402   2.277  1.00  0.00    -0.311 N 
ATOM      2  HN  UNL     1      60.982  12.162   1.753  1.00  0.00     0.186 HD
HETATM    3  C   UNL     1      62.405  10.172   3.935  1.00  0.00     0.011 A 
HETATM    4  N   UNL     1      61.664  10.142   1.871  1.00  0.00    -0.300 N 
HETATM    5  C   UNL     1      62.252   9.352   2.823  1.00  0.00     0.059 A 
HETATM    6  C   UNL     1      61.874  11.416   3.532  1.00  0.00     0.120 A 
HETATM    7  C   UNL     1      63.005   9.650   5.095  1.00  0.00     0.044 A 
HETATM    8  C   UNL     1      62.674   8.022   2.800  1.00  0.00     0.034 A 
HETATM    9  C   UNL     1      63.396   8.304   5.124  1.00  0.00     0.026 A 
HETATM   10  C   UNL     1      63.270   7.527   3.968  1.00  0.00     0.031 A 
HETATM   11  H   UNL     1      61.443   9.817   0.969  1.00  0.00     0.187 HD
ENDROOT
BRANCH   9  12
HETATM   12  N   UNL     1      64.121   7.813   6.220  1.00  0.00    -0.399 N 
HETATM   13  H   UNL     1      63.786   7.036   6.724  1.00  0.00     0.156 HD
HETATM   14  H   UNL     1      64.965   8.244   6.486  1.00  0.00     0.156 HD
ENDBRANCH   9  12
TORSDOF 1
ENDMDL
MODEL 7
REMARK VINA RESULT:      -4.3      1.244      3.755
REMARK  1 active torsions:
REMARK  status: ('A' for Active; 'I' for Inactive)
REMARK    1  A    between atoms: C_9  and  N_10 
ROOT
HETATM    1  N   UNL     1      63.481   6.776   2.462  1.00  0.00    -0.311 N 
ATOM      2  HN  UNL     1      63.649   5.910   1.950  1.00  0.00     0.186 HD
HETATM    3  C   UNL     1      63.570   8.449   4.023  1.00  0.00     0.011 A 
HETATM    4  N   UNL     1      62.649   7.787   2.145  1.00  0.00    -0.300 N 
HETATM    5  C   UNL     1      62.661   8.824   3.040  1.00  0.00     0.059 A 
HETATM    6  C   UNL     1      64.034   7.181   3.609  1.00  0.00     0.120 A 
HETATM    7  C   UNL     1      63.798   9.309   5.112  1.00  0.00     0.044 A 
HETATM    8  C   UNL     1      61.953  10.025   3.084  1.00  0.00     0.034 A 
HETATM    9  C   UNL     1      63.141  10.546   5.163  1.00  0.00     0.026 A 
HETATM   10  C   UNL     1      62.197  10.864   4.179  1.00  0.00     0.031 A 
HETATM   11  H   UNL     1      62.083   7.782   1.341  1.00  0.00     0.187 HD
ENDROOT
BRANCH   9  12
HETATM   12  N   UNL     1      63.252  11.347   6.310  1.00  0.00    -0.399 N 
HETATM   13  H   UNL     1      62.462  11.821   6.657  1.00  0.00     0.156 HD
HETATM   14  H   UNL     1      64.118  11.436   6.767  1.00  0.00     0.156 HD
ENDBRANCH   9  12
TORSDOF 1
ENDMDL
MODEL 8
REMARK VINA RESULT:      -3.9      5.597      6.447
REMARK  1 active torsions:
REMARK  status: ('A' for Active; 'I' for Inactive)
REMARK    1  A    between atoms: C_9  and  N_10 
ROOT
HETATM    1  N   UNL     1      67.335   7.127   8.708  1.00  0.00    -0.311 N 
ATOM      2  HN  UNL     1      67.393   7.359   9.700  1.00  0.00     0.186 HD
HETATM    3  C   UNL     1      67.400   6.001   6.715  1.00  0.00     0.011 A 
HETATM    4  N   UNL     1      66.968   7.921   7.684  1.00  0.00    -0.300 N 
HETATM    5  C   UNL     1      66.982   7.302   6.462  1.00  0.00     0.059 A 
HETATM    6  C   UNL     1      67.602   5.961   8.112  1.00  0.00     0.120 A 
HETATM    7  C   UNL     1      67.536   5.102   5.643  1.00  0.00     0.044 A 
HETATM    8  C   UNL     1      66.689   7.766   5.179  1.00  0.00     0.034 A 
HETATM    9  C   UNL     1      67.203   5.519   4.346  1.00  0.00     0.026 A 
HETATM   10  C   UNL     1      66.833   6.851   4.127  1.00  0.00     0.031 A 
HETATM   11  H   UNL     1      66.713   8.864   7.802  1.00  0.00     0.187 HD
ENDROOT
BRANCH   9  12
HETATM   12  N   UNL     1      67.468   4.679   3.254  1.00  0.00    -0.399 N 
HETATM   13  H   UNL     1      67.200   3.732   3.286  1.00  0.00     0.156 HD
HETATM   14  H   UNL     1      67.920   5.036   2.456  1.00  0.00     0.156 HD
ENDBRANCH   9  12
TORSDOF 1
ENDMDL
MODEL 9
REMARK VINA RESULT:      -3.8      2.024      4.357
REMARK  1 active torsions:
REMARK  status: ('A' for Active; 'I' for Inactive)
REMARK    1  A    between atoms: C_9  and  N_10 
ROOT
HETATM    1  N   UNL     1      63.174   5.903   0.803  1.00  0.00    -0.311 N 
ATOM      2  HN  UNL     1      63.398   5.010   0.364  1.00  0.00     0.186 HD
HETATM    3  C   UNL     1      62.443   8.042   1.166  1.00  0.00     0.011 A 
HETATM    4  N   UNL     1      63.373   6.279   2.081  1.00  0.00    -0.300 N 
HETATM    5  C   UNL     1      62.950   7.551   2.364  1.00  0.00     0.059 A 
HETATM    6  C   UNL     1      62.614   6.982   0.250  1.00  0.00     0.120 A 
HETATM    7  C   UNL     1      61.938   9.354   1.120  1.00  0.00     0.044 A 
HETATM    8  C   UNL     1      62.985   8.307   3.536  1.00  0.00     0.034 A 
HETATM    9  C   UNL     1      61.912  10.124   2.291  1.00  0.00     0.026 A 
HETATM   10  C   UNL     1      62.476   9.610   3.464  1.00  0.00     0.031 A 
HETATM   11  H   UNL     1      63.785   5.692   2.754  1.00  0.00     0.187 HD
ENDROOT
BRANCH   9  12
HETATM   12  N   UNL     1      61.543  11.477   2.228  1.00  0.00    -0.399 N 
HETATM   13  H   UNL     1      62.232  12.178   2.284  1.00  0.00     0.156 HD
HETATM   14  H   UNL     1      60.596  11.725   2.127  1.00  0.00     0.156 HD
ENDBRANCH   9  12
TORSDOF 1
ENDMDL
