MODEL 1
REMARK VINA RESULT:      -5.5      0.000      0.000
REMARK  2 active torsions:
REMARK  status: ('A' for Active; 'I' for Inactive)
REMARK    1  A    between atoms: C_1  and  C_5 
REMARK    2  A    between atoms: C_5  and  O_8 
ROOT
HETATM    1  C   UNL     1      63.127   7.982   4.534  1.00  0.00     0.067 A 
HETATM    2  C   UNL     1      63.273   7.007   3.560  1.00  0.00     0.107 A 
HETATM    3  C   UNL     1      62.648   9.157   3.861  1.00  0.00     0.008 A 
HETATM    4  N   UNL     1      62.903   7.533   2.355  1.00  0.00    -0.364 N 
HETATM    5  C   UNL     1      62.525   8.845   2.505  1.00  0.00     0.043 A 
HETATM    6  C   UNL     1      62.312  10.465   4.273  1.00  0.00     0.015 A 
HETATM    7  C   UNL     1      62.089   9.768   1.545  1.00  0.00     0.030 A 
HETATM    8  C   UNL     1      61.880  11.403   3.326  1.00  0.00     0.001 A 
HETATM    9  C   UNL     1      61.774  11.056   1.981  1.00  0.00     0.002 A 
HETATM   10  H   UNL     1      62.906   7.042   1.501  1.00  0.00     0.165 HD
ENDROOT
BRANCH   1  11
HETATM   11  C   UNL     1      63.420   7.815   5.955  1.00  0.00     0.295 C 
HETATM   12  O   UNL     1      62.561   7.677   6.817  1.00  0.00    -0.259 OA
BRANCH  11  13
HETATM   13  O   UNL     1      64.763   7.835   6.210  1.00  0.00    -0.322 OA
HETATM   14  C   UNL     1      65.240   6.715   6.953  1.00  0.00     0.213 C 
ENDBRANCH  11  13
ENDBRANCH   1  11
TORSDOF 2
ENDMDL
MODEL 2
REMARK VINA RESULT:      -5.4      1.621      2.628
REMARK  2 active torsions:
REMARK  status: ('A' for Active; 'I' for Inactive)
REMARK    1  A    between atoms: C_1  and  C_5 
REMARK    2  A    between atoms: C_5  and  O_8 
ROOT
HETATM    1  C   UNL     1      62.822   9.380   4.309  1.00  0.00     0.067 A 
HETATM    2  C   UNL     1      62.180  10.597   4.147  1.00  0.00     0.107 A 
HETATM    3  C   UNL     1      62.695   8.686   3.059  1.00  0.00     0.008 A 
HETATM    4  N   UNL     1      61.687  10.666   2.875  1.00  0.00    -0.364 N 
HETATM    5  C   UNL     1      61.977   9.512   2.190  1.00  0.00     0.043 A 
HETATM    6  C   UNL     1      63.115   7.426   2.580  1.00  0.00     0.015 A 
HETATM    7  C   UNL     1      61.658   9.144   0.876  1.00  0.00     0.030 A 
HETATM    8  C   UNL     1      62.798   7.039   1.271  1.00  0.00     0.001 A 
HETATM    9  C   UNL     1      62.078   7.888   0.434  1.00  0.00     0.002 A 
HETATM   10  H   UNL     1      61.193  11.433   2.503  1.00  0.00     0.165 HD
ENDROOT
BRANCH   1  11
HETATM   11  C   UNL     1      63.483   8.923   5.529  1.00  0.00     0.295 C 
HETATM   12  O   UNL     1      62.916   8.305   6.422  1.00  0.00    -0.259 OA
BRANCH  11  13
HETATM   13  O   UNL     1      64.805   9.270   5.560  1.00  0.00    -0.322 OA
HETATM   14  C   UNL     1      65.706   8.186   5.336  1.00  0.00     0.213 C 
ENDBRANCH  11  13
ENDBRANCH   1  11
TORSDOF 2
ENDMDL
MODEL 3
REMARK VINA RESULT:      -5.1      1.338      1.749
REMARK  2 active torsions:
REMARK  status: ('A' for Active; 'I' for Inactive)
REMARK    1  A    between atoms: C_1  and  C_5 
REMARK    2  A    between atoms: C_5  and  O_8 
ROOT
HETATM    1  C   UNL     1      64.640   7.958   5.087  1.00  0.00     0.067 A 
HETATM    2  C   UNL     1      64.671   6.964   4.121  1.00  0.00     0.107 A 
HETATM    3  C   UNL     1      63.688   8.932   4.633  1.00  0.00     0.008 A 
HETATM    4  N   UNL     1      63.790   7.289   3.129  1.00  0.00    -0.364 N 
HETATM    5  C   UNL     1      63.182   8.488   3.409  1.00  0.00     0.043 A 
HETATM    6  C   UNL     1      63.208  10.158   5.143  1.00  0.00     0.015 A 
HETATM    7  C   UNL     1      62.230   9.205   2.672  1.00  0.00     0.030 A 
HETATM    8  C   UNL     1      62.261  10.891   4.415  1.00  0.00     0.001 A 
HETATM    9  C   UNL     1      61.783  10.419   3.196  1.00  0.00     0.002 A 
HETATM   10  H   UNL     1      63.617   6.743   2.328  1.00  0.00     0.165 HD
ENDROOT
BRANCH   1  11
HETATM   11  C   UNL     1      65.438   7.980   6.309  1.00  0.00     0.295 C 
HETATM   12  O   UNL     1      66.370   8.752   6.503  1.00  0.00    -0.259 OA
BRANCH  11  13
HETATM   13  O   UNL     1      65.028   7.037   7.211  1.00  0.00    -0.322 OA
HETATM   14  C   UNL     1      66.067   6.521   8.041  1.00  0.00     0.213 C 
ENDBRANCH  11  13
ENDBRANCH   1  11
TORSDOF 2
ENDMDL
MODEL 4
REMARK VINA RESULT:      -4.5      2.556      4.763
REMARK  2 active torsions:
REMARK  status: ('A' for Active; 'I' for Inactive)
REMARK    1  A    between atoms: C_1  and  C_5 
REMARK    2  A    between atoms: C_5  and  O_8 
ROOT
HETATM    1  C   UNL     1      62.881   9.071   4.099  1.00  0.00     0.067 A 
HETATM    2  C   UNL     1      63.164   9.953   5.129  1.00  0.00     0.107 A 
HETATM    3  C   UNL     1      63.943   8.106   4.089  1.00  0.00     0.008 A 
HETATM    4  N   UNL     1      64.325   9.563   5.733  1.00  0.00    -0.364 N 
HETATM    5  C   UNL     1      64.829   8.444   5.115  1.00  0.00     0.043 A 
HETATM    6  C   UNL     1      64.245   6.974   3.300  1.00  0.00     0.015 A 
HETATM    7  C   UNL     1      65.994   7.716   5.389  1.00  0.00     0.030 A 
HETATM    8  C   UNL     1      65.410   6.239   3.556  1.00  0.00     0.001 A 
HETATM    9  C   UNL     1      66.271   6.609   4.585  1.00  0.00     0.002 A 
HETATM   10  H   UNL     1      64.742  10.018   6.501  1.00  0.00     0.165 HD
ENDROOT
BRANCH   1  11
HETATM   11  C   UNL     1      61.723   9.144   3.212  1.00  0.00     0.295 C 
HETATM   12  O   UNL     1      60.625   8.671   3.480  1.00  0.00    -0.259 OA
BRANCH  11  13
HETATM   13  O   UNL     1      62.008   9.799   2.045  1.00  0.00    -0.322 OA
HETATM   14  C   UNL     1      61.791  11.209   2.091  1.00  0.00     0.213 C 
ENDBRANCH  11  13
ENDBRANCH   1  11
TORSDOF 2
ENDMDL
MODEL 5
REMARK VINA RESULT:      -4.3      1.895      2.339
REMARK  2 active torsions:
REMARK  status: ('A' for Active; 'I' for Inactive)
REMARK    1  A    between atoms: C_1  and  C_5 
REMARK    2  A    between atoms: C_5  and  O_8 
ROOT
HETATM    1  C   UNL     1      62.741   7.607   2.372  1.00  0.00     0.067 A 
HETATM    2  C   UNL     1      62.399   7.685   1.032  1.00  0.00     0.107 A 
HETATM    3  C   UNL     1      62.514   8.914   2.924  1.00  0.00     0.008 A 
HETATM    4  N   UNL     1      61.977   8.956   0.760  1.00  0.00    -0.364 N 
HETATM    5  C   UNL     1      62.044   9.731   1.893  1.00  0.00     0.043 A 
HETATM    6  C   UNL     1      62.669   9.486   4.206  1.00  0.00     0.015 A 
HETATM    7  C   UNL     1      61.727  11.083   2.075  1.00  0.00     0.030 A 
HETATM    8  C   UNL     1      62.363  10.839   4.403  1.00  0.00     0.001 A 
HETATM    9  C   UNL     1      61.901  11.624   3.350  1.00  0.00     0.002 A 
HETATM   10  H   UNL     1      61.669   9.272  -0.120  1.00  0.00     0.165 HD
ENDROOT
BRANCH   1  11
HETATM   11  C   UNL     1      63.238   6.416   3.055  1.00  0.00     0.295 C 
HETATM   12  O   UNL     1      62.584   5.391   3.204  1.00  0.00    -0.259 OA
BRANCH  11  13
HETATM   13  O   UNL     1      64.517   6.579   3.511  1.00  0.00    -0.322 OA
HETATM   14  C   UNL     1      64.818   5.851   4.700  1.00  0.00     0.213 C 
ENDBRANCH  11  13
ENDBRANCH   1  11
TORSDOF 2
ENDMDL
MODEL 6
REMARK VINA RESULT:      -4.2      2.388      5.119
REMARK  2 active torsions:
REMARK  status: ('A' for Active; 'I' for Inactive)
REMARK    1  A    between atoms: C_1  and  C_5 
REMARK    2  A    between atoms: C_5  and  O_8 
ROOT
HETATM    1  C   UNL     1      63.978   8.072   5.564  1.00  0.00     0.067 A 
HETATM    2  C   UNL     1      63.160   7.124   6.158  1.00  0.00     0.107 A 
HETATM    3  C   UNL     1      65.297   7.506   5.532  1.00  0.00     0.008 A 
HETATM    4  N   UNL     1      63.915   6.029   6.471  1.00  0.00    -0.364 N 
HETATM    5  C   UNL     1      65.224   6.236   6.109  1.00  0.00     0.043 A 
HETATM    6  C   UNL     1      66.554   7.953   5.072  1.00  0.00     0.015 A 
HETATM    7  C   UNL     1      66.337   5.397   6.252  1.00  0.00     0.030 A 
HETATM    8  C   UNL     1      67.679   7.130   5.213  1.00  0.00     0.001 A 
HETATM    9  C   UNL     1      67.569   5.871   5.798  1.00  0.00     0.002 A 
HETATM   10  H   UNL     1      63.570   5.210   6.895  1.00  0.00     0.165 HD
ENDROOT
BRANCH   1  11
HETATM   11  C   UNL     1      63.549   9.384   5.085  1.00  0.00     0.295 C 
HETATM   12  O   UNL     1      63.639  10.414   5.742  1.00  0.00    -0.259 OA
BRANCH  11  13
HETATM   13  O   UNL     1      63.032   9.327   3.820  1.00  0.00    -0.322 OA
HETATM   14  C   UNL     1      61.774   9.982   3.666  1.00  0.00     0.213 C 
ENDBRANCH  11  13
ENDBRANCH   1  11
TORSDOF 2
ENDMDL
MODEL 7
REMARK VINA RESULT:      -4.2      2.296      3.299
REMARK  2 active torsions:
REMARK  status: ('A' for Active; 'I' for Inactive)
REMARK    1  A    between atoms: C_1  and  C_5 
REMARK    2  A    between atoms: C_5  and  O_8 
ROOT
HETATM    1  C   UNL     1      63.111   7.242   4.152  1.00  0.00     0.067 A 
HETATM    2  C   UNL     1      63.660   7.129   5.419  1.00  0.00     0.107 A 
HETATM    3  C   UNL     1      62.746   8.622   3.991  1.00  0.00     0.008 A 
HETATM    4  N   UNL     1      63.649   8.359   6.014  1.00  0.00    -0.364 N 
HETATM    5  C   UNL     1      63.089   9.288   5.171  1.00  0.00     0.043 A 
HETATM    6  C   UNL     1      62.149   9.373   2.956  1.00  0.00     0.015 A 
HETATM    7  C   UNL     1      62.863  10.656   5.368  1.00  0.00     0.030 A 
HETATM    8  C   UNL     1      61.909  10.741   3.139  1.00  0.00     0.001 A 
HETATM    9  C   UNL     1      62.261  11.370   4.330  1.00  0.00     0.002 A 
HETATM   10  H   UNL     1      63.991   8.551   6.917  1.00  0.00     0.165 HD
ENDROOT
BRANCH   1  11
HETATM   11  C   UNL     1      62.945   6.150   3.197  1.00  0.00     0.295 C 
HETATM   12  O   UNL     1      62.066   5.301   3.276  1.00  0.00    -0.259 OA
BRANCH  11  13
HETATM   13  O   UNL     1      63.887   6.184   2.206  1.00  0.00    -0.322 OA
HETATM   14  C   UNL     1      63.359   6.083   0.884  1.00  0.00     0.213 C 
ENDBRANCH  11  13
ENDBRANCH   1  11
TORSDOF 2
ENDMDL
MODEL 8
REMARK VINA RESULT:      -4.0      3.059      4.286
REMARK  2 active torsions:
REMARK  status: ('A' for Active; 'I' for Inactive)
REMARK    1  A    between atoms: C_1  and  C_5 
REMARK    2  A    between atoms: C_5  and  O_8 
ROOT
HETATM    1  C   UNL     1      66.067   6.798   7.162  1.00  0.00     0.067 A 
HETATM    2  C   UNL     1      67.114   7.396   6.479  1.00  0.00     0.107 A 
HETATM    3  C   UNL     1      64.876   7.095   6.415  1.00  0.00     0.008 A 
HETATM    4  N   UNL     1      66.616   8.020   5.371  1.00  0.00    -0.364 N 
HETATM    5  C   UNL     1      65.253   7.862   5.310  1.00  0.00     0.043 A 
HETATM    6  C   UNL     1      63.507   6.790   6.575  1.00  0.00     0.015 A 
HETATM    7  C   UNL     1      64.336   8.339   4.364  1.00  0.00     0.030 A 
HETATM    8  C   UNL     1      62.576   7.265   5.642  1.00  0.00     0.001 A 
HETATM    9  C   UNL     1      62.988   8.031   4.555  1.00  0.00     0.002 A 
HETATM   10  H   UNL     1      67.156   8.513   4.712  1.00  0.00     0.165 HD
ENDROOT
BRANCH   1  11
HETATM   11  C   UNL     1      66.185   6.032   8.399  1.00  0.00     0.295 C 
HETATM   12  O   UNL     1      66.502   6.520   9.477  1.00  0.00    -0.259 OA
BRANCH  11  13
HETATM   13  O   UNL     1      65.906   4.706   8.214  1.00  0.00    -0.322 OA
HETATM   14  C   UNL     1      67.037   3.905   7.876  1.00  0.00     0.213 C 
ENDBRANCH  11  13
ENDBRANCH   1  11
TORSDOF 2
ENDMDL
MODEL 9
REMARK VINA RESULT:      -3.9      2.315      3.219
REMARK  2 active torsions:
REMARK  status: ('A' for Active; 'I' for Inactive)
REMARK    1  A    between atoms: C_1  and  C_5 
REMARK    2  A    between atoms: C_5  and  O_8 
ROOT
HETATM    1  C   UNL     1      62.430   9.186   4.012  1.00  0.00     0.067 A 
HETATM    2  C   UNL     1      62.071   9.983   2.937  1.00  0.00     0.107 A 
HETATM    3  C   UNL     1      61.558   8.045   3.979  1.00  0.00     0.008 A 
HETATM    4  N   UNL     1      61.044   9.379   2.267  1.00  0.00    -0.364 N 
HETATM    5  C   UNL     1      60.704   8.200   2.884  1.00  0.00     0.043 A 
HETATM    6  C   UNL     1      61.405   6.893   4.780  1.00  0.00     0.015 A 
HETATM    7  C   UNL     1      59.709   7.270   2.554  1.00  0.00     0.030 A 
HETATM    8  C   UNL     1      60.411   5.956   4.468  1.00  0.00     0.001 A 
HETATM    9  C   UNL     1      59.575   6.146   3.371  1.00  0.00     0.002 A 
HETATM   10  H   UNL     1      60.611   9.738   1.459  1.00  0.00     0.165 HD
ENDROOT
BRANCH   1  11
HETATM   11  C   UNL     1      63.488   9.482   4.974  1.00  0.00     0.295 C 
HETATM   12  O   UNL     1      63.372  10.286   5.891  1.00  0.00    -0.259 OA
BRANCH  11  13
HETATM   13  O   UNL     1      64.624   8.760   4.730  1.00  0.00    -0.322 OA
HETATM   14  C   UNL     1      64.937   7.794   5.732  1.00  0.00     0.213 C 
ENDBRANCH  11  13
ENDBRANCH   1  11
TORSDOF 2
ENDMDL
