MODEL 1
REMARK VINA RESULT:      -4.3      0.000      0.000
REMARK  1 active torsions:
REMARK  status: ('A' for Active; 'I' for Inactive)
REMARK    1  A    between atoms: C_1  and  C_2 
ROOT
HETATM    1  C   UNL     1      62.121   9.775   2.525  1.00  0.00     0.071 A 
HETATM    2  C   UNL     1      62.862   8.791   3.163  1.00  0.00     0.065 A 
HETATM    3  C   UNL     1      61.635   9.167   1.328  1.00  0.00     0.045 A 
HETATM    4  O   UNL     1      62.848   7.642   2.426  1.00  0.00    -0.326 OA
HETATM    5  C   UNL     1      62.106   7.878   1.317  1.00  0.00     0.143 A 
HETATM    6  C   UNL     1      63.636   8.713   4.420  1.00  0.00     0.078 C 
ENDROOT
BRANCH   1   7
HETATM    7  C   UNL     1      61.895  11.128   2.984  1.00  0.00     0.211 C 
HETATM    8  O   UNL     1      61.698  11.476   4.139  1.00  0.00    -0.644 OA
HETATM    9  O   UNL     1      61.917  12.050   1.998  1.00  0.00    -0.644 OA
ENDBRANCH   1   7
TORSDOF 1
ENDMDL
MODEL 2
REMARK VINA RESULT:      -4.2      1.410      3.342
REMARK  1 active torsions:
REMARK  status: ('A' for Active; 'I' for Inactive)
REMARK    1  A    between atoms: C_1  and  C_2 
ROOT
HETATM    1  C   UNL     1      62.286   9.729   3.221  1.00  0.00     0.071 A 
HETATM    2  C   UNL     1      62.345  10.823   4.072  1.00  0.00     0.065 A 
HETATM    3  C   UNL     1      61.847  10.249   1.966  1.00  0.00     0.045 A 
HETATM    4  O   UNL     1      61.971  11.955   3.407  1.00  0.00    -0.326 OA
HETATM    5  C   UNL     1      61.670  11.599   2.135  1.00  0.00     0.143 A 
HETATM    6  C   UNL     1      62.710  11.028   5.490  1.00  0.00     0.078 C 
ENDROOT
BRANCH   1   7
HETATM    7  C   UNL     1      62.604   8.356   3.547  1.00  0.00     0.211 C 
HETATM    8  O   UNL     1      63.620   7.754   3.231  1.00  0.00    -0.644 OA
HETATM    9  O   UNL     1      61.650   7.732   4.271  1.00  0.00    -0.644 OA
ENDBRANCH   1   7
TORSDOF 1
ENDMDL
MODEL 3
REMARK VINA RESULT:      -4.1      0.717      2.277
REMARK  1 active torsions:
REMARK  status: ('A' for Active; 'I' for Inactive)
REMARK    1  A    between atoms: C_1  and  C_2 
ROOT
HETATM    1  C   UNL     1      62.389   9.858   3.152  1.00  0.00     0.071 A 
HETATM    2  C   UNL     1      62.299   8.901   2.153  1.00  0.00     0.065 A 
HETATM    3  C   UNL     1      62.955   9.182   4.275  1.00  0.00     0.045 A 
HETATM    4  O   UNL     1      62.773   7.703   2.606  1.00  0.00    -0.326 OA
HETATM    5  C   UNL     1      63.166   7.882   3.891  1.00  0.00     0.143 A 
HETATM    6  C   UNL     1      61.820   8.888   0.754  1.00  0.00     0.078 C 
ENDROOT
BRANCH   1   7
HETATM    7  C   UNL     1      61.990  11.246   3.064  1.00  0.00     0.211 C 
HETATM    8  O   UNL     1      61.865  11.899   2.037  1.00  0.00    -0.644 OA
HETATM    9  O   UNL     1      61.748  11.821   4.261  1.00  0.00    -0.644 OA
ENDBRANCH   1   7
TORSDOF 1
ENDMDL
MODEL 4
REMARK VINA RESULT:      -4.0      1.289      2.611
REMARK  1 active torsions:
REMARK  status: ('A' for Active; 'I' for Inactive)
REMARK    1  A    between atoms: C_1  and  C_2 
ROOT
HETATM    1  C   UNL     1      62.840   9.558   4.113  1.00  0.00     0.071 A 
HETATM    2  C   UNL     1      62.506   9.206   2.814  1.00  0.00     0.065 A 
HETATM    3  C   UNL     1      63.540   8.432   4.642  1.00  0.00     0.045 A 
HETATM    4  O   UNL     1      62.960   7.949   2.536  1.00  0.00    -0.326 OA
HETATM    5  C   UNL     1      63.583   7.488   3.648  1.00  0.00     0.143 A 
HETATM    6  C   UNL     1      61.791   9.867   1.700  1.00  0.00     0.078 C 
ENDROOT
BRANCH   1   7
HETATM    7  C   UNL     1      62.537  10.806   4.780  1.00  0.00     0.211 C 
HETATM    8  O   UNL     1      61.874  11.727   4.326  1.00  0.00    -0.644 OA
HETATM    9  O   UNL     1      63.064  10.903   6.019  1.00  0.00    -0.644 OA
ENDBRANCH   1   7
TORSDOF 1
ENDMDL
MODEL 5
REMARK VINA RESULT:      -4.0      1.909      2.930
REMARK  1 active torsions:
REMARK  status: ('A' for Active; 'I' for Inactive)
REMARK    1  A    between atoms: C_1  and  C_2 
ROOT
HETATM    1  C   UNL     1      62.587  10.069   4.040  1.00  0.00     0.071 A 
HETATM    2  C   UNL     1      62.534   9.235   2.933  1.00  0.00     0.065 A 
HETATM    3  C   UNL     1      62.014  11.305   3.611  1.00  0.00     0.045 A 
HETATM    4  O   UNL     1      61.969   9.891   1.877  1.00  0.00    -0.326 OA
HETATM    5  C   UNL     1      61.659  11.142   2.295  1.00  0.00     0.143 A 
HETATM    6  C   UNL     1      62.940   7.841   2.651  1.00  0.00     0.078 C 
ENDROOT
BRANCH   1   7
HETATM    7  C   UNL     1      63.114   9.745   5.347  1.00  0.00     0.211 C 
HETATM    8  O   UNL     1      62.841   8.757   6.013  1.00  0.00    -0.644 OA
HETATM    9  O   UNL     1      63.986  10.658   5.826  1.00  0.00    -0.644 OA
ENDBRANCH   1   7
TORSDOF 1
ENDMDL
MODEL 6
REMARK VINA RESULT:      -3.9      2.294      3.655
REMARK  1 active torsions:
REMARK  status: ('A' for Active; 'I' for Inactive)
REMARK    1  A    between atoms: C_1  and  C_2 
ROOT
HETATM    1  C   UNL     1      63.255   9.343   4.573  1.00  0.00     0.071 A 
HETATM    2  C   UNL     1      62.854   8.783   3.369  1.00  0.00     0.065 A 
HETATM    3  C   UNL     1      62.593  10.606   4.642  1.00  0.00     0.045 A 
HETATM    4  O   UNL     1      62.000   9.628   2.720  1.00  0.00    -0.326 OA
HETATM    5  C   UNL     1      61.849  10.728   3.496  1.00  0.00     0.143 A 
HETATM    6  C   UNL     1      63.137   7.519   2.656  1.00  0.00     0.078 C 
ENDROOT
BRANCH   1   7
HETATM    7  C   UNL     1      64.154   8.761   5.546  1.00  0.00     0.211 C 
HETATM    8  O   UNL     1      65.318   9.081   5.736  1.00  0.00    -0.644 OA
HETATM    9  O   UNL     1      63.597   7.777   6.282  1.00  0.00    -0.644 OA
ENDBRANCH   1   7
TORSDOF 1
ENDMDL
MODEL 7
REMARK VINA RESULT:      -3.8      2.644      3.983
REMARK  1 active torsions:
REMARK  status: ('A' for Active; 'I' for Inactive)
REMARK    1  A    between atoms: C_1  and  C_2 
ROOT
HETATM    1  C   UNL     1      63.971   8.525   4.747  1.00  0.00     0.071 A 
HETATM    2  C   UNL     1      63.138   9.622   4.583  1.00  0.00     0.065 A 
HETATM    3  C   UNL     1      63.736   7.697   3.608  1.00  0.00     0.045 A 
HETATM    4  O   UNL     1      62.425   9.501   3.426  1.00  0.00    -0.326 OA
HETATM    5  C   UNL     1      62.792   8.334   2.842  1.00  0.00     0.143 A 
HETATM    6  C   UNL     1      62.859  10.850   5.358  1.00  0.00     0.078 C 
ENDROOT
BRANCH   1   7
HETATM    7  C   UNL     1      64.882   8.282   5.845  1.00  0.00     0.211 C 
HETATM    8  O   UNL     1      65.929   8.874   6.060  1.00  0.00    -0.644 OA
HETATM    9  O   UNL     1      64.483   7.295   6.676  1.00  0.00    -0.644 OA
ENDBRANCH   1   7
TORSDOF 1
ENDMDL
MODEL 8
REMARK VINA RESULT:      -3.7      2.070      3.397
REMARK  1 active torsions:
REMARK  status: ('A' for Active; 'I' for Inactive)
REMARK    1  A    between atoms: C_1  and  C_2 
ROOT
HETATM    1  C   UNL     1      63.302   8.756   4.113  1.00  0.00     0.071 A 
HETATM    2  C   UNL     1      63.558   9.742   5.055  1.00  0.00     0.065 A 
HETATM    3  C   UNL     1      64.372   7.820   4.243  1.00  0.00     0.045 A 
HETATM    4  O   UNL     1      64.707   9.455   5.733  1.00  0.00    -0.326 OA
HETATM    5  C   UNL     1      65.194   8.292   5.235  1.00  0.00     0.143 A 
HETATM    6  C   UNL     1      62.887  10.992   5.472  1.00  0.00     0.078 C 
ENDROOT
BRANCH   1   7
HETATM    7  C   UNL     1      62.182   8.698   3.198  1.00  0.00     0.211 C 
HETATM    8  O   UNL     1      60.999   8.662   3.504  1.00  0.00    -0.644 OA
HETATM    9  O   UNL     1      62.542   8.686   1.897  1.00  0.00    -0.644 OA
ENDBRANCH   1   7
TORSDOF 1
ENDMDL
MODEL 9
REMARK VINA RESULT:      -3.7      2.073      3.665
REMARK  1 active torsions:
REMARK  status: ('A' for Active; 'I' for Inactive)
REMARK    1  A    between atoms: C_1  and  C_2 
ROOT
HETATM    1  C   UNL     1      62.974   9.253   4.094  1.00  0.00     0.071 A 
HETATM    2  C   UNL     1      64.070   9.169   4.940  1.00  0.00     0.065 A 
HETATM    3  C   UNL     1      62.293  10.449   4.475  1.00  0.00     0.045 A 
HETATM    4  O   UNL     1      64.085  10.231   5.796  1.00  0.00    -0.326 OA
HETATM    5  C   UNL     1      63.007  11.000   5.509  1.00  0.00     0.143 A 
HETATM    6  C   UNL     1      65.187   8.215   5.115  1.00  0.00     0.078 C 
ENDROOT
BRANCH   1   7
HETATM    7  C   UNL     1      62.608   8.321   3.049  1.00  0.00     0.211 C 
HETATM    8  O   UNL     1      62.671   8.524   1.845  1.00  0.00    -0.644 OA
HETATM    9  O   UNL     1      62.163   7.133   3.510  1.00  0.00    -0.644 OA
ENDBRANCH   1   7
TORSDOF 1
ENDMDL
