MODEL 1
REMARK VINA RESULT:      -5.0      0.000      0.000
REMARK  1 active torsions:
REMARK  status: ('A' for Active; 'I' for Inactive)
REMARK    1  A    between atoms: C_8  and  N_9 
ROOT
HETATM    1  N   UNL     1      61.839   9.337   1.387  1.00  0.00    -0.359 N 
HETATM    2  C   UNL     1      62.682   9.064   3.429  1.00  0.00    -0.005 A 
HETATM    3  C   UNL     1      62.398   8.083   1.406  1.00  0.00     0.006 A 
HETATM    4  C   UNL     1      62.872   7.868   2.684  1.00  0.00     0.038 A 
HETATM    5  C   UNL     1      62.035   9.970   2.592  1.00  0.00     0.042 A 
HETATM    6  C   UNL     1      63.043   9.478   4.728  1.00  0.00     0.042 A 
HETATM    7  C   UNL     1      61.724  11.272   2.993  1.00  0.00     0.033 A 
HETATM    8  C   UNL     1      62.732  10.772   5.164  1.00  0.00     0.026 A 
HETATM    9  C   UNL     1      62.115  11.661   4.280  1.00  0.00     0.031 A 
HETATM   10  C   UNL     1      62.455   7.220   0.201  1.00  0.00     0.068 C 
HETATM   11  H   UNL     1      61.364   9.729   0.618  1.00  0.00     0.166 HD
ENDROOT
BRANCH   8  12
HETATM   12  N   UNL     1      63.256  11.244   6.377  1.00  0.00    -0.399 N 
HETATM   13  H   UNL     1      64.060  10.826   6.762  1.00  0.00     0.156 HD
HETATM   14  H   UNL     1      62.821  11.994   6.844  1.00  0.00     0.156 HD
ENDBRANCH   8  12
TORSDOF 1
ENDMDL
MODEL 2
REMARK VINA RESULT:      -4.7      1.918      3.513
REMARK  1 active torsions:
REMARK  status: ('A' for Active; 'I' for Inactive)
REMARK    1  A    between atoms: C_8  and  N_9 
ROOT
HETATM    1  N   UNL     1      63.742   8.393   6.037  1.00  0.00    -0.359 N 
HETATM    2  C   UNL     1      63.007   8.670   3.954  1.00  0.00    -0.005 A 
HETATM    3  C   UNL     1      63.845   7.167   5.428  1.00  0.00     0.006 A 
HETATM    4  C   UNL     1      63.452   7.330   4.115  1.00  0.00     0.038 A 
HETATM    5  C   UNL     1      63.197   9.315   5.174  1.00  0.00     0.042 A 
HETATM    6  C   UNL     1      62.415   9.386   2.893  1.00  0.00     0.042 A 
HETATM    7  C   UNL     1      62.827  10.646   5.386  1.00  0.00     0.033 A 
HETATM    8  C   UNL     1      62.047  10.726   3.069  1.00  0.00     0.026 A 
HETATM    9  C   UNL     1      62.221  11.323   4.320  1.00  0.00     0.031 A 
HETATM   10  C   UNL     1      64.277   5.951   6.159  1.00  0.00     0.068 C 
HETATM   11  H   UNL     1      64.021   8.587   6.962  1.00  0.00     0.166 HD
ENDROOT
BRANCH   8  12
HETATM   12  N   UNL     1      61.289  11.376   2.083  1.00  0.00    -0.399 N 
HETATM   13  H   UNL     1      61.342  12.354   1.986  1.00  0.00     0.156 HD
HETATM   14  H   UNL     1      60.704  10.853   1.488  1.00  0.00     0.156 HD
ENDBRANCH   8  12
TORSDOF 1
ENDMDL
MODEL 3
REMARK VINA RESULT:      -4.6      1.125      2.008
REMARK  1 active torsions:
REMARK  status: ('A' for Active; 'I' for Inactive)
REMARK    1  A    between atoms: C_8  and  N_9 
ROOT
HETATM    1  N   UNL     1      62.553   7.663   2.083  1.00  0.00    -0.359 N 
HETATM    2  C   UNL     1      62.161   9.641   3.026  1.00  0.00    -0.005 A 
HETATM    3  C   UNL     1      61.569   8.257   1.332  1.00  0.00     0.006 A 
HETATM    4  C   UNL     1      61.354   9.513   1.863  1.00  0.00     0.038 A 
HETATM    5  C   UNL     1      62.901   8.467   3.143  1.00  0.00     0.042 A 
HETATM    6  C   UNL     1      62.299  10.632   4.020  1.00  0.00     0.042 A 
HETATM    7  C   UNL     1      63.779   8.235   4.206  1.00  0.00     0.033 A 
HETATM    8  C   UNL     1      63.181  10.436   5.090  1.00  0.00     0.026 A 
HETATM    9  C   UNL     1      63.876   9.228   5.189  1.00  0.00     0.031 A 
HETATM   10  C   UNL     1      60.906   7.564   0.201  1.00  0.00     0.068 C 
HETATM   11  H   UNL     1      62.955   6.784   1.889  1.00  0.00     0.166 HD
ENDROOT
BRANCH   8  12
HETATM   12  N   UNL     1      63.174  11.330   6.171  1.00  0.00    -0.399 N 
HETATM   13  H   UNL     1      64.021  11.594   6.598  1.00  0.00     0.156 HD
HETATM   14  H   UNL     1      62.322  11.694   6.504  1.00  0.00     0.156 HD
ENDBRANCH   8  12
TORSDOF 1
ENDMDL
MODEL 4
REMARK VINA RESULT:      -4.6      1.953      3.529
REMARK  1 active torsions:
REMARK  status: ('A' for Active; 'I' for Inactive)
REMARK    1  A    between atoms: C_8  and  N_9 
ROOT
HETATM    1  N   UNL     1      63.114   7.268   3.941  1.00  0.00    -0.359 N 
HETATM    2  C   UNL     1      62.563   9.415   4.146  1.00  0.00    -0.005 A 
HETATM    3  C   UNL     1      63.344   7.600   5.254  1.00  0.00     0.006 A 
HETATM    4  C   UNL     1      62.948   8.911   5.418  1.00  0.00     0.038 A 
HETATM    5  C   UNL     1      62.678   8.366   3.237  1.00  0.00     0.042 A 
HETATM    6  C   UNL     1      62.167  10.683   3.672  1.00  0.00     0.042 A 
HETATM    7  C   UNL     1      62.412   8.521   1.874  1.00  0.00     0.033 A 
HETATM    8  C   UNL     1      61.880  10.867   2.314  1.00  0.00     0.026 A 
HETATM    9  C   UNL     1      62.044   9.797   1.430  1.00  0.00     0.031 A 
HETATM   10  C   UNL     1      63.944   6.647   6.220  1.00  0.00     0.068 C 
HETATM   11  H   UNL     1      63.243   6.370   3.557  1.00  0.00     0.166 HD
ENDROOT
BRANCH   8  12
HETATM   12  N   UNL     1      61.675  12.162   1.813  1.00  0.00    -0.399 N 
HETATM   13  H   UNL     1      62.407  12.819   1.833  1.00  0.00     0.156 HD
HETATM   14  H   UNL     1      60.798  12.414   1.441  1.00  0.00     0.156 HD
ENDBRANCH   8  12
TORSDOF 1
ENDMDL
MODEL 5
REMARK VINA RESULT:      -4.2      3.512      5.052
REMARK  1 active torsions:
REMARK  status: ('A' for Active; 'I' for Inactive)
REMARK    1  A    between atoms: C_8  and  N_9 
ROOT
HETATM    1  N   UNL     1      64.094   9.420   5.434  1.00  0.00    -0.359 N 
HETATM    2  C   UNL     1      64.585   7.652   4.174  1.00  0.00    -0.005 A 
HETATM    3  C   UNL     1      63.149   9.384   4.439  1.00  0.00     0.006 A 
HETATM    4  C   UNL     1      63.397   8.258   3.681  1.00  0.00     0.038 A 
HETATM    5  C   UNL     1      65.003   8.401   5.271  1.00  0.00     0.042 A 
HETATM    6  C   UNL     1      65.372   6.558   3.759  1.00  0.00     0.042 A 
HETATM    7  C   UNL     1      66.171   8.106   5.980  1.00  0.00     0.033 A 
HETATM    8  C   UNL     1      66.540   6.228   4.458  1.00  0.00     0.026 A 
HETATM    9  C   UNL     1      66.943   7.028   5.531  1.00  0.00     0.031 A 
HETATM   10  C   UNL     1      62.117  10.439   4.285  1.00  0.00     0.068 C 
HETATM   11  H   UNL     1      64.118  10.082   6.163  1.00  0.00     0.166 HD
ENDROOT
BRANCH   8  12
HETATM   12  N   UNL     1      67.418   5.266   3.935  1.00  0.00    -0.399 N 
HETATM   13  H   UNL     1      68.376   5.302   4.156  1.00  0.00     0.156 HD
HETATM   14  H   UNL     1      67.075   4.555   3.346  1.00  0.00     0.156 HD
ENDBRANCH   8  12
TORSDOF 1
ENDMDL
MODEL 6
REMARK VINA RESULT:      -4.1      1.497      4.309
REMARK  1 active torsions:
REMARK  status: ('A' for Active; 'I' for Inactive)
REMARK    1  A    between atoms: C_8  and  N_9 
ROOT
HETATM    1  N   UNL     1      62.106  10.702   3.498  1.00  0.00    -0.359 N 
HETATM    2  C   UNL     1      62.886   8.636   3.215  1.00  0.00    -0.005 A 
HETATM    3  C   UNL     1      62.755  10.373   4.663  1.00  0.00     0.006 A 
HETATM    4  C   UNL     1      63.301   9.118   4.486  1.00  0.00     0.038 A 
HETATM    5  C   UNL     1      62.137   9.646   2.617  1.00  0.00     0.042 A 
HETATM    6  C   UNL     1      63.040   7.411   2.532  1.00  0.00     0.042 A 
HETATM    7  C   UNL     1      61.536   9.495   1.364  1.00  0.00     0.033 A 
HETATM    8  C   UNL     1      62.463   7.234   1.269  1.00  0.00     0.026 A 
HETATM    9  C   UNL     1      61.688   8.260   0.722  1.00  0.00     0.031 A 
HETATM   10  C   UNL     1      62.769  11.270   5.844  1.00  0.00     0.068 C 
HETATM   11  H   UNL     1      61.680  11.571   3.318  1.00  0.00     0.166 HD
ENDROOT
BRANCH   8  12
HETATM   12  N   UNL     1      62.454   5.960   0.679  1.00  0.00    -0.399 N 
HETATM   13  H   UNL     1      62.125   5.846  -0.241  1.00  0.00     0.156 HD
HETATM   14  H   UNL     1      62.778   5.180   1.186  1.00  0.00     0.156 HD
ENDBRANCH   8  12
TORSDOF 1
ENDMDL
MODEL 7
REMARK VINA RESULT:      -4.1      2.151      3.762
REMARK  1 active torsions:
REMARK  status: ('A' for Active; 'I' for Inactive)
REMARK    1  A    between atoms: C_8  and  N_9 
ROOT
HETATM    1  N   UNL     1      62.172  10.469   3.882  1.00  0.00    -0.359 N 
HETATM    2  C   UNL     1      62.647   8.523   2.911  1.00  0.00    -0.005 A 
HETATM    3  C   UNL     1      61.969  10.653   2.536  1.00  0.00     0.006 A 
HETATM    4  C   UNL     1      62.198   9.439   1.921  1.00  0.00     0.038 A 
HETATM    5  C   UNL     1      62.623   9.195   4.131  1.00  0.00     0.042 A 
HETATM    6  C   UNL     1      63.116   7.194   2.877  1.00  0.00     0.042 A 
HETATM    7  C   UNL     1      63.043   8.599   5.324  1.00  0.00     0.033 A 
HETATM    8  C   UNL     1      63.530   6.564   4.058  1.00  0.00     0.026 A 
HETATM    9  C   UNL     1      63.525   7.286   5.254  1.00  0.00     0.031 A 
HETATM   10  C   UNL     1      61.607  11.971   1.960  1.00  0.00     0.068 C 
HETATM   11  H   UNL     1      62.014  11.154   4.573  1.00  0.00     0.166 HD
ENDROOT
BRANCH   8  12
HETATM   12  N   UNL     1      64.172   5.318   3.995  1.00  0.00    -0.399 N 
HETATM   13  H   UNL     1      64.104   4.690   4.750  1.00  0.00     0.156 HD
HETATM   14  H   UNL     1      64.691   5.071   3.195  1.00  0.00     0.156 HD
ENDBRANCH   8  12
TORSDOF 1
ENDMDL
MODEL 8
REMARK VINA RESULT:      -4.1      1.917      2.778
REMARK  1 active torsions:
REMARK  status: ('A' for Active; 'I' for Inactive)
REMARK    1  A    between atoms: C_8  and  N_9 
ROOT
HETATM    1  N   UNL     1      63.006   6.994   3.416  1.00  0.00    -0.359 N 
HETATM    2  C   UNL     1      62.441   8.516   1.893  1.00  0.00    -0.005 A 
HETATM    3  C   UNL     1      62.914   6.324   2.221  1.00  0.00     0.006 A 
HETATM    4  C   UNL     1      62.626   7.262   1.250  1.00  0.00     0.038 A 
HETATM    5  C   UNL     1      62.683   8.320   3.251  1.00  0.00     0.042 A 
HETATM    6  C   UNL     1      62.045   9.795   1.451  1.00  0.00     0.042 A 
HETATM    7  C   UNL     1      62.551   9.345   4.192  1.00  0.00     0.033 A 
HETATM    8  C   UNL     1      61.919  10.847   2.368  1.00  0.00     0.026 A 
HETATM    9  C   UNL     1      62.134  10.598   3.726  1.00  0.00     0.031 A 
HETATM   10  C   UNL     1      63.080   4.854   2.120  1.00  0.00     0.068 C 
HETATM   11  H   UNL     1      63.267   6.583   4.273  1.00  0.00     0.166 HD
ENDROOT
BRANCH   8  12
HETATM   12  N   UNL     1      61.343  12.060   1.961  1.00  0.00    -0.399 N 
HETATM   13  H   UNL     1      61.657  12.504   1.141  1.00  0.00     0.156 HD
HETATM   14  H   UNL     1      60.623  12.468   2.497  1.00  0.00     0.156 HD
ENDBRANCH   8  12
TORSDOF 1
ENDMDL
MODEL 9
REMARK VINA RESULT:      -4.1      2.928      4.249
REMARK  1 active torsions:
REMARK  status: ('A' for Active; 'I' for Inactive)
REMARK    1  A    between atoms: C_8  and  N_9 
ROOT
HETATM    1  N   UNL     1      65.533   6.621   4.057  1.00  0.00    -0.359 N 
HETATM    2  C   UNL     1      64.342   8.377   4.728  1.00  0.00    -0.005 A 
HETATM    3  C   UNL     1      66.248   7.203   5.074  1.00  0.00     0.006 A 
HETATM    4  C   UNL     1      65.496   8.259   5.548  1.00  0.00     0.038 A 
HETATM    5  C   UNL     1      64.390   7.340   3.799  1.00  0.00     0.042 A 
HETATM    6  C   UNL     1      63.278   9.301   4.659  1.00  0.00     0.042 A 
HETATM    7  C   UNL     1      63.421   7.177   2.805  1.00  0.00     0.033 A 
HETATM    8  C   UNL     1      62.284   9.156   3.683  1.00  0.00     0.026 A 
HETATM    9  C   UNL     1      62.390   8.123   2.748  1.00  0.00     0.031 A 
HETATM   10  C   UNL     1      67.590   6.718   5.480  1.00  0.00     0.068 C 
HETATM   11  H   UNL     1      65.801   5.802   3.578  1.00  0.00     0.166 HD
ENDROOT
BRANCH   8  12
HETATM   12  N   UNL     1      61.339  10.176   3.494  1.00  0.00    -0.399 N 
HETATM   13  H   UNL     1      61.071  10.746   4.250  1.00  0.00     0.156 HD
HETATM   14  H   UNL     1      60.944  10.322   2.604  1.00  0.00     0.156 HD
ENDBRANCH   8  12
TORSDOF 1
ENDMDL
