MODEL 1
REMARK VINA RESULT:      -4.3      0.000      0.000
REMARK  2 active torsions:
REMARK  status: ('A' for Active; 'I' for Inactive)
REMARK    1  A    between atoms: C_2  and  C_6 
REMARK    2  A    between atoms: C_6  and  O_7 
ROOT
HETATM    1  O   UNL     1      64.702   9.394   5.522  1.00  0.00    -0.318 OA
HETATM    2  C   UNL     1      63.479   9.917   5.208  1.00  0.00     0.076 A 
HETATM    3  C   UNL     1      64.826   8.228   4.826  1.00  0.00     0.049 A 
HETATM    4  C   UNL     1      63.696   8.001   4.072  1.00  0.00     0.035 A 
HETATM    5  C   UNL     1      62.827   9.090   4.317  1.00  0.00     0.037 A 
HETATM    6  C   UNL     1      66.088   7.482   5.007  1.00  0.00     0.076 C 
ENDROOT
BRANCH   2   7
HETATM    7  C   UNL     1      63.119  11.202   5.849  1.00  0.00     0.229 C 
BRANCH   7   8
HETATM    8  O   UNL     1      64.271  11.696   6.520  1.00  0.00    -0.394 OA
HETATM    9  H   UNL     1      64.102  12.600   6.829  1.00  0.00     0.209 HD
ENDBRANCH   7   8
ENDBRANCH   2   7
TORSDOF 2
ENDMDL
MODEL 2
REMARK VINA RESULT:      -4.1      1.741      2.723
REMARK  2 active torsions:
REMARK  status: ('A' for Active; 'I' for Inactive)
REMARK    1  A    between atoms: C_2  and  C_6 
REMARK    2  A    between atoms: C_6  and  O_7 
ROOT
HETATM    1  O   UNL     1      62.249  10.450   3.672  1.00  0.00    -0.318 OA
HETATM    2  C   UNL     1      62.956  10.171   4.808  1.00  0.00     0.076 A 
HETATM    3  C   UNL     1      62.356   9.359   2.859  1.00  0.00     0.049 A 
HETATM    4  C   UNL     1      63.122   8.388   3.465  1.00  0.00     0.035 A 
HETATM    5  C   UNL     1      63.509   8.910   4.721  1.00  0.00     0.037 A 
HETATM    6  C   UNL     1      61.657   9.432   1.561  1.00  0.00     0.076 C 
ENDROOT
BRANCH   2   7
HETATM    7  C   UNL     1      62.980  11.219   5.852  1.00  0.00     0.229 C 
BRANCH   7   8
HETATM    8  O   UNL     1      64.326  11.381   6.281  1.00  0.00    -0.394 OA
HETATM    9  H   UNL     1      64.760  10.514   6.315  1.00  0.00     0.209 HD
ENDBRANCH   7   8
ENDBRANCH   2   7
TORSDOF 2
ENDMDL
MODEL 3
REMARK VINA RESULT:      -4.0      2.525      3.442
REMARK  2 active torsions:
REMARK  status: ('A' for Active; 'I' for Inactive)
REMARK    1  A    between atoms: C_2  and  C_6 
REMARK    2  A    between atoms: C_6  and  O_7 
ROOT
HETATM    1  O   UNL     1      62.586   9.352   3.107  1.00  0.00    -0.318 OA
HETATM    2  C   UNL     1      62.479  10.344   4.041  1.00  0.00     0.076 A 
HETATM    3  C   UNL     1      62.109   9.856   1.933  1.00  0.00     0.049 A 
HETATM    4  C   UNL     1      61.697  11.160   2.108  1.00  0.00     0.035 A 
HETATM    5  C   UNL     1      61.936  11.475   3.466  1.00  0.00     0.037 A 
HETATM    6  C   UNL     1      62.133   8.951   0.767  1.00  0.00     0.076 C 
ENDROOT
BRANCH   2   7
HETATM    7  C   UNL     1      62.947  10.026   5.409  1.00  0.00     0.229 C 
BRANCH   7   8
HETATM    8  O   UNL     1      63.844  11.052   5.815  1.00  0.00    -0.394 OA
HETATM    9  H   UNL     1      64.457  10.700   6.480  1.00  0.00     0.209 HD
ENDBRANCH   7   8
ENDBRANCH   2   7
TORSDOF 2
ENDMDL
MODEL 4
REMARK VINA RESULT:      -3.8      1.155      3.045
REMARK  2 active torsions:
REMARK  status: ('A' for Active; 'I' for Inactive)
REMARK    1  A    between atoms: C_2  and  C_6 
REMARK    2  A    between atoms: C_6  and  O_7 
ROOT
HETATM    1  O   UNL     1      64.712   9.526   5.772  1.00  0.00    -0.318 OA
HETATM    2  C   UNL     1      65.253   8.332   5.388  1.00  0.00     0.076 A 
HETATM    3  C   UNL     1      63.569   9.697   5.047  1.00  0.00     0.049 A 
HETATM    4  C   UNL     1      63.376   8.625   4.203  1.00  0.00     0.035 A 
HETATM    5  C   UNL     1      64.461   7.744   4.423  1.00  0.00     0.037 A 
HETATM    6  C   UNL     1      62.803  10.933   5.302  1.00  0.00     0.076 C 
ENDROOT
BRANCH   2   7
HETATM    7  C   UNL     1      66.511   7.926   6.053  1.00  0.00     0.229 C 
BRANCH   7   8
HETATM    8  O   UNL     1      66.860   8.939   6.988  1.00  0.00    -0.394 OA
HETATM    9  H   UNL     1      66.056   9.278   7.412  1.00  0.00     0.209 HD
ENDBRANCH   7   8
ENDBRANCH   2   7
TORSDOF 2
ENDMDL
MODEL 5
REMARK VINA RESULT:      -3.7      2.784      3.111
REMARK  2 active torsions:
REMARK  status: ('A' for Active; 'I' for Inactive)
REMARK    1  A    between atoms: C_2  and  C_6 
REMARK    2  A    between atoms: C_6  and  O_7 
ROOT
HETATM    1  O   UNL     1      62.747   8.774   3.374  1.00  0.00    -0.318 OA
HETATM    2  C   UNL     1      62.277  10.057   3.365  1.00  0.00     0.076 A 
HETATM    3  C   UNL     1      62.548   8.269   2.122  1.00  0.00     0.049 A 
HETATM    4  C   UNL     1      61.956   9.217   1.316  1.00  0.00     0.035 A 
HETATM    5  C   UNL     1      61.782  10.369   2.117  1.00  0.00     0.037 A 
HETATM    6  C   UNL     1      62.991   6.880   1.892  1.00  0.00     0.076 C 
ENDROOT
BRANCH   2   7
HETATM    7  C   UNL     1      62.393  10.817   4.630  1.00  0.00     0.229 C 
BRANCH   7   8
HETATM    8  O   UNL     1      62.071  12.175   4.357  1.00  0.00    -0.394 OA
HETATM    9  H   UNL     1      61.144  12.238   4.079  1.00  0.00     0.209 HD
ENDBRANCH   7   8
ENDBRANCH   2   7
TORSDOF 2
ENDMDL
MODEL 6
REMARK VINA RESULT:      -3.5      2.223      3.482
REMARK  2 active torsions:
REMARK  status: ('A' for Active; 'I' for Inactive)
REMARK    1  A    between atoms: C_2  and  C_6 
REMARK    2  A    between atoms: C_6  and  O_7 
ROOT
HETATM    1  O   UNL     1      62.639   8.550   3.447  1.00  0.00    -0.318 OA
HETATM    2  C   UNL     1      62.854   8.991   4.722  1.00  0.00     0.076 A 
HETATM    3  C   UNL     1      62.167   9.613   2.733  1.00  0.00     0.049 A 
HETATM    4  C   UNL     1      62.078  10.726   3.540  1.00  0.00     0.035 A 
HETATM    5  C   UNL     1      62.521  10.326   4.822  1.00  0.00     0.037 A 
HETATM    6  C   UNL     1      61.867   9.370   1.308  1.00  0.00     0.076 C 
ENDROOT
BRANCH   2   7
HETATM    7  C   UNL     1      63.378   8.002   5.690  1.00  0.00     0.229 C 
BRANCH   7   8
HETATM    8  O   UNL     1      62.663   8.159   6.909  1.00  0.00    -0.394 OA
HETATM    9  H   UNL     1      62.791   7.371   7.462  1.00  0.00     0.209 HD
ENDBRANCH   7   8
ENDBRANCH   2   7
TORSDOF 2
ENDMDL
MODEL 7
REMARK VINA RESULT:      -3.5      2.409      3.980
REMARK  2 active torsions:
REMARK  status: ('A' for Active; 'I' for Inactive)
REMARK    1  A    between atoms: C_2  and  C_6 
REMARK    2  A    between atoms: C_6  and  O_7 
ROOT
HETATM    1  O   UNL     1      65.935   7.509   7.226  1.00  0.00    -0.318 OA
HETATM    2  C   UNL     1      66.115   7.523   5.871  1.00  0.00     0.076 A 
HETATM    3  C   UNL     1      66.916   6.718   7.749  1.00  0.00     0.049 A 
HETATM    4  C   UNL     1      67.719   6.227   6.743  1.00  0.00     0.035 A 
HETATM    5  C   UNL     1      67.204   6.747   5.532  1.00  0.00     0.037 A 
HETATM    6  C   UNL     1      66.923   6.559   9.217  1.00  0.00     0.076 C 
ENDROOT
BRANCH   2   7
HETATM    7  C   UNL     1      65.160   8.331   5.081  1.00  0.00     0.229 C 
BRANCH   7   8
HETATM    8  O   UNL     1      64.922   9.543   5.786  1.00  0.00    -0.394 OA
HETATM    9  H   UNL     1      65.361  10.276   5.326  1.00  0.00     0.209 HD
ENDBRANCH   7   8
ENDBRANCH   2   7
TORSDOF 2
ENDMDL
MODEL 8
REMARK VINA RESULT:      -3.3      1.950      2.343
REMARK  2 active torsions:
REMARK  status: ('A' for Active; 'I' for Inactive)
REMARK    1  A    between atoms: C_2  and  C_6 
REMARK    2  A    between atoms: C_6  and  O_7 
ROOT
HETATM    1  O   UNL     1      62.852   8.821   3.063  1.00  0.00    -0.318 OA
HETATM    2  C   UNL     1      62.653   9.859   3.929  1.00  0.00     0.076 A 
HETATM    3  C   UNL     1      63.603   7.892   3.722  1.00  0.00     0.049 A 
HETATM    4  C   UNL     1      63.885   8.327   4.999  1.00  0.00     0.035 A 
HETATM    5  C   UNL     1      63.272   9.594   5.133  1.00  0.00     0.037 A 
HETATM    6  C   UNL     1      63.942   6.665   2.973  1.00  0.00     0.076 C 
ENDROOT
BRANCH   2   7
HETATM    7  C   UNL     1      61.849  10.997   3.431  1.00  0.00     0.229 C 
BRANCH   7   8
HETATM    8  O   UNL     1      62.075  12.105   4.294  1.00  0.00    -0.394 OA
HETATM    9  H   UNL     1      61.709  11.911   5.171  1.00  0.00     0.209 HD
ENDBRANCH   7   8
ENDBRANCH   2   7
TORSDOF 2
ENDMDL
MODEL 9
REMARK VINA RESULT:      -3.3      2.889      4.680
REMARK  2 active torsions:
REMARK  status: ('A' for Active; 'I' for Inactive)
REMARK    1  A    between atoms: C_2  and  C_6 
REMARK    2  A    between atoms: C_6  and  O_7 
ROOT
HETATM    1  O   UNL     1      65.446   7.565   6.991  1.00  0.00    -0.318 OA
HETATM    2  C   UNL     1      66.540   6.870   7.423  1.00  0.00     0.076 A 
HETATM    3  C   UNL     1      65.677   7.902   5.689  1.00  0.00     0.049 A 
HETATM    4  C   UNL     1      66.908   7.430   5.288  1.00  0.00     0.035 A 
HETATM    5  C   UNL     1      67.464   6.764   6.405  1.00  0.00     0.037 A 
HETATM    6  C   UNL     1      64.613   8.662   5.004  1.00  0.00     0.076 C 
ENDROOT
BRANCH   2   7
HETATM    7  C   UNL     1      66.514   6.391   8.824  1.00  0.00     0.229 C 
BRANCH   7   8
HETATM    8  O   UNL     1      66.169   5.011   8.809  1.00  0.00    -0.394 OA
HETATM    9  H   UNL     1      65.853   4.748   9.688  1.00  0.00     0.209 HD
ENDBRANCH   7   8
ENDBRANCH   2   7
TORSDOF 2
ENDMDL
