MODEL 1
REMARK VINA RESULT:      -3.5      0.000      0.000
REMARK  1 active torsions:
REMARK  status: ('A' for Active; 'I' for Inactive)
REMARK    1  A    between atoms: C_5  and  C_6 
ROOT
HETATM    1  N   UNL     1      61.872  10.611   3.254  1.00  0.00    -0.364 N 
ATOM      2  HN  UNL     1      61.317  10.911   2.452  1.00  0.00     0.165 HD
HETATM    3  N   UNL     1      63.408   9.802   5.495  1.00  0.00    -0.372 N 
ATOM      4  HN  UNL     1      63.960   9.508   6.301  1.00  0.00     0.164 HD
HETATM    5  C   UNL     1      62.450   9.385   3.310  1.00  0.00     0.046 A 
HETATM    6  C   UNL     1      63.203   9.000   4.419  1.00  0.00     0.117 A 
HETATM    7  C   UNL     1      62.075  11.412   4.325  1.00  0.00     0.105 A 
HETATM    8  C   UNL     1      62.825  11.017   5.420  1.00  0.00     0.104 A 
ENDROOT
BRANCH   5   9
HETATM    9  C   UNL     1      62.256   8.481   2.167  1.00  0.00     0.021 C 
HETATM   10  C   UNL     1      62.072   8.889   0.904  1.00  0.00     0.013 C 
ENDBRANCH   5   9
TORSDOF 1
ENDMDL
MODEL 2
REMARK VINA RESULT:      -3.5      1.553      2.356
REMARK  1 active torsions:
REMARK  status: ('A' for Active; 'I' for Inactive)
REMARK    1  A    between atoms: C_5  and  C_6 
ROOT
HETATM    1  N   UNL     1      63.039   8.421   3.004  1.00  0.00    -0.364 N 
ATOM      2  HN  UNL     1      63.025   8.016   2.067  1.00  0.00     0.165 HD
HETATM    3  N   UNL     1      63.093   9.524   5.614  1.00  0.00    -0.372 N 
ATOM      4  HN  UNL     1      63.112   9.924   6.553  1.00  0.00     0.164 HD
HETATM    5  C   UNL     1      62.455   9.614   3.279  1.00  0.00     0.046 A 
HETATM    6  C   UNL     1      62.490  10.145   4.568  1.00  0.00     0.117 A 
HETATM    7  C   UNL     1      63.640   7.800   4.044  1.00  0.00     0.105 A 
HETATM    8  C   UNL     1      63.667   8.338   5.319  1.00  0.00     0.104 A 
ENDROOT
BRANCH   5   9
HETATM    9  C   UNL     1      61.790  10.324   2.178  1.00  0.00     0.021 C 
HETATM   10  C   UNL     1      61.787  11.657   2.031  1.00  0.00     0.013 C 
ENDBRANCH   5   9
TORSDOF 1
ENDMDL
MODEL 3
REMARK VINA RESULT:      -3.3      3.943      5.240
REMARK  1 active torsions:
REMARK  status: ('A' for Active; 'I' for Inactive)
REMARK    1  A    between atoms: C_5  and  C_6 
ROOT
HETATM    1  N   UNL     1      64.976   7.210   6.934  1.00  0.00    -0.364 N 
ATOM      2  HN  UNL     1      63.967   7.228   7.089  1.00  0.00     0.165 HD
HETATM    3  N   UNL     1      67.780   7.141   6.527  1.00  0.00    -0.372 N 
ATOM      4  HN  UNL     1      68.789   7.117   6.378  1.00  0.00     0.164 HD
HETATM    5  C   UNL     1      65.558   7.880   5.909  1.00  0.00     0.046 A 
HETATM    6  C   UNL     1      66.939   7.837   5.720  1.00  0.00     0.117 A 
HETATM    7  C   UNL     1      65.812   6.515   7.740  1.00  0.00     0.105 A 
HETATM    8  C   UNL     1      67.182   6.481   7.542  1.00  0.00     0.104 A 
ENDROOT
BRANCH   5   9
HETATM    9  C   UNL     1      64.688   8.649   5.008  1.00  0.00     0.021 C 
HETATM   10  C   UNL     1      63.781   8.102   4.186  1.00  0.00     0.013 C 
ENDBRANCH   5   9
TORSDOF 1
ENDMDL
MODEL 4
REMARK VINA RESULT:      -3.3      1.545      3.051
REMARK  1 active torsions:
REMARK  status: ('A' for Active; 'I' for Inactive)
REMARK    1  A    between atoms: C_5  and  C_6 
ROOT
HETATM    1  N   UNL     1      62.591   8.902   2.397  1.00  0.00    -0.364 N 
ATOM      2  HN  UNL     1      62.893   7.970   2.114  1.00  0.00     0.165 HD
HETATM    3  N   UNL     1      61.743  11.498   3.157  1.00  0.00    -0.372 N 
ATOM      4  HN  UNL     1      61.439  12.432   3.434  1.00  0.00     0.164 HD
HETATM    5  C   UNL     1      62.657   9.318   3.687  1.00  0.00     0.046 A 
HETATM    6  C   UNL     1      62.236  10.598   4.047  1.00  0.00     0.117 A 
HETATM    7  C   UNL     1      62.100   9.797   1.510  1.00  0.00     0.105 A 
HETATM    8  C   UNL     1      61.686  11.065   1.880  1.00  0.00     0.104 A 
ENDROOT
BRANCH   5   9
HETATM    9  C   UNL     1      63.184   8.378   4.686  1.00  0.00     0.021 C 
HETATM   10  C   UNL     1      64.447   8.380   5.133  1.00  0.00     0.013 C 
ENDBRANCH   5   9
TORSDOF 1
ENDMDL
MODEL 5
REMARK VINA RESULT:      -3.3      5.615      7.244
REMARK  1 active torsions:
REMARK  status: ('A' for Active; 'I' for Inactive)
REMARK    1  A    between atoms: C_5  and  C_6 
ROOT
HETATM    1  N   UNL     1      67.934   6.885   6.736  1.00  0.00    -0.364 N 
ATOM      2  HN  UNL     1      68.940   6.754   6.630  1.00  0.00     0.165 HD
HETATM    3  N   UNL     1      65.137   7.261   7.006  1.00  0.00    -0.372 N 
ATOM      4  HN  UNL     1      64.131   7.395   7.106  1.00  0.00     0.164 HD
HETATM    5  C   UNL     1      67.247   6.358   7.781  1.00  0.00     0.046 A 
HETATM    6  C   UNL     1      65.871   6.550   7.901  1.00  0.00     0.117 A 
HETATM    7  C   UNL     1      67.204   7.593   5.844  1.00  0.00     0.105 A 
HETATM    8  C   UNL     1      65.839   7.778   5.975  1.00  0.00     0.104 A 
ENDROOT
BRANCH   5   9
HETATM    9  C   UNL     1      67.999   5.580   8.775  1.00  0.00     0.021 C 
HETATM   10  C   UNL     1      68.075   4.242   8.787  1.00  0.00     0.013 C 
ENDBRANCH   5   9
TORSDOF 1
ENDMDL
MODEL 6
REMARK VINA RESULT:      -3.2      5.184      6.840
REMARK  1 active torsions:
REMARK  status: ('A' for Active; 'I' for Inactive)
REMARK    1  A    between atoms: C_5  and  C_6 
ROOT
HETATM    1  N   UNL     1      65.873   7.740   6.797  1.00  0.00    -0.364 N 
ATOM      2  HN  UNL     1      65.179   8.118   7.443  1.00  0.00     0.165 HD
HETATM    3  N   UNL     1      67.787   6.705   4.982  1.00  0.00    -0.372 N 
ATOM      4  HN  UNL     1      68.478   6.331   4.331  1.00  0.00     0.164 HD
HETATM    5  C   UNL     1      66.893   6.951   7.219  1.00  0.00     0.046 A 
HETATM    6  C   UNL     1      67.828   6.450   6.315  1.00  0.00     0.117 A 
HETATM    7  C   UNL     1      65.830   7.996   5.470  1.00  0.00     0.105 A 
HETATM    8  C   UNL     1      66.764   7.490   4.582  1.00  0.00     0.104 A 
ENDROOT
BRANCH   5   9
HETATM    9  C   UNL     1      66.978   6.647   8.654  1.00  0.00     0.021 C 
HETATM   10  C   UNL     1      67.956   5.923   9.216  1.00  0.00     0.013 C 
ENDBRANCH   5   9
TORSDOF 1
ENDMDL
MODEL 7
REMARK VINA RESULT:      -3.2      1.473      3.075
REMARK  1 active torsions:
REMARK  status: ('A' for Active; 'I' for Inactive)
REMARK    1  A    between atoms: C_5  and  C_6 
ROOT
HETATM    1  N   UNL     1      63.733   9.864   5.598  1.00  0.00    -0.364 N 
ATOM      2  HN  UNL     1      64.294   9.916   6.448  1.00  0.00     0.165 HD
HETATM    3  N   UNL     1      62.161   9.746   3.242  1.00  0.00    -0.372 N 
ATOM      4  HN  UNL     1      61.597   9.701   2.393  1.00  0.00     0.164 HD
HETATM    5  C   UNL     1      63.832   8.824   4.733  1.00  0.00     0.046 A 
HETATM    6  C   UNL     1      63.053   8.779   3.578  1.00  0.00     0.117 A 
HETATM    7  C   UNL     1      62.845  10.829   5.265  1.00  0.00     0.105 A 
HETATM    8  C   UNL     1      62.076  10.772   4.115  1.00  0.00     0.104 A 
ENDROOT
BRANCH   5   9
HETATM    9  C   UNL     1      64.784   7.752   5.054  1.00  0.00     0.021 C 
HETATM   10  C   UNL     1      66.113   7.918   5.123  1.00  0.00     0.013 C 
ENDBRANCH   5   9
TORSDOF 1
ENDMDL
MODEL 8
REMARK VINA RESULT:      -3.1      2.046      3.192
REMARK  1 active torsions:
REMARK  status: ('A' for Active; 'I' for Inactive)
REMARK    1  A    between atoms: C_5  and  C_6 
ROOT
HETATM    1  N   UNL     1      62.245   7.760   5.195  1.00  0.00    -0.364 N 
ATOM      2  HN  UNL     1      61.266   7.637   4.936  1.00  0.00     0.165 HD
HETATM    3  N   UNL     1      64.964   8.079   5.931  1.00  0.00    -0.372 N 
ATOM      4  HN  UNL     1      65.943   8.196   6.193  1.00  0.00     0.164 HD
HETATM    5  C   UNL     1      63.004   8.759   4.680  1.00  0.00     0.046 A 
HETATM    6  C   UNL     1      64.340   8.904   5.050  1.00  0.00     0.117 A 
HETATM    7  C   UNL     1      62.864   6.937   6.073  1.00  0.00     0.105 A 
HETATM    8  C   UNL     1      64.191   7.092   6.432  1.00  0.00     0.104 A 
ENDROOT
BRANCH   5   9
HETATM    9  C   UNL     1      62.373   9.678   3.722  1.00  0.00     0.021 C 
HETATM   10  C   UNL     1      62.116  10.969   3.972  1.00  0.00     0.013 C 
ENDBRANCH   5   9
TORSDOF 1
ENDMDL
MODEL 9
REMARK VINA RESULT:      -3.0     12.742     13.654
REMARK  1 active torsions:
REMARK  status: ('A' for Active; 'I' for Inactive)
REMARK    1  A    between atoms: C_5  and  C_6 
ROOT
HETATM    1  N   UNL     1      57.264   1.761  14.395  1.00  0.00    -0.364 N 
ATOM      2  HN  UNL     1      56.706   1.582  15.231  1.00  0.00     0.165 HD
HETATM    3  N   UNL     1      58.837   2.248  12.088  1.00  0.00    -0.372 N 
ATOM      4  HN  UNL     1      59.400   2.423  11.256  1.00  0.00     0.164 HD
HETATM    5  C   UNL     1      56.720   2.276  13.264  1.00  0.00     0.046 A 
HETATM    6  C   UNL     1      57.505   2.510  12.137  1.00  0.00     0.117 A 
HETATM    7  C   UNL     1      58.590   1.499  14.350  1.00  0.00     0.105 A 
HETATM    8  C   UNL     1      59.359   1.737  13.223  1.00  0.00     0.104 A 
ENDROOT
BRANCH   5   9
HETATM    9  C   UNL     1      55.281   2.576  13.269  1.00  0.00     0.021 C 
HETATM   10  C   UNL     1      54.719   3.570  13.971  1.00  0.00     0.013 C 
ENDBRANCH   5   9
TORSDOF 1
ENDMDL
