MODEL 1
REMARK VINA RESULT:      -4.8      0.000      0.000
REMARK  1 active torsions:
REMARK  status: ('A' for Active; 'I' for Inactive)
REMARK    1  A    between atoms: C_3  and  O_7 
ROOT
HETATM    1  N   UNL     1      62.851   9.373   5.687  1.00  0.00    -0.330 N 
ATOM      2  HN  UNL     1      62.850   9.965   6.517  1.00  0.00     0.168 HD
HETATM    3  C   UNL     1      63.163   8.105   5.657  1.00  0.00     0.185 A 
HETATM    4  S   UNL     1      63.095   7.311   4.160  1.00  0.00    -0.045 SA
HETATM    5  C   UNL     1      62.520   9.781   4.402  1.00  0.00     0.051 A 
HETATM    6  C   UNL     1      62.595   8.785   3.421  1.00  0.00     0.035 A 
HETATM    7  C   UNL     1      62.127  11.079   4.015  1.00  0.00     0.031 A 
HETATM    8  C   UNL     1      62.291   9.042   2.073  1.00  0.00     0.021 A 
HETATM    9  C   UNL     1      61.905  10.338   1.719  1.00  0.00     0.002 A 
HETATM   10  C   UNL     1      61.823  11.346   2.675  1.00  0.00     0.002 A 
ENDROOT
BRANCH   3  11
HETATM   11  O   UNL     1      63.513   7.499   6.774  1.00  0.00    -0.341 OA
HETATM   12  H   UNL     1      63.351   6.582   6.882  1.00  0.00     0.220 HD
ENDBRANCH   3  11
TORSDOF 1
ENDMDL
MODEL 2
REMARK VINA RESULT:      -4.8      2.459      3.319
REMARK  1 active torsions:
REMARK  status: ('A' for Active; 'I' for Inactive)
REMARK    1  A    between atoms: C_3  and  O_7 
ROOT
HETATM    1  N   UNL     1      61.747  10.980   2.722  1.00  0.00    -0.330 N 
ATOM      2  HN  UNL     1      61.301  11.710   2.167  1.00  0.00     0.168 HD
HETATM    3  C   UNL     1      62.120  11.092   3.968  1.00  0.00     0.185 A 
HETATM    4  S   UNL     1      62.845   9.744   4.699  1.00  0.00    -0.045 SA
HETATM    5  C   UNL     1      62.058   9.702   2.276  1.00  0.00     0.051 A 
HETATM    6  C   UNL     1      62.669   8.872   3.223  1.00  0.00     0.035 A 
HETATM    7  C   UNL     1      61.816   9.188   0.985  1.00  0.00     0.031 A 
HETATM    8  C   UNL     1      63.045   7.551   2.923  1.00  0.00     0.021 A 
HETATM    9  C   UNL     1      62.793   7.068   1.636  1.00  0.00     0.002 A 
HETATM   10  C   UNL     1      62.187   7.874   0.677  1.00  0.00     0.002 A 
ENDROOT
BRANCH   3  11
HETATM   11  O   UNL     1      61.921  12.230   4.603  1.00  0.00    -0.341 OA
HETATM   12  H   UNL     1      61.298  12.849   4.272  1.00  0.00     0.220 HD
ENDBRANCH   3  11
TORSDOF 1
ENDMDL
MODEL 3
REMARK VINA RESULT:      -4.2      2.393      3.539
REMARK  1 active torsions:
REMARK  status: ('A' for Active; 'I' for Inactive)
REMARK    1  A    between atoms: C_3  and  O_7 
ROOT
HETATM    1  N   UNL     1      63.440  10.313   5.386  1.00  0.00    -0.330 N 
ATOM      2  HN  UNL     1      63.839  10.711   6.237  1.00  0.00     0.168 HD
HETATM    3  C   UNL     1      62.537  10.879   4.632  1.00  0.00     0.185 A 
HETATM    4  S   UNL     1      62.014  10.034   3.258  1.00  0.00    -0.045 SA
HETATM    5  C   UNL     1      63.769   9.080   4.839  1.00  0.00     0.051 A 
HETATM    6  C   UNL     1      63.088   8.748   3.663  1.00  0.00     0.035 A 
HETATM    7  C   UNL     1      64.706   8.162   5.358  1.00  0.00     0.031 A 
HETATM    8  C   UNL     1      63.310   7.534   2.991  1.00  0.00     0.021 A 
HETATM    9  C   UNL     1      64.244   6.643   3.527  1.00  0.00     0.002 A 
HETATM   10  C   UNL     1      64.935   6.950   4.696  1.00  0.00     0.002 A 
ENDROOT
BRANCH   3  11
HETATM   11  O   UNL     1      62.072  12.068   4.962  1.00  0.00    -0.341 OA
HETATM   12  H   UNL     1      62.665  12.777   5.116  1.00  0.00     0.220 HD
ENDBRANCH   3  11
TORSDOF 1
ENDMDL
MODEL 4
REMARK VINA RESULT:      -4.0      2.792      3.521
REMARK  1 active torsions:
REMARK  status: ('A' for Active; 'I' for Inactive)
REMARK    1  A    between atoms: C_3  and  O_7 
ROOT
HETATM    1  N   UNL     1      61.293   9.850   1.881  1.00  0.00    -0.330 N 
ATOM      2  HN  UNL     1      60.675  10.526   1.432  1.00  0.00     0.168 HD
HETATM    3  C   UNL     1      61.589   8.665   1.418  1.00  0.00     0.185 A 
HETATM    4  S   UNL     1      62.644   7.701   2.332  1.00  0.00    -0.045 SA
HETATM    5  C   UNL     1      61.960  10.037   3.084  1.00  0.00     0.051 A 
HETATM    6  C   UNL     1      62.755   8.963   3.500  1.00  0.00     0.035 A 
HETATM    7  C   UNL     1      61.902  11.188   3.898  1.00  0.00     0.031 A 
HETATM    8  C   UNL     1      63.491   9.001   4.697  1.00  0.00     0.021 A 
HETATM    9  C   UNL     1      63.415  10.154   5.483  1.00  0.00     0.002 A 
HETATM   10  C   UNL     1      62.632  11.235   5.092  1.00  0.00     0.002 A 
ENDROOT
BRANCH   3  11
HETATM   11  O   UNL     1      61.064   8.268   0.275  1.00  0.00    -0.341 OA
HETATM   12  H   UNL     1      60.957   7.353   0.101  1.00  0.00     0.220 HD
ENDBRANCH   3  11
TORSDOF 1
ENDMDL
MODEL 5
REMARK VINA RESULT:      -3.9      1.462      2.275
REMARK  1 active torsions:
REMARK  status: ('A' for Active; 'I' for Inactive)
REMARK    1  A    between atoms: C_3  and  O_7 
ROOT
HETATM    1  N   UNL     1      63.002   7.262   4.571  1.00  0.00    -0.330 N 
ATOM      2  HN  UNL     1      63.166   6.261   4.679  1.00  0.00     0.168 HD
HETATM    3  C   UNL     1      63.063   8.150   5.527  1.00  0.00     0.185 A 
HETATM    4  S   UNL     1      62.752   9.768   5.122  1.00  0.00    -0.045 SA
HETATM    5  C   UNL     1      62.678   7.906   3.384  1.00  0.00     0.051 A 
HETATM    6  C   UNL     1      62.500   9.291   3.486  1.00  0.00     0.035 A 
HETATM    7  C   UNL     1      62.517   7.296   2.123  1.00  0.00     0.031 A 
HETATM    8  C   UNL     1      62.168  10.082   2.373  1.00  0.00     0.021 A 
HETATM    9  C   UNL     1      62.014   9.451   1.135  1.00  0.00     0.002 A 
HETATM   10  C   UNL     1      62.186   8.076   1.009  1.00  0.00     0.002 A 
ENDROOT
BRANCH   3  11
HETATM   11  O   UNL     1      63.358   7.762   6.752  1.00  0.00    -0.341 OA
HETATM   12  H   UNL     1      63.677   8.384   7.377  1.00  0.00     0.220 HD
ENDBRANCH   3  11
TORSDOF 1
ENDMDL
MODEL 6
REMARK VINA RESULT:      -3.9      2.582      3.183
REMARK  1 active torsions:
REMARK  status: ('A' for Active; 'I' for Inactive)
REMARK    1  A    between atoms: C_3  and  O_7 
ROOT
HETATM    1  N   UNL     1      65.480   8.658   6.200  1.00  0.00    -0.330 N 
ATOM      2  HN  UNL     1      65.352   9.463   6.813  1.00  0.00     0.168 HD
HETATM    3  C   UNL     1      66.416   7.754   6.315  1.00  0.00     0.185 A 
HETATM    4  S   UNL     1      66.441   6.495   5.179  1.00  0.00    -0.045 SA
HETATM    5  C   UNL     1      64.688   8.342   5.103  1.00  0.00     0.051 A 
HETATM    6  C   UNL     1      65.060   7.184   4.412  1.00  0.00     0.035 A 
HETATM    7  C   UNL     1      63.573   9.073   4.643  1.00  0.00     0.031 A 
HETATM    8  C   UNL     1      64.358   6.733   3.281  1.00  0.00     0.021 A 
HETATM    9  C   UNL     1      63.257   7.477   2.847  1.00  0.00     0.002 A 
HETATM   10  C   UNL     1      62.867   8.633   3.518  1.00  0.00     0.002 A 
ENDROOT
BRANCH   3  11
HETATM   11  O   UNL     1      67.291   7.853   7.296  1.00  0.00    -0.341 OA
HETATM   12  H   UNL     1      67.012   8.125   8.149  1.00  0.00     0.220 HD
ENDBRANCH   3  11
TORSDOF 1
ENDMDL
MODEL 7
REMARK VINA RESULT:      -3.8      1.851      2.456
REMARK  1 active torsions:
REMARK  status: ('A' for Active; 'I' for Inactive)
REMARK    1  A    between atoms: C_3  and  O_7 
ROOT
HETATM    1  N   UNL     1      63.284   7.510   3.121  1.00  0.00    -0.330 N 
ATOM      2  HN  UNL     1      63.077   7.074   2.223  1.00  0.00     0.168 HD
HETATM    3  C   UNL     1      63.949   6.957   4.100  1.00  0.00     0.185 A 
HETATM    4  S   UNL     1      64.177   7.868   5.512  1.00  0.00    -0.045 SA
HETATM    5  C   UNL     1      62.905   8.790   3.506  1.00  0.00     0.051 A 
HETATM    6  C   UNL     1      63.306   9.169   4.792  1.00  0.00     0.035 A 
HETATM    7  C   UNL     1      62.171   9.710   2.730  1.00  0.00     0.031 A 
HETATM    8  C   UNL     1      62.998  10.432   5.326  1.00  0.00     0.021 A 
HETATM    9  C   UNL     1      62.269  11.324   4.534  1.00  0.00     0.002 A 
HETATM   10  C   UNL     1      61.860  10.970   3.252  1.00  0.00     0.002 A 
ENDROOT
BRANCH   3  11
HETATM   11  O   UNL     1      64.410   5.731   3.956  1.00  0.00    -0.341 OA
HETATM   12  H   UNL     1      63.983   5.015   4.385  1.00  0.00     0.220 HD
ENDBRANCH   3  11
TORSDOF 1
ENDMDL
MODEL 8
REMARK VINA RESULT:      -3.8      5.524      7.597
REMARK  1 active torsions:
REMARK  status: ('A' for Active; 'I' for Inactive)
REMARK    1  A    between atoms: C_3  and  O_7 
ROOT
HETATM    1  N   UNL     1      66.989   7.283   7.676  1.00  0.00    -0.330 N 
ATOM      2  HN  UNL     1      66.930   7.911   8.477  1.00  0.00     0.168 HD
HETATM    3  C   UNL     1      66.730   7.603   6.437  1.00  0.00     0.185 A 
HETATM    4  S   UNL     1      66.895   6.394   5.259  1.00  0.00    -0.045 SA
HETATM    5  C   UNL     1      67.359   5.945   7.723  1.00  0.00     0.051 A 
HETATM    6  C   UNL     1      67.368   5.284   6.490  1.00  0.00     0.035 A 
HETATM    7  C   UNL     1      67.716   5.220   8.879  1.00  0.00     0.031 A 
HETATM    8  C   UNL     1      67.719   3.928   6.374  1.00  0.00     0.021 A 
HETATM    9  C   UNL     1      68.068   3.234   7.535  1.00  0.00     0.002 A 
HETATM   10  C   UNL     1      68.068   3.869   8.774  1.00  0.00     0.002 A 
ENDROOT
BRANCH   3  11
HETATM   11  O   UNL     1      66.356   8.834   6.152  1.00  0.00    -0.341 OA
HETATM   12  H   UNL     1      66.617   9.229   5.343  1.00  0.00     0.220 HD
ENDBRANCH   3  11
TORSDOF 1
ENDMDL
MODEL 9
REMARK VINA RESULT:      -3.6      4.969      7.184
REMARK  1 active torsions:
REMARK  status: ('A' for Active; 'I' for Inactive)
REMARK    1  A    between atoms: C_3  and  O_7 
ROOT
HETATM    1  N   UNL     1      66.697   8.165   7.215  1.00  0.00    -0.330 N 
ATOM      2  HN  UNL     1      66.790   9.091   7.630  1.00  0.00     0.168 HD
HETATM    3  C   UNL     1      66.199   7.906   6.036  1.00  0.00     0.185 A 
HETATM    4  S   UNL     1      66.140   6.284   5.543  1.00  0.00    -0.045 SA
HETATM    5  C   UNL     1      67.079   6.969   7.810  1.00  0.00     0.051 A 
HETATM    6  C   UNL     1      66.852   5.821   7.043  1.00  0.00     0.035 A 
HETATM    7  C   UNL     1      67.659   6.823   9.087  1.00  0.00     0.031 A 
HETATM    8  C   UNL     1      67.184   4.537   7.508  1.00  0.00     0.021 A 
HETATM    9  C   UNL     1      67.758   4.422   8.777  1.00  0.00     0.002 A 
HETATM   10  C   UNL     1      67.994   5.549   9.559  1.00  0.00     0.002 A 
ENDROOT
BRANCH   3  11
HETATM   11  O   UNL     1      65.768   8.899   5.285  1.00  0.00    -0.341 OA
HETATM   12  H   UNL     1      65.555   9.724   5.675  1.00  0.00     0.220 HD
ENDBRANCH   3  11
TORSDOF 1
ENDMDL
