MODEL 1
REMARK VINA RESULT:      -4.2      0.000      0.000
REMARK  0 active torsions:
REMARK  status: ('A' for Active; 'I' for Inactive)
ROOT
HETATM    1  N   UNL     1      63.178   7.867   2.905  1.00  0.00    -0.058 N 
HETATM    2  C   UNL     1      62.090   8.864   2.989  1.00  0.00     0.126 C 
HETATM    3  C   UNL     1      63.894   7.519   4.151  1.00  0.00     0.126 C 
HETATM    4  C   UNL     1      63.190   9.730   5.058  1.00  0.00     0.131 C 
HETATM    5  C   UNL     1      64.340   8.767   4.924  1.00  0.00     0.116 C 
HETATM    6  C   UNL     1      62.504  10.116   3.775  1.00  0.00     0.116 C 
HETATM    7  O   UNL     1      62.909  10.259   6.130  1.00  0.00    -0.298 OA
HETATM    8  C   UNL     1      63.069   6.582   5.053  1.00  0.00     0.046 C 
HETATM    9  C   UNL     1      61.766   9.294   1.538  1.00  0.00     0.046 C 
HETATM   10  C   UNL     1      60.795   8.257   3.563  1.00  0.00     0.046 C 
HETATM   11  C   UNL     1      65.156   6.730   3.734  1.00  0.00     0.046 C 
HETATM   12  H   UNL     1      63.869   8.226   2.247  1.00  0.00     0.279 HD
HETATM   13  H   UNL     1      62.712   7.003   2.628  1.00  0.00     0.279 HD
ENDROOT
TORSDOF 0
ENDMDL
MODEL 2
REMARK VINA RESULT:      -4.2      1.314      1.585
REMARK  0 active torsions:
REMARK  status: ('A' for Active; 'I' for Inactive)
ROOT
HETATM    1  N   UNL     1      62.880   7.598   2.546  1.00  0.00    -0.058 N 
HETATM    2  C   UNL     1      61.907   8.405   1.782  1.00  0.00     0.126 C 
HETATM    3  C   UNL     1      63.021   7.871   3.993  1.00  0.00     0.126 C 
HETATM    4  C   UNL     1      62.137  10.157   3.547  1.00  0.00     0.131 C 
HETATM    5  C   UNL     1      63.191   9.368   4.280  1.00  0.00     0.116 C 
HETATM    6  C   UNL     1      62.041   9.908   2.066  1.00  0.00     0.116 C 
HETATM    7  O   UNL     1      61.483  11.037   4.102  1.00  0.00    -0.298 OA
HETATM    8  C   UNL     1      61.854   7.285   4.810  1.00  0.00     0.046 C 
HETATM    9  C   UNL     1      62.212   8.172   0.283  1.00  0.00     0.046 C 
HETATM   10  C   UNL     1      60.459   7.931   2.011  1.00  0.00     0.046 C 
HETATM   11  C   UNL     1      64.298   7.140   4.462  1.00  0.00     0.046 C 
HETATM   12  H   UNL     1      63.795   7.742   2.119  1.00  0.00     0.279 HD
HETATM   13  H   UNL     1      62.517   6.646   2.499  1.00  0.00     0.279 HD
ENDROOT
TORSDOF 0
ENDMDL
MODEL 3
REMARK VINA RESULT:      -4.1      2.326      3.235
REMARK  0 active torsions:
REMARK  status: ('A' for Active; 'I' for Inactive)
ROOT
HETATM    1  N   UNL     1      64.844   8.923   5.467  1.00  0.00    -0.058 N 
HETATM    2  C   UNL     1      63.422   8.833   5.077  1.00  0.00     0.126 C 
HETATM    3  C   UNL     1      65.569   7.661   5.734  1.00  0.00     0.126 C 
HETATM    4  C   UNL     1      63.362   6.609   6.213  1.00  0.00     0.131 C 
HETATM    5  C   UNL     1      64.788   6.740   6.680  1.00  0.00     0.116 C 
HETATM    6  C   UNL     1      62.621   7.900   5.996  1.00  0.00     0.116 C 
HETATM    7  O   UNL     1      62.804   5.517   6.132  1.00  0.00    -0.298 OA
HETATM    8  C   UNL     1      65.945   6.922   4.436  1.00  0.00     0.046 C 
HETATM    9  C   UNL     1      62.833  10.257   5.208  1.00  0.00     0.046 C 
HETATM   10  C   UNL     1      63.254   8.425   3.601  1.00  0.00     0.046 C 
HETATM   11  C   UNL     1      66.898   8.047   6.421  1.00  0.00     0.046 C 
HETATM   12  H   UNL     1      64.891   9.485   6.316  1.00  0.00     0.279 HD
HETATM   13  H   UNL     1      65.310   9.317   4.650  1.00  0.00     0.279 HD
ENDROOT
TORSDOF 0
ENDMDL
MODEL 4
REMARK VINA RESULT:      -4.1      2.377      3.725
REMARK  0 active torsions:
REMARK  status: ('A' for Active; 'I' for Inactive)
ROOT
HETATM    1  N   UNL     1      60.575   9.107   3.467  1.00  0.00    -0.058 N 
HETATM    2  C   UNL     1      60.264   7.739   3.005  1.00  0.00     0.126 C 
HETATM    3  C   UNL     1      61.901   9.667   3.126  1.00  0.00     0.126 C 
HETATM    4  C   UNL     1      62.726   7.326   2.913  1.00  0.00     0.131 C 
HETATM    5  C   UNL     1      63.038   8.693   3.462  1.00  0.00     0.116 C 
HETATM    6  C   UNL     1      61.395   6.747   3.310  1.00  0.00     0.116 C 
HETATM    7  O   UNL     1      63.555   6.675   2.281  1.00  0.00    -0.298 OA
HETATM    8  C   UNL     1      61.982  10.117   1.655  1.00  0.00     0.046 C 
HETATM    9  C   UNL     1      59.004   7.283   3.778  1.00  0.00     0.046 C 
HETATM   10  C   UNL     1      59.894   7.705   1.509  1.00  0.00     0.046 C 
HETATM   11  C   UNL     1      62.083  10.938   3.986  1.00  0.00     0.046 C 
HETATM   12  H   UNL     1      60.496   9.110   4.483  1.00  0.00     0.279 HD
HETATM   13  H   UNL     1      59.912   9.702   2.971  1.00  0.00     0.279 HD
ENDROOT
TORSDOF 0
ENDMDL
MODEL 5
REMARK VINA RESULT:      -4.0      3.468      5.237
REMARK  0 active torsions:
REMARK  status: ('A' for Active; 'I' for Inactive)
ROOT
HETATM    1  N   UNL     1      64.730   6.720   7.230  1.00  0.00    -0.058 N 
HETATM    2  C   UNL     1      66.167   6.490   7.486  1.00  0.00     0.126 C 
HETATM    3  C   UNL     1      64.334   7.181   5.881  1.00  0.00     0.126 C 
HETATM    4  C   UNL     1      66.645   8.071   5.613  1.00  0.00     0.131 C 
HETATM    5  C   UNL     1      65.182   8.368   5.408  1.00  0.00     0.116 C 
HETATM    6  C   UNL     1      67.042   7.655   7.003  1.00  0.00     0.116 C 
HETATM    7  O   UNL     1      67.478   8.275   4.732  1.00  0.00    -0.298 OA
HETATM    8  C   UNL     1      64.363   6.040   4.847  1.00  0.00     0.046 C 
HETATM    9  C   UNL     1      66.333   6.369   9.019  1.00  0.00     0.046 C 
HETATM   10  C   UNL     1      66.653   5.155   6.889  1.00  0.00     0.046 C 
HETATM   11  C   UNL     1      62.864   7.646   5.983  1.00  0.00     0.046 C 
HETATM   12  H   UNL     1      64.412   7.422   7.897  1.00  0.00     0.279 HD
HETATM   13  H   UNL     1      64.303   5.799   7.321  1.00  0.00     0.279 HD
ENDROOT
TORSDOF 0
ENDMDL
MODEL 6
REMARK VINA RESULT:      -3.8      3.979      5.335
REMARK  0 active torsions:
REMARK  status: ('A' for Active; 'I' for Inactive)
ROOT
HETATM    1  N   UNL     1      65.988   7.440   7.010  1.00  0.00    -0.058 N 
HETATM    2  C   UNL     1      65.639   7.351   5.577  1.00  0.00     0.126 C 
HETATM    3  C   UNL     1      66.491   6.219   7.677  1.00  0.00     0.126 C 
HETATM    4  C   UNL     1      65.323   4.896   5.918  1.00  0.00     0.131 C 
HETATM    5  C   UNL     1      65.599   5.003   7.395  1.00  0.00     0.116 C 
HETATM    6  C   UNL     1      64.763   6.130   5.264  1.00  0.00     0.116 C 
HETATM    7  O   UNL     1      65.435   3.832   5.313  1.00  0.00    -0.298 OA
HETATM    8  C   UNL     1      67.957   5.920   7.311  1.00  0.00     0.046 C 
HETATM    9  C   UNL     1      64.828   8.623   5.235  1.00  0.00     0.046 C 
HETATM   10  C   UNL     1      66.889   7.375   4.677  1.00  0.00     0.046 C 
HETATM   11  C   UNL     1      66.464   6.497   9.196  1.00  0.00     0.046 C 
HETATM   12  H   UNL     1      65.149   7.735   7.509  1.00  0.00     0.279 HD
HETATM   13  H   UNL     1      66.773   8.090   7.043  1.00  0.00     0.279 HD
ENDROOT
TORSDOF 0
ENDMDL
MODEL 7
REMARK VINA RESULT:      -3.5      3.325      4.546
REMARK  0 active torsions:
REMARK  status: ('A' for Active; 'I' for Inactive)
ROOT
HETATM    1  N   UNL     1      66.189   5.757   5.336  1.00  0.00    -0.058 N 
HETATM    2  C   UNL     1      65.019   4.978   5.793  1.00  0.00     0.126 C 
HETATM    3  C   UNL     1      66.313   7.155   5.802  1.00  0.00     0.126 C 
HETATM    4  C   UNL     1      63.846   7.154   6.152  1.00  0.00     0.131 C 
HETATM    5  C   UNL     1      65.010   7.942   5.609  1.00  0.00     0.116 C 
HETATM    6  C   UNL     1      63.702   5.751   5.630  1.00  0.00     0.116 C 
HETATM    7  O   UNL     1      63.000   7.667   6.881  1.00  0.00    -0.298 OA
HETATM    8  C   UNL     1      66.793   7.241   7.263  1.00  0.00     0.046 C 
HETATM    9  C   UNL     1      64.948   3.716   4.902  1.00  0.00     0.046 C 
HETATM   10  C   UNL     1      65.187   4.480   7.241  1.00  0.00     0.046 C 
HETATM   11  C   UNL     1      67.410   7.817   4.938  1.00  0.00     0.046 C 
HETATM   12  H   UNL     1      66.161   5.777   4.317  1.00  0.00     0.279 HD
HETATM   13  H   UNL     1      66.991   5.279   5.747  1.00  0.00     0.279 HD
ENDROOT
TORSDOF 0
ENDMDL
MODEL 8
REMARK VINA RESULT:      -3.5      1.656      3.201
REMARK  0 active torsions:
REMARK  status: ('A' for Active; 'I' for Inactive)
ROOT
HETATM    1  N   UNL     1      61.838   6.813   4.188  1.00  0.00    -0.058 N 
HETATM    2  C   UNL     1      62.342   6.641   5.567  1.00  0.00     0.126 C 
HETATM    3  C   UNL     1      62.682   7.564   3.233  1.00  0.00     0.126 C 
HETATM    4  C   UNL     1      63.743   8.675   5.194  1.00  0.00     0.131 C 
HETATM    5  C   UNL     1      63.167   8.896   3.819  1.00  0.00     0.116 C 
HETATM    6  C   UNL     1      62.853   7.957   6.171  1.00  0.00     0.116 C 
HETATM    7  O   UNL     1      64.822   9.159   5.530  1.00  0.00    -0.298 OA
HETATM    8  C   UNL     1      63.869   6.725   2.723  1.00  0.00     0.046 C 
HETATM    9  C   UNL     1      61.147   6.154   6.421  1.00  0.00     0.046 C 
HETATM   10  C   UNL     1      63.418   5.542   5.655  1.00  0.00     0.046 C 
HETATM   11  C   UNL     1      61.798   7.870   2.003  1.00  0.00     0.046 C 
HETATM   12  H   UNL     1      60.944   7.298   4.250  1.00  0.00     0.279 HD
HETATM   13  H   UNL     1      61.802   5.867   3.809  1.00  0.00     0.279 HD
ENDROOT
TORSDOF 0
ENDMDL
MODEL 9
REMARK VINA RESULT:      -3.5     11.819     13.191
REMARK  0 active torsions:
REMARK  status: ('A' for Active; 'I' for Inactive)
ROOT
HETATM    1  N   UNL     1      57.838  -0.172  12.927  1.00  0.00    -0.058 N 
HETATM    2  C   UNL     1      56.364  -0.062  12.936  1.00  0.00     0.126 C 
HETATM    3  C   UNL     1      58.625   1.073  13.062  1.00  0.00     0.126 C 
HETATM    4  C   UNL     1      56.644   2.304  12.185  1.00  0.00     0.131 C 
HETATM    5  C   UNL     1      58.141   2.164  12.098  1.00  0.00     0.116 C 
HETATM    6  C   UNL     1      55.854   1.037  11.994  1.00  0.00     0.116 C 
HETATM    7  O   UNL     1      56.099   3.401  12.284  1.00  0.00    -0.298 OA
HETATM    8  C   UNL     1      58.646   1.593  14.511  1.00  0.00     0.046 C 
HETATM    9  C   UNL     1      55.813  -1.418  12.434  1.00  0.00     0.046 C 
HETATM   10  C   UNL     1      55.810   0.134  14.360  1.00  0.00     0.046 C 
HETATM   11  C   UNL     1      60.085   0.720  12.700  1.00  0.00     0.046 C 
HETATM   12  H   UNL     1      58.105  -0.606  12.044  1.00  0.00     0.279 HD
HETATM   13  H   UNL     1      58.060  -0.707  13.767  1.00  0.00     0.279 HD
ENDROOT
TORSDOF 0
ENDMDL
