MODEL 1
REMARK VINA RESULT:      -5.2      0.000      0.000
REMARK  2 active torsions:
REMARK  status: ('A' for Active; 'I' for Inactive)
REMARK    1  A    between atoms: C_1  and  C_2 
REMARK    2  A    between atoms: C_2  and  N_3 
ROOT
HETATM    1  N   UNL     1      64.762   8.036   4.450  1.00  0.00    -0.064 N 
HETATM    2  N   UNL     1      65.985   5.797   6.042  1.00  0.00    -0.072 N 
HETATM    3  C   UNL     1      65.152   6.734   3.864  1.00  0.00     0.262 C 
HETATM    4  C   UNL     1      65.547   8.256   5.682  1.00  0.00     0.262 C 
HETATM    5  C   UNL     1      65.154   5.545   4.852  1.00  0.00     0.260 C 
HETATM    6  C   UNL     1      65.569   7.064   6.667  1.00  0.00     0.260 C 
HETATM    7  H   UNL     1      64.971   8.765   3.767  1.00  0.00     0.280 HD
HETATM    8  H   UNL     1      65.867   5.033   6.707  1.00  0.00     0.277 HD
HETATM    9  H   UNL     1      66.966   5.857   5.768  1.00  0.00     0.277 HD
ENDROOT
BRANCH   1  10
HETATM   10  C   UNL     1      63.311   8.154   4.704  1.00  0.00     0.278 C 
BRANCH  10  11
HETATM   11  C   UNL     1      62.657   9.179   3.804  1.00  0.00     0.028 A 
HETATM   12  C   UNL     1      62.457  10.518   4.173  1.00  0.00     0.045 A 
HETATM   13 CL   UNL     1      62.743  11.081   5.783  1.00  0.00    -0.084 Cl
HETATM   14  C   UNL     1      62.002  11.458   3.237  1.00  0.00     0.024 A 
HETATM   15  C   UNL     1      61.735  11.073   1.923  1.00  0.00     0.005 A 
HETATM   16  C   UNL     1      61.877   9.742   1.556  1.00  0.00     0.043 A 
HETATM   17  C   UNL     1      62.321   8.812   2.493  1.00  0.00     0.126 A 
HETATM   18  F   UNL     1      62.472   7.541   2.100  1.00  0.00    -0.205 F 
ENDBRANCH  10  11
ENDBRANCH   1  10
TORSDOF 2
ENDMDL
MODEL 2
REMARK VINA RESULT:      -5.1      1.925      2.281
REMARK  2 active torsions:
REMARK  status: ('A' for Active; 'I' for Inactive)
REMARK    1  A    between atoms: C_1  and  C_2 
REMARK    2  A    between atoms: C_2  and  N_3 
ROOT
HETATM    1  N   UNL     1      64.644   7.572   4.474  1.00  0.00    -0.064 N 
HETATM    2  N   UNL     1      65.508   5.410   6.378  1.00  0.00    -0.072 N 
HETATM    3  C   UNL     1      64.991   6.198   4.049  1.00  0.00     0.262 C 
HETATM    4  C   UNL     1      65.306   7.850   5.766  1.00  0.00     0.262 C 
HETATM    5  C   UNL     1      64.792   5.108   5.127  1.00  0.00     0.260 C 
HETATM    6  C   UNL     1      65.128   6.755   6.843  1.00  0.00     0.260 C 
HETATM    7  H   UNL     1      64.982   8.219   3.761  1.00  0.00     0.280 HD
HETATM    8  H   UNL     1      65.258   4.721   7.087  1.00  0.00     0.277 HD
HETATM    9  H   UNL     1      66.514   5.377   6.214  1.00  0.00     0.277 HD
ENDROOT
BRANCH   1  10
HETATM   10  C   UNL     1      63.188   7.813   4.551  1.00  0.00     0.278 C 
BRANCH  10  11
HETATM   11  C   UNL     1      62.766   9.008   3.725  1.00  0.00     0.028 A 
HETATM   12  C   UNL     1      62.472   8.937   2.355  1.00  0.00     0.045 A 
HETATM   13 CL   UNL     1      62.775   7.513   1.422  1.00  0.00    -0.084 Cl
HETATM   14  C   UNL     1      61.925  10.039   1.682  1.00  0.00     0.024 A 
HETATM   15  C   UNL     1      61.668  11.228   2.367  1.00  0.00     0.005 A 
HETATM   16  C   UNL     1      62.003  11.331   3.710  1.00  0.00     0.043 A 
HETATM   17  C   UNL     1      62.554  10.236   4.369  1.00  0.00     0.126 A 
HETATM   18  F   UNL     1      62.842  10.360   5.671  1.00  0.00    -0.205 F 
ENDBRANCH  10  11
ENDBRANCH   1  10
TORSDOF 2
ENDMDL
MODEL 3
REMARK VINA RESULT:      -4.7      2.960      3.625
REMARK  2 active torsions:
REMARK  status: ('A' for Active; 'I' for Inactive)
REMARK    1  A    between atoms: C_1  and  C_2 
REMARK    2  A    between atoms: C_2  and  N_3 
ROOT
HETATM    1  N   UNL     1      61.418   7.162   4.724  1.00  0.00    -0.064 N 
HETATM    2  N   UNL     1      61.650   4.210   5.252  1.00  0.00    -0.072 N 
HETATM    3  C   UNL     1      61.577   6.583   6.077  1.00  0.00     0.262 C 
HETATM    4  C   UNL     1      60.841   6.134   3.833  1.00  0.00     0.262 C 
HETATM    5  C   UNL     1      62.289   5.211   6.123  1.00  0.00     0.260 C 
HETATM    6  C   UNL     1      61.536   4.754   3.888  1.00  0.00     0.260 C 
HETATM    7  H   UNL     1      60.786   7.960   4.794  1.00  0.00     0.280 HD
HETATM    8  H   UNL     1      62.216   3.362   5.235  1.00  0.00     0.277 HD
HETATM    9  H   UNL     1      60.721   3.989   5.610  1.00  0.00     0.277 HD
ENDROOT
BRANCH   1  10
HETATM   10  C   UNL     1      62.672   7.715   4.171  1.00  0.00     0.278 C 
BRANCH  10  11
HETATM   11  C   UNL     1      62.464   9.073   3.538  1.00  0.00     0.028 A 
HETATM   12  C   UNL     1      62.243   9.262   2.165  1.00  0.00     0.045 A 
HETATM   13 CL   UNL     1      62.404   7.973   1.023  1.00  0.00    -0.084 Cl
HETATM   14  C   UNL     1      61.890  10.523   1.664  1.00  0.00     0.024 A 
HETATM   15  C   UNL     1      61.758  11.613   2.524  1.00  0.00     0.005 A 
HETATM   16  C   UNL     1      62.024  11.454   3.877  1.00  0.00     0.043 A 
HETATM   17  C   UNL     1      62.383  10.201   4.367  1.00  0.00     0.126 A 
HETATM   18  F   UNL     1      62.609  10.077   5.681  1.00  0.00    -0.205 F 
ENDBRANCH  10  11
ENDBRANCH   1  10
TORSDOF 2
ENDMDL
MODEL 4
REMARK VINA RESULT:      -4.7      1.479      2.075
REMARK  2 active torsions:
REMARK  status: ('A' for Active; 'I' for Inactive)
REMARK    1  A    between atoms: C_1  and  C_2 
REMARK    2  A    between atoms: C_2  and  N_3 
ROOT
HETATM    1  N   UNL     1      65.225   8.010   6.328  1.00  0.00    -0.064 N 
HETATM    2  N   UNL     1      66.535   5.348   6.816  1.00  0.00    -0.072 N 
HETATM    3  C   UNL     1      66.561   7.857   6.946  1.00  0.00     0.262 C 
HETATM    4  C   UNL     1      64.463   6.760   6.527  1.00  0.00     0.262 C 
HETATM    5  C   UNL     1      67.319   6.568   6.558  1.00  0.00     0.260 C 
HETATM    6  C   UNL     1      65.223   5.464   6.158  1.00  0.00     0.260 C 
HETATM    7  H   UNL     1      64.750   8.787   6.789  1.00  0.00     0.280 HD
HETATM    8  H   UNL     1      67.033   4.539   6.445  1.00  0.00     0.277 HD
HETATM    9  H   UNL     1      66.404   5.232   7.821  1.00  0.00     0.277 HD
ENDROOT
BRANCH   1  10
HETATM   10  C   UNL     1      65.279   8.389   4.900  1.00  0.00     0.278 C 
BRANCH  10  11
HETATM   11  C   UNL     1      63.899   8.524   4.296  1.00  0.00     0.028 A 
HETATM   12  C   UNL     1      63.043   9.606   4.554  1.00  0.00     0.045 A 
HETATM   13 CL   UNL     1      63.396  10.788   5.766  1.00  0.00    -0.084 Cl
HETATM   14  C   UNL     1      61.849   9.761   3.836  1.00  0.00     0.024 A 
HETATM   15  C   UNL     1      61.490   8.837   2.854  1.00  0.00     0.005 A 
HETATM   16  C   UNL     1      62.299   7.733   2.623  1.00  0.00     0.043 A 
HETATM   17  C   UNL     1      63.480   7.581   3.346  1.00  0.00     0.126 A 
HETATM   18  F   UNL     1      64.251   6.518   3.082  1.00  0.00    -0.205 F 
ENDBRANCH  10  11
ENDBRANCH   1  10
TORSDOF 2
ENDMDL
MODEL 5
REMARK VINA RESULT:      -4.4      2.826      5.617
REMARK  2 active torsions:
REMARK  status: ('A' for Active; 'I' for Inactive)
REMARK    1  A    between atoms: C_1  and  C_2 
REMARK    2  A    between atoms: C_2  and  N_3 
ROOT
HETATM    1  N   UNL     1      63.447   8.612   5.249  1.00  0.00    -0.064 N 
HETATM    2  N   UNL     1      61.088   9.545   3.633  1.00  0.00    -0.072 N 
HETATM    3  C   UNL     1      62.361   7.715   4.794  1.00  0.00     0.262 C 
HETATM    4  C   UNL     1      62.930   9.996   5.298  1.00  0.00     0.262 C 
HETATM    5  C   UNL     1      61.621   8.176   3.517  1.00  0.00     0.260 C 
HETATM    6  C   UNL     1      62.173  10.458   4.032  1.00  0.00     0.260 C 
HETATM    7  H   UNL     1      63.734   8.312   6.182  1.00  0.00     0.280 HD
HETATM    8  H   UNL     1      60.708   9.838   2.733  1.00  0.00     0.277 HD
HETATM    9  H   UNL     1      60.349   9.565   4.335  1.00  0.00     0.277 HD
ENDROOT
BRANCH   1  10
HETATM   10  C   UNL     1      64.669   8.520   4.424  1.00  0.00     0.278 C 
BRANCH  10  11
HETATM   11  C   UNL     1      65.582   7.404   4.882  1.00  0.00     0.028 A 
HETATM   12  C   UNL     1      65.702   6.177   4.212  1.00  0.00     0.045 A 
HETATM   13 CL   UNL     1      64.652   5.734   2.912  1.00  0.00    -0.084 Cl
HETATM   14  C   UNL     1      66.686   5.251   4.587  1.00  0.00     0.024 A 
HETATM   15  C   UNL     1      67.559   5.534   5.637  1.00  0.00     0.005 A 
HETATM   16  C   UNL     1      67.419   6.720   6.344  1.00  0.00     0.043 A 
HETATM   17  C   UNL     1      66.434   7.632   5.973  1.00  0.00     0.126 A 
HETATM   18  F   UNL     1      66.342   8.778   6.660  1.00  0.00    -0.205 F 
ENDBRANCH  10  11
ENDBRANCH   1  10
TORSDOF 2
ENDMDL
MODEL 6
REMARK VINA RESULT:      -4.3      2.769      3.892
REMARK  2 active torsions:
REMARK  status: ('A' for Active; 'I' for Inactive)
REMARK    1  A    between atoms: C_1  and  C_2 
REMARK    2  A    between atoms: C_2  and  N_3 
ROOT
HETATM    1  N   UNL     1      65.734   5.967   6.123  1.00  0.00    -0.064 N 
HETATM    2  N   UNL     1      67.760   5.780   8.337  1.00  0.00    -0.072 N 
HETATM    3  C   UNL     1      65.512   6.508   7.482  1.00  0.00     0.262 C 
HETATM    4  C   UNL     1      66.753   4.899   6.198  1.00  0.00     0.262 C 
HETATM    5  C   UNL     1      66.796   6.890   8.253  1.00  0.00     0.260 C 
HETATM    6  C   UNL     1      68.032   5.268   6.983  1.00  0.00     0.260 C 
HETATM    7  H   UNL     1      64.850   5.583   5.787  1.00  0.00     0.280 HD
HETATM    8  H   UNL     1      68.628   6.114   8.757  1.00  0.00     0.277 HD
HETATM    9  H   UNL     1      67.371   5.033   8.913  1.00  0.00     0.277 HD
ENDROOT
BRANCH   1  10
HETATM   10  C   UNL     1      66.105   6.999   5.133  1.00  0.00     0.278 C 
BRANCH  10  11
HETATM   11  C   UNL     1      64.944   7.371   4.238  1.00  0.00     0.028 A 
HETATM   12  C   UNL     1      64.479   6.558   3.193  1.00  0.00     0.045 A 
HETATM   13 CL   UNL     1      65.328   5.140   2.685  1.00  0.00    -0.084 Cl
HETATM   14  C   UNL     1      63.297   6.877   2.509  1.00  0.00     0.024 A 
HETATM   15  C   UNL     1      62.567   8.015   2.854  1.00  0.00     0.005 A 
HETATM   16  C   UNL     1      63.042   8.859   3.849  1.00  0.00     0.043 A 
HETATM   17  C   UNL     1      64.220   8.540   4.518  1.00  0.00     0.126 A 
HETATM   18  F   UNL     1      64.638   9.362   5.490  1.00  0.00    -0.205 F 
ENDBRANCH  10  11
ENDBRANCH   1  10
TORSDOF 2
ENDMDL
MODEL 7
REMARK VINA RESULT:      -4.2      2.459      3.148
REMARK  2 active torsions:
REMARK  status: ('A' for Active; 'I' for Inactive)
REMARK    1  A    between atoms: C_1  and  C_2 
REMARK    2  A    between atoms: C_2  and  N_3 
ROOT
HETATM    1  N   UNL     1      62.234   6.294   3.057  1.00  0.00    -0.064 N 
HETATM    2  N   UNL     1      63.261   3.521   2.510  1.00  0.00    -0.072 N 
HETATM    3  C   UNL     1      62.748   5.390   4.110  1.00  0.00     0.262 C 
HETATM    4  C   UNL     1      61.787   5.479   1.908  1.00  0.00     0.262 C 
HETATM    5  C   UNL     1      63.770   4.336   3.627  1.00  0.00     0.260 C 
HETATM    6  C   UNL     1      62.796   4.409   1.431  1.00  0.00     0.260 C 
HETATM    7  H   UNL     1      61.446   6.815   3.444  1.00  0.00     0.280 HD
HETATM    8  H   UNL     1      64.006   2.919   2.160  1.00  0.00     0.277 HD
HETATM    9  H   UNL     1      62.485   2.943   2.835  1.00  0.00     0.277 HD
ENDROOT
BRANCH   1  10
HETATM   10  C   UNL     1      63.207   7.325   2.641  1.00  0.00     0.278 C 
BRANCH  10  11
HETATM   11  C   UNL     1      62.632   8.721   2.736  1.00  0.00     0.028 A 
HETATM   12  C   UNL     1      62.546   9.444   3.935  1.00  0.00     0.045 A 
HETATM   13 CL   UNL     1      62.894   8.724   5.469  1.00  0.00    -0.084 Cl
HETATM   14  C   UNL     1      62.161  10.792   3.933  1.00  0.00     0.024 A 
HETATM   15  C   UNL     1      61.850  11.435   2.734  1.00  0.00     0.005 A 
HETATM   16  C   UNL     1      61.878  10.720   1.545  1.00  0.00     0.043 A 
HETATM   17  C   UNL     1      62.254   9.379   1.556  1.00  0.00     0.126 A 
HETATM   18  F   UNL     1      62.294   8.724   0.389  1.00  0.00    -0.205 F 
ENDBRANCH  10  11
ENDBRANCH   1  10
TORSDOF 2
ENDMDL
MODEL 8
REMARK VINA RESULT:      -4.1      2.705      3.376
REMARK  2 active torsions:
REMARK  status: ('A' for Active; 'I' for Inactive)
REMARK    1  A    between atoms: C_1  and  C_2 
REMARK    2  A    between atoms: C_2  and  N_3 
ROOT
HETATM    1  N   UNL     1      62.452   7.996   4.750  1.00  0.00    -0.064 N 
HETATM    2  N   UNL     1      64.962   7.842   6.400  1.00  0.00    -0.072 N 
HETATM    3  C   UNL     1      63.534   9.004   4.689  1.00  0.00     0.262 C 
HETATM    4  C   UNL     1      62.520   7.305   6.055  1.00  0.00     0.262 C 
HETATM    5  C   UNL     1      64.938   8.483   5.074  1.00  0.00     0.260 C 
HETATM    6  C   UNL     1      63.925   6.798   6.455  1.00  0.00     0.260 C 
HETATM    7  H   UNL     1      61.560   8.484   4.659  1.00  0.00     0.280 HD
HETATM    8  H   UNL     1      65.878   7.423   6.558  1.00  0.00     0.277 HD
HETATM    9  H   UNL     1      64.781   8.541   7.121  1.00  0.00     0.277 HD
ENDROOT
BRANCH   1  10
HETATM   10  C   UNL     1      62.480   7.036   3.628  1.00  0.00     0.278 C 
BRANCH  10  11
HETATM   11  C   UNL     1      61.297   7.210   2.701  1.00  0.00     0.028 A 
HETATM   12  C   UNL     1      60.019   6.700   2.972  1.00  0.00     0.045 A 
HETATM   13 CL   UNL     1      59.719   5.630   4.298  1.00  0.00    -0.084 Cl
HETATM   14  C   UNL     1      58.926   7.036   2.160  1.00  0.00     0.024 A 
HETATM   15  C   UNL     1      59.096   7.882   1.064  1.00  0.00     0.005 A 
HETATM   16  C   UNL     1      60.364   8.353   0.751  1.00  0.00     0.043 A 
HETATM   17  C   UNL     1      61.445   8.007   1.556  1.00  0.00     0.126 A 
HETATM   18  F   UNL     1      62.651   8.498   1.241  1.00  0.00    -0.205 F 
ENDBRANCH  10  11
ENDBRANCH   1  10
TORSDOF 2
ENDMDL
MODEL 9
REMARK VINA RESULT:      -4.0      3.306      4.612
REMARK  2 active torsions:
REMARK  status: ('A' for Active; 'I' for Inactive)
REMARK    1  A    between atoms: C_1  and  C_2 
REMARK    2  A    between atoms: C_2  and  N_3 
ROOT
HETATM    1  N   UNL     1      66.982   5.416   6.850  1.00  0.00    -0.064 N 
HETATM    2  N   UNL     1      67.607   2.841   8.272  1.00  0.00    -0.072 N 
HETATM    3  C   UNL     1      66.679   4.079   6.292  1.00  0.00     0.262 C 
HETATM    4  C   UNL     1      68.075   5.282   7.836  1.00  0.00     0.262 C 
HETATM    5  C   UNL     1      66.472   2.963   7.341  1.00  0.00     0.260 C 
HETATM    6  C   UNL     1      67.884   4.155   8.877  1.00  0.00     0.260 C 
HETATM    7  H   UNL     1      67.276   6.020   6.081  1.00  0.00     0.280 HD
HETATM    8  H   UNL     1      67.376   2.170   9.004  1.00  0.00     0.277 HD
HETATM    9  H   UNL     1      68.432   2.518   7.765  1.00  0.00     0.277 HD
ENDROOT
BRANCH   1  10
HETATM   10  C   UNL     1      65.804   6.088   7.436  1.00  0.00     0.278 C 
BRANCH  10  11
HETATM   11  C   UNL     1      64.953   6.765   6.385  1.00  0.00     0.028 A 
HETATM   12  C   UNL     1      63.699   6.286   5.978  1.00  0.00     0.045 A 
HETATM   13 CL   UNL     1      63.094   4.747   6.485  1.00  0.00    -0.084 Cl
HETATM   14  C   UNL     1      62.885   7.045   5.125  1.00  0.00     0.024 A 
HETATM   15  C   UNL     1      63.314   8.290   4.663  1.00  0.00     0.005 A 
HETATM   16  C   UNL     1      64.574   8.754   5.013  1.00  0.00     0.043 A 
HETATM   17  C   UNL     1      65.380   7.991   5.853  1.00  0.00     0.126 A 
HETATM   18  F   UNL     1      66.581   8.479   6.193  1.00  0.00    -0.205 F 
ENDBRANCH  10  11
ENDBRANCH   1  10
TORSDOF 2
ENDMDL
