MODEL 1
REMARK VINA RESULT:      -5.6      0.000      0.000
REMARK  2 active torsions:
REMARK  status: ('A' for Active; 'I' for Inactive)
REMARK    1  A    between atoms: C_1  and  N_6 
REMARK    2  A    between atoms: C_2  and  C_3 
ROOT
HETATM    1  C   UNL     1      65.152   6.840   6.414  1.00  0.00     0.104 A 
HETATM    2  C   UNL     1      63.398   8.437   4.955  1.00  0.00     0.065 A 
HETATM    3  N   UNL     1      63.818   6.742   6.632  1.00  0.00    -0.354 N 
ATOM      4  HN  UNL     1      63.451   6.091   7.327  1.00  0.00     0.166 HD
HETATM    5  C   UNL     1      65.657   7.756   5.469  1.00  0.00     0.073 A 
HETATM    6  C   UNL     1      64.772   8.558   4.745  1.00  0.00     0.044 A 
HETATM    7  C   UNL     1      62.980   7.525   5.909  1.00  0.00     0.105 A 
HETATM    8 CL   UNL     1      67.344   7.904   5.115  1.00  0.00    -0.081 Cl
ENDROOT
BRANCH   1   9
HETATM    9  N   UNL     1      66.025   5.985   7.119  1.00  0.00    -0.266 NA
HETATM   10  C   UNL     1      65.604   4.579   7.132  1.00  0.00     0.098 C 
HETATM   11  C   UNL     1      66.804   3.655   6.941  1.00  0.00     0.042 C 
HETATM   12  C   UNL     1      68.065   3.959   7.755  1.00  0.00     0.233 C 
HETATM   13  N   UNL     1      67.872   4.569   9.068  1.00  0.00    -0.074 N 
HETATM   14  C   UNL     1      67.709   6.030   8.958  1.00  0.00     0.247 C 
HETATM   15  H   UNL     1      67.036   4.174   9.500  1.00  0.00     0.277 HD
HETATM   16  H   UNL     1      68.696   4.379   9.638  1.00  0.00     0.277 HD
HETATM   17  C   UNL     1      66.332   6.520   8.464  1.00  0.00     0.124 C 
ENDBRANCH   1   9
BRANCH   2  18
HETATM   18  C   UNL     1      62.387   9.229   4.189  1.00  0.00     0.418 C 
HETATM   19  F   UNL     1      62.127  10.449   4.736  1.00  0.00    -0.166 F 
HETATM   20  F   UNL     1      62.779   9.471   2.908  1.00  0.00    -0.166 F 
HETATM   21  F   UNL     1      61.186   8.597   4.099  1.00  0.00    -0.166 F 
ENDBRANCH   2  18
TORSDOF 2
ENDMDL
MODEL 2
REMARK VINA RESULT:      -5.4      1.664      2.385
REMARK  2 active torsions:
REMARK  status: ('A' for Active; 'I' for Inactive)
REMARK    1  A    between atoms: C_1  and  N_6 
REMARK    2  A    between atoms: C_2  and  C_3 
ROOT
HETATM    1  C   UNL     1      64.913   7.146   5.813  1.00  0.00     0.104 A 
HETATM    2  C   UNL     1      63.047   8.748   4.507  1.00  0.00     0.065 A 
HETATM    3  N   UNL     1      65.106   8.487   5.752  1.00  0.00    -0.354 N 
ATOM      4  HN  UNL     1      65.930   8.913   6.178  1.00  0.00     0.166 HD
HETATM    5  C   UNL     1      63.787   6.557   5.205  1.00  0.00     0.073 A 
HETATM    6  C   UNL     1      62.857   7.366   4.546  1.00  0.00     0.044 A 
HETATM    7  C   UNL     1      64.184   9.249   5.115  1.00  0.00     0.105 A 
HETATM    8 CL   UNL     1      63.461   4.859   5.277  1.00  0.00    -0.081 Cl
ENDROOT
BRANCH   1   9
HETATM    9  N   UNL     1      65.837   6.354   6.526  1.00  0.00    -0.266 NA
HETATM   10  C   UNL     1      66.390   7.007   7.718  1.00  0.00     0.098 C 
HETATM   11  C   UNL     1      66.490   6.018   8.877  1.00  0.00     0.042 C 
HETATM   12  C   UNL     1      67.067   4.633   8.574  1.00  0.00     0.233 C 
HETATM   13  N   UNL     1      68.071   4.553   7.516  1.00  0.00    -0.074 N 
HETATM   14  C   UNL     1      67.439   4.472   6.187  1.00  0.00     0.247 C 
HETATM   15  H   UNL     1      68.662   5.384   7.553  1.00  0.00     0.277 HD
HETATM   16  H   UNL     1      68.627   3.710   7.661  1.00  0.00     0.277 HD
HETATM   17  C   UNL     1      66.872   5.795   5.629  1.00  0.00     0.124 C 
ENDBRANCH   1   9
BRANCH   2  18
HETATM   18  C   UNL     1      62.075   9.682   3.859  1.00  0.00     0.418 C 
HETATM   19  F   UNL     1      60.822   9.162   3.737  1.00  0.00    -0.166 F 
HETATM   20  F   UNL     1      61.930  10.844   4.553  1.00  0.00    -0.166 F 
HETATM   21  F   UNL     1      62.454  10.041   2.603  1.00  0.00    -0.166 F 
ENDBRANCH   2  18
TORSDOF 2
ENDMDL
MODEL 3
REMARK VINA RESULT:      -5.4      4.086      6.744
REMARK  2 active torsions:
REMARK  status: ('A' for Active; 'I' for Inactive)
REMARK    1  A    between atoms: C_1  and  N_6 
REMARK    2  A    between atoms: C_2  and  C_3 
ROOT
HETATM    1  C   UNL     1      63.391   7.960   3.675  1.00  0.00     0.104 A 
HETATM    2  C   UNL     1      65.712   7.863   5.211  1.00  0.00     0.065 A 
HETATM    3  N   UNL     1      63.593   8.888   4.644  1.00  0.00    -0.354 N 
ATOM      4  HN  UNL     1      62.902   9.619   4.816  1.00  0.00     0.166 HD
HETATM    5  C   UNL     1      64.335   6.939   3.455  1.00  0.00     0.073 A 
HETATM    6  C   UNL     1      65.495   6.892   4.232  1.00  0.00     0.044 A 
HETATM    7  C   UNL     1      64.731   8.825   5.377  1.00  0.00     0.105 A 
HETATM    8 CL   UNL     1      64.157   5.747   2.213  1.00  0.00    -0.081 Cl
ENDROOT
BRANCH   1   9
HETATM    9  N   UNL     1      62.238   8.056   2.868  1.00  0.00    -0.266 NA
HETATM   10  C   UNL     1      62.286   9.141   1.882  1.00  0.00     0.098 C 
HETATM   11  C   UNL     1      61.707   8.682   0.546  1.00  0.00     0.042 C 
HETATM   12  C   UNL     1      60.392   7.898   0.579  1.00  0.00     0.233 C 
HETATM   13  N   UNL     1      59.459   8.220   1.657  1.00  0.00    -0.074 N 
HETATM   14  C   UNL     1      59.806   7.499   2.895  1.00  0.00     0.247 C 
HETATM   15  H   UNL     1      59.490   9.223   1.837  1.00  0.00     0.277 HD
HETATM   16  H   UNL     1      58.523   7.934   1.370  1.00  0.00     0.277 HD
HETATM   17  C   UNL     1      61.006   8.060   3.688  1.00  0.00     0.124 C 
ENDBRANCH   1   9
BRANCH   2  18
HETATM   18  C   UNL     1      66.947   7.904   6.053  1.00  0.00     0.418 C 
HETATM   19  F   UNL     1      67.178   6.747   6.733  1.00  0.00    -0.166 F 
HETATM   20  F   UNL     1      68.069   8.135   5.318  1.00  0.00    -0.166 F 
HETATM   21  F   UNL     1      66.906   8.887   6.993  1.00  0.00    -0.166 F 
ENDBRANCH   2  18
TORSDOF 2
ENDMDL
MODEL 4
REMARK VINA RESULT:      -5.1      3.980      6.488
REMARK  2 active torsions:
REMARK  status: ('A' for Active; 'I' for Inactive)
REMARK    1  A    between atoms: C_1  and  N_6 
REMARK    2  A    between atoms: C_2  and  C_3 
ROOT
HETATM    1  C   UNL     1      63.974   7.737   5.215  1.00  0.00     0.104 A 
HETATM    2  C   UNL     1      65.788   6.808   7.113  1.00  0.00     0.065 A 
HETATM    3  N   UNL     1      65.179   8.345   5.344  1.00  0.00    -0.354 N 
ATOM      4  HN  UNL     1      65.426   9.140   4.754  1.00  0.00     0.166 HD
HETATM    5  C   UNL     1      63.627   6.653   6.046  1.00  0.00     0.073 A 
HETATM    6  C   UNL     1      64.540   6.196   7.000  1.00  0.00     0.044 A 
HETATM    7  C   UNL     1      66.049   7.875   6.271  1.00  0.00     0.105 A 
HETATM    8 CL   UNL     1      62.123   5.809   5.909  1.00  0.00    -0.081 Cl
ENDROOT
BRANCH   1   9
HETATM    9  N   UNL     1      63.088   8.182   4.211  1.00  0.00    -0.266 NA
HETATM   10  C   UNL     1      63.352   7.611   2.885  1.00  0.00     0.098 C 
HETATM   11  C   UNL     1      62.044   7.252   2.184  1.00  0.00     0.042 C 
HETATM   12  C   UNL     1      60.912   8.281   2.230  1.00  0.00     0.233 C 
HETATM   13  N   UNL     1      61.302   9.689   2.275  1.00  0.00    -0.074 N 
HETATM   14  C   UNL     1      61.611  10.113   3.652  1.00  0.00     0.247 C 
HETATM   15  H   UNL     1      62.128   9.825   1.691  1.00  0.00     0.277 HD
HETATM   16  H   UNL     1      60.522  10.251   1.932  1.00  0.00     0.277 HD
HETATM   17  C   UNL     1      62.978   9.657   4.206  1.00  0.00     0.124 C 
ENDBRANCH   1   9
BRANCH   2  18
HETATM   18  C   UNL     1      66.832   6.349   8.080  1.00  0.00     0.418 C 
HETATM   19  F   UNL     1      67.194   7.304   8.981  1.00  0.00    -0.166 F 
HETATM   20  F   UNL     1      66.424   5.279   8.815  1.00  0.00    -0.166 F 
HETATM   21  F   UNL     1      67.982   5.963   7.463  1.00  0.00    -0.166 F 
ENDBRANCH   2  18
TORSDOF 2
ENDMDL
MODEL 5
REMARK VINA RESULT:      -4.9      3.903      6.466
REMARK  2 active torsions:
REMARK  status: ('A' for Active; 'I' for Inactive)
REMARK    1  A    between atoms: C_1  and  N_6 
REMARK    2  A    between atoms: C_2  and  C_3 
ROOT
HETATM    1  C   UNL     1      64.093   7.154   5.335  1.00  0.00     0.104 A 
HETATM    2  C   UNL     1      66.159   5.861   6.682  1.00  0.00     0.065 A 
HETATM    3  N   UNL     1      64.211   7.298   6.679  1.00  0.00    -0.354 N 
ATOM      4  HN  UNL     1      63.549   7.873   7.200  1.00  0.00     0.166 HD
HETATM    5  C   UNL     1      64.995   6.341   4.622  1.00  0.00     0.073 A 
HETATM    6  C   UNL     1      66.027   5.691   5.304  1.00  0.00     0.044 A 
HETATM    7  C   UNL     1      65.226   6.664   7.315  1.00  0.00     0.105 A 
HETATM    8 CL   UNL     1      64.924   6.145   2.904  1.00  0.00    -0.081 Cl
ENDROOT
BRANCH   1   9
HETATM    9  N   UNL     1      63.076   7.860   4.659  1.00  0.00    -0.266 NA
HETATM   10  C   UNL     1      62.824   9.204   5.194  1.00  0.00     0.098 C 
HETATM   11  C   UNL     1      62.596  10.200   4.059  1.00  0.00     0.042 C 
HETATM   12  C   UNL     1      61.666   9.773   2.921  1.00  0.00     0.233 C 
HETATM   13  N   UNL     1      60.574   8.866   3.266  1.00  0.00    -0.074 N 
HETATM   14  C   UNL     1      61.031   7.465   3.286  1.00  0.00     0.247 C 
HETATM   15  H   UNL     1      60.215   9.111   4.189  1.00  0.00     0.277 HD
HETATM   16  H   UNL     1      59.843   8.956   2.560  1.00  0.00     0.277 HD
HETATM   17  C   UNL     1      61.852   7.041   4.523  1.00  0.00     0.124 C 
ENDBRANCH   1   9
BRANCH   2  18
HETATM   18  C   UNL     1      67.261   5.233   7.475  1.00  0.00     0.418 C 
HETATM   19  F   UNL     1      68.075   4.433   6.732  1.00  0.00    -0.166 F 
HETATM   20  F   UNL     1      68.075   6.156   8.055  1.00  0.00    -0.166 F 
HETATM   21  F   UNL     1      66.796   4.454   8.489  1.00  0.00    -0.166 F 
ENDBRANCH   2  18
TORSDOF 2
ENDMDL
MODEL 6
REMARK VINA RESULT:      -4.9      4.040      6.719
REMARK  2 active torsions:
REMARK  status: ('A' for Active; 'I' for Inactive)
REMARK    1  A    between atoms: C_1  and  N_6 
REMARK    2  A    between atoms: C_2  and  C_3 
ROOT
HETATM    1  C   UNL     1      63.514   7.641   3.424  1.00  0.00     0.104 A 
HETATM    2  C   UNL     1      65.722   7.858   5.108  1.00  0.00     0.065 A 
HETATM    3  N   UNL     1      64.492   6.702   3.373  1.00  0.00    -0.354 N 
ATOM      4  HN  UNL     1      64.428   5.920   2.721  1.00  0.00     0.166 HD
HETATM    5  C   UNL     1      63.618   8.733   4.309  1.00  0.00     0.073 A 
HETATM    6  C   UNL     1      64.730   8.839   5.147  1.00  0.00     0.044 A 
HETATM    7  C   UNL     1      65.556   6.824   4.203  1.00  0.00     0.105 A 
HETATM    8 CL   UNL     1      62.390   9.944   4.452  1.00  0.00    -0.081 Cl
ENDROOT
BRANCH   1   9
HETATM    9  N   UNL     1      62.376   7.487   2.606  1.00  0.00    -0.266 NA
HETATM   10  C   UNL     1      61.283   6.739   3.236  1.00  0.00     0.098 C 
HETATM   11  C   UNL     1      59.934   7.378   2.912  1.00  0.00     0.042 C 
HETATM   12  C   UNL     1      59.681   7.791   1.459  1.00  0.00     0.233 C 
HETATM   13  N   UNL     1      60.326   6.989   0.423  1.00  0.00    -0.074 N 
HETATM   14  C   UNL     1      61.717   7.425   0.201  1.00  0.00     0.247 C 
HETATM   15  H   UNL     1      60.327   6.010   0.710  1.00  0.00     0.277 HD
HETATM   16  H   UNL     1      59.808   7.108  -0.448  1.00  0.00     0.277 HD
HETATM   17  C   UNL     1      62.741   6.979   1.266  1.00  0.00     0.124 C 
ENDBRANCH   1   9
BRANCH   2  18
HETATM   18  C   UNL     1      66.920   7.880   6.004  1.00  0.00     0.418 C 
HETATM   19  F   UNL     1      67.132   6.702   6.654  1.00  0.00    -0.166 F 
HETATM   20  F   UNL     1      68.070   8.144   5.325  1.00  0.00    -0.166 F 
HETATM   21  F   UNL     1      66.831   8.831   6.973  1.00  0.00    -0.166 F 
ENDBRANCH   2  18
TORSDOF 2
ENDMDL
MODEL 7
REMARK VINA RESULT:      -4.4      3.749      6.074
REMARK  2 active torsions:
REMARK  status: ('A' for Active; 'I' for Inactive)
REMARK    1  A    between atoms: C_1  and  N_6 
REMARK    2  A    between atoms: C_2  and  C_3 
ROOT
HETATM    1  C   UNL     1      62.888   6.855   5.219  1.00  0.00     0.104 A 
HETATM    2  C   UNL     1      65.478   7.588   5.933  1.00  0.00     0.065 A 
HETATM    3  N   UNL     1      63.647   6.004   5.952  1.00  0.00    -0.354 N 
ATOM      4  HN  UNL     1      63.280   5.097   6.241  1.00  0.00     0.166 HD
HETATM    5  C   UNL     1      63.407   8.097   4.801  1.00  0.00     0.073 A 
HETATM    6  C   UNL     1      64.709   8.456   5.158  1.00  0.00     0.044 A 
HETATM    7  C   UNL     1      64.904   6.381   6.292  1.00  0.00     0.105 A 
HETATM    8 CL   UNL     1      62.480   9.245   3.897  1.00  0.00    -0.081 Cl
ENDROOT
BRANCH   1   9
HETATM    9  N   UNL     1      61.559   6.495   4.912  1.00  0.00    -0.266 NA
HETATM   10  C   UNL     1      60.942   5.597   5.895  1.00  0.00     0.098 C 
HETATM   11  C   UNL     1      59.491   5.999   6.156  1.00  0.00     0.042 C 
HETATM   12  C   UNL     1      58.620   6.323   4.940  1.00  0.00     0.233 C 
HETATM   13  N   UNL     1      58.921   5.607   3.702  1.00  0.00    -0.074 N 
HETATM   14  C   UNL     1      60.019   6.256   2.965  1.00  0.00     0.247 C 
HETATM   15  H   UNL     1      59.193   4.650   3.928  1.00  0.00     0.277 HD
HETATM   16  H   UNL     1      58.088   5.614   3.113  1.00  0.00     0.277 HD
HETATM   17  C   UNL     1      61.439   6.014   3.519  1.00  0.00     0.124 C 
ENDBRANCH   1   9
BRANCH   2  18
HETATM   18  C   UNL     1      66.863   7.919   6.390  1.00  0.00     0.418 C 
HETATM   19  F   UNL     1      67.435   6.938   7.143  1.00  0.00    -0.166 F 
HETATM   20  F   UNL     1      67.715   8.135   5.351  1.00  0.00    -0.166 F 
HETATM   21  F   UNL     1      66.907   9.047   7.150  1.00  0.00    -0.166 F 
ENDBRANCH   2  18
TORSDOF 2
ENDMDL
MODEL 8
REMARK VINA RESULT:      -4.3      5.120      7.011
REMARK  2 active torsions:
REMARK  status: ('A' for Active; 'I' for Inactive)
REMARK    1  A    between atoms: C_1  and  N_6 
REMARK    2  A    between atoms: C_2  and  C_3 
ROOT
HETATM    1  C   UNL     1      59.927   7.461   3.540  1.00  0.00     0.104 A 
HETATM    2  C   UNL     1      57.322   6.694   2.927  1.00  0.00     0.065 A 
HETATM    3  N   UNL     1      59.362   7.876   2.379  1.00  0.00    -0.354 N 
ATOM      4  HN  UNL     1      59.883   8.463   1.728  1.00  0.00     0.166 HD
HETATM    5  C   UNL     1      59.213   6.631   4.427  1.00  0.00     0.073 A 
HETATM    6  C   UNL     1      57.908   6.245   4.111  1.00  0.00     0.044 A 
HETATM    7  C   UNL     1      58.091   7.494   2.101  1.00  0.00     0.105 A 
HETATM    8 CL   UNL     1      59.861   6.098   5.940  1.00  0.00    -0.081 Cl
ENDROOT
BRANCH   1   9
HETATM    9  N   UNL     1      61.227   7.904   3.864  1.00  0.00    -0.266 NA
HETATM   10  C   UNL     1      61.563   9.223   3.314  1.00  0.00     0.098 C 
HETATM   11  C   UNL     1      62.336  10.052   4.338  1.00  0.00     0.042 C 
HETATM   12  C   UNL     1      63.472   9.358   5.094  1.00  0.00     0.233 C 
HETATM   13  N   UNL     1      64.191   8.303   4.384  1.00  0.00    -0.074 N 
HETATM   14  C   UNL     1      63.477   7.017   4.476  1.00  0.00     0.247 C 
HETATM   15  H   UNL     1      64.281   8.564   3.401  1.00  0.00     0.277 HD
HETATM   16  H   UNL     1      65.110   8.193   4.812  1.00  0.00     0.277 HD
HETATM   17  C   UNL     1      62.238   6.867   3.566  1.00  0.00     0.124 C 
ENDBRANCH   1   9
BRANCH   2  18
HETATM   18  C   UNL     1      55.916   6.359   2.540  1.00  0.00     0.418 C 
HETATM   19  F   UNL     1      55.011   6.594   3.531  1.00  0.00    -0.166 F 
HETATM   20  F   UNL     1      55.488   7.077   1.466  1.00  0.00    -0.166 F 
HETATM   21  F   UNL     1      55.766   5.050   2.200  1.00  0.00    -0.166 F 
ENDBRANCH   2  18
TORSDOF 2
ENDMDL
MODEL 9
REMARK VINA RESULT:      -4.3      6.451      7.853
REMARK  2 active torsions:
REMARK  status: ('A' for Active; 'I' for Inactive)
REMARK    1  A    between atoms: C_1  and  N_6 
REMARK    2  A    between atoms: C_2  and  C_3 
ROOT
HETATM    1  C   UNL     1      59.221   7.230   3.900  1.00  0.00     0.104 A 
HETATM    2  C   UNL     1      57.381   6.842   5.953  1.00  0.00     0.065 A 
HETATM    3  N   UNL     1      58.072   7.950   3.915  1.00  0.00    -0.354 N 
ATOM      4  HN  UNL     1      57.875   8.630   3.180  1.00  0.00     0.166 HD
HETATM    5  C   UNL     1      59.480   6.275   4.903  1.00  0.00     0.073 A 
HETATM    6  C   UNL     1      58.550   6.082   5.928  1.00  0.00     0.044 A 
HETATM    7  C   UNL     1      57.191   7.749   4.925  1.00  0.00     0.105 A 
HETATM    8 CL   UNL     1      60.941   5.350   4.964  1.00  0.00    -0.081 Cl
ENDROOT
BRANCH   1   9
HETATM    9  N   UNL     1      60.169   7.477   2.885  1.00  0.00    -0.266 NA
HETATM   10  C   UNL     1      61.149   8.516   3.222  1.00  0.00     0.098 C 
HETATM   11  C   UNL     1      62.545   8.114   2.750  1.00  0.00     0.042 C 
HETATM   12  C   UNL     1      62.673   7.539   1.337  1.00  0.00     0.233 C 
HETATM   13  N   UNL     1      61.726   8.027   0.337  1.00  0.00    -0.074 N 
HETATM   14  C   UNL     1      60.448   7.295   0.413  1.00  0.00     0.247 C 
HETATM   15  H   UNL     1      61.550   9.018   0.500  1.00  0.00     0.277 HD
HETATM   16  H   UNL     1      62.128   7.879  -0.589  1.00  0.00     0.277 HD
HETATM   17  C   UNL     1      59.513   7.689   1.576  1.00  0.00     0.124 C 
ENDBRANCH   1   9
BRANCH   2  18
HETATM   18  C   UNL     1      56.359   6.723   7.039  1.00  0.00     0.418 C 
HETATM   19  F   UNL     1      56.496   7.660   8.018  1.00  0.00    -0.166 F 
HETATM   20  F   UNL     1      55.087   6.855   6.572  1.00  0.00    -0.166 F 
HETATM   21  F   UNL     1      56.403   5.517   7.668  1.00  0.00    -0.166 F 
ENDBRANCH   2  18
TORSDOF 2
ENDMDL
