MODEL 1
REMARK VINA RESULT:      -5.6      0.000      0.000
REMARK  2 active torsions:
REMARK  status: ('A' for Active; 'I' for Inactive)
REMARK    1  A    between atoms: C_1  and  C_2 
REMARK    2  A    between atoms: C_2  and  N_3 
ROOT
HETATM    1  N   UNL     1      64.438   7.499   5.232  1.00  0.00    -0.065 N 
HETATM    2  N   UNL     1      66.922   6.148   6.623  1.00  0.00    -0.073 N 
HETATM    3  C   UNL     1      65.333   6.878   4.251  1.00  0.00     0.237 C 
HETATM    4  C   UNL     1      66.812   7.259   4.337  1.00  0.00     0.055 C 
HETATM    5  C   UNL     1      67.586   6.963   5.617  1.00  0.00     0.234 C 
HETATM    6  C   UNL     1      64.495   6.859   6.558  1.00  0.00     0.262 C 
HETATM    7  C   UNL     1      65.854   6.898   7.285  1.00  0.00     0.260 C 
HETATM    8  H   UNL     1      64.783   8.452   5.353  1.00  0.00     0.280 HD
HETATM    9  H   UNL     1      66.521   5.324   6.173  1.00  0.00     0.277 HD
HETATM   10  H   UNL     1      67.608   5.872   7.324  1.00  0.00     0.277 HD
ENDROOT
BRANCH   1  11
HETATM   11  C   UNL     1      63.035   7.583   4.735  1.00  0.00     0.278 C 
BRANCH  11  12
HETATM   12  C   UNL     1      62.678   8.781   3.872  1.00  0.00     0.028 A 
HETATM   13  C   UNL     1      62.477   8.712   2.482  1.00  0.00     0.045 A 
HETATM   14 CL   UNL     1      62.820   7.296   1.551  1.00  0.00    -0.084 Cl
HETATM   15  C   UNL     1      62.018   9.827   1.766  1.00  0.00     0.024 A 
HETATM   16  C   UNL     1      61.802  11.042   2.411  1.00  0.00     0.005 A 
HETATM   17  C   UNL     1      62.073  11.150   3.768  1.00  0.00     0.043 A 
HETATM   18  C   UNL     1      62.507  10.031   4.478  1.00  0.00     0.126 A 
HETATM   19  F   UNL     1      62.754  10.177   5.789  1.00  0.00    -0.205 F 
ENDBRANCH  11  12
ENDBRANCH   1  11
TORSDOF 2
ENDMDL
MODEL 2
REMARK VINA RESULT:      -5.2      2.000      2.631
REMARK  2 active torsions:
REMARK  status: ('A' for Active; 'I' for Inactive)
REMARK    1  A    between atoms: C_1  and  C_2 
REMARK    2  A    between atoms: C_2  and  N_3 
ROOT
HETATM    1  N   UNL     1      64.094   7.500   5.370  1.00  0.00    -0.065 N 
HETATM    2  N   UNL     1      67.078   7.118   6.307  1.00  0.00    -0.073 N 
HETATM    3  C   UNL     1      64.177   6.689   6.589  1.00  0.00     0.237 C 
HETATM    4  C   UNL     1      65.134   5.496   6.552  1.00  0.00     0.055 C 
HETATM    5  C   UNL     1      66.618   5.738   6.301  1.00  0.00     0.234 C 
HETATM    6  C   UNL     1      65.217   8.443   5.223  1.00  0.00     0.262 C 
HETATM    7  C   UNL     1      66.625   7.827   5.110  1.00  0.00     0.260 C 
HETATM    8  H   UNL     1      64.165   6.839   4.595  1.00  0.00     0.280 HD
HETATM    9  H   UNL     1      66.709   7.589   7.134  1.00  0.00     0.277 HD
HETATM   10  H   UNL     1      68.098   7.122   6.321  1.00  0.00     0.277 HD
ENDROOT
BRANCH   1  11
HETATM   11  C   UNL     1      62.784   8.201   5.252  1.00  0.00     0.278 C 
BRANCH  11  12
HETATM   12  C   UNL     1      62.381   8.685   3.869  1.00  0.00     0.028 A 
HETATM   13  C   UNL     1      62.250  10.040   3.522  1.00  0.00     0.045 A 
HETATM   14 CL   UNL     1      62.324  11.320   4.682  1.00  0.00    -0.084 Cl
HETATM   15  C   UNL     1      62.007  10.422   2.195  1.00  0.00     0.024 A 
HETATM   16  C   UNL     1      61.837   9.461   1.201  1.00  0.00     0.005 A 
HETATM   17  C   UNL     1      61.883   8.115   1.542  1.00  0.00     0.043 A 
HETATM   18  C   UNL     1      62.148   7.743   2.859  1.00  0.00     0.126 A 
HETATM   19  F   UNL     1      62.187   6.433   3.145  1.00  0.00    -0.205 F 
ENDBRANCH  11  12
ENDBRANCH   1  11
TORSDOF 2
ENDMDL
MODEL 3
REMARK VINA RESULT:      -4.8      3.589      5.799
REMARK  2 active torsions:
REMARK  status: ('A' for Active; 'I' for Inactive)
REMARK    1  A    between atoms: C_1  and  C_2 
REMARK    2  A    between atoms: C_2  and  N_3 
ROOT
HETATM    1  N   UNL     1      60.990   7.736   1.520  1.00  0.00    -0.065 N 
HETATM    2  N   UNL     1      58.646   6.023   0.295  1.00  0.00    -0.073 N 
HETATM    3  C   UNL     1      61.452   6.407   1.108  1.00  0.00     0.237 C 
HETATM    4  C   UNL     1      60.653   5.213   1.632  1.00  0.00     0.055 C 
HETATM    5  C   UNL     1      59.174   5.093   1.281  1.00  0.00     0.234 C 
HETATM    6  C   UNL     1      59.829   8.212   0.748  1.00  0.00     0.262 C 
HETATM    7  C   UNL     1      58.541   7.373   0.850  1.00  0.00     0.260 C 
HETATM    8  H   UNL     1      60.675   7.630   2.485  1.00  0.00     0.280 HD
HETATM    9  H   UNL     1      59.270   6.042  -0.513  1.00  0.00     0.277 HD
HETATM   10  H   UNL     1      57.716   5.712   0.018  1.00  0.00     0.277 HD
ENDROOT
BRANCH   1  11
HETATM   11  C   UNL     1      62.092   8.740   1.508  1.00  0.00     0.278 C 
BRANCH  11  12
HETATM   12  C   UNL     1      62.421   9.420   2.827  1.00  0.00     0.028 A 
HETATM   13  C   UNL     1      62.107  10.759   3.117  1.00  0.00     0.045 A 
HETATM   14 CL   UNL     1      61.497  11.860   1.932  1.00  0.00    -0.084 Cl
HETATM   15  C   UNL     1      62.318  11.285   4.399  1.00  0.00     0.024 A 
HETATM   16  C   UNL     1      62.893  10.504   5.399  1.00  0.00     0.005 A 
HETATM   17  C   UNL     1      63.284   9.204   5.107  1.00  0.00     0.043 A 
HETATM   18  C   UNL     1      63.051   8.680   3.836  1.00  0.00     0.126 A 
HETATM   19  F   UNL     1      63.441   7.419   3.596  1.00  0.00    -0.205 F 
ENDBRANCH  11  12
ENDBRANCH   1  11
TORSDOF 2
ENDMDL
MODEL 4
REMARK VINA RESULT:      -4.7      2.346      5.660
REMARK  2 active torsions:
REMARK  status: ('A' for Active; 'I' for Inactive)
REMARK    1  A    between atoms: C_1  and  C_2 
REMARK    2  A    between atoms: C_2  and  N_3 
ROOT
HETATM    1  N   UNL     1      63.703   8.288   3.849  1.00  0.00    -0.065 N 
HETATM    2  N   UNL     1      61.307  10.244   3.251  1.00  0.00    -0.073 N 
HETATM    3  C   UNL     1      63.091   8.783   5.085  1.00  0.00     0.237 C 
HETATM    4  C   UNL     1      62.931  10.300   5.208  1.00  0.00     0.055 C 
HETATM    5  C   UNL     1      62.085  11.047   4.183  1.00  0.00     0.234 C 
HETATM    6  C   UNL     1      62.767   8.251   2.711  1.00  0.00     0.262 C 
HETATM    7  C   UNL     1      62.173   9.601   2.263  1.00  0.00     0.260 C 
HETATM    8  H   UNL     1      64.426   8.966   3.609  1.00  0.00     0.280 HD
HETATM    9  H   UNL     1      60.801   9.526   3.771  1.00  0.00     0.277 HD
HETATM   10  H   UNL     1      60.653  10.855   2.761  1.00  0.00     0.277 HD
ENDROOT
BRANCH   1  11
HETATM   11  C   UNL     1      64.365   6.966   4.043  1.00  0.00     0.278 C 
BRANCH  11  12
HETATM   12  C   UNL     1      65.135   6.762   5.336  1.00  0.00     0.028 A 
HETATM   13  C   UNL     1      64.716   5.907   6.369  1.00  0.00     0.045 A 
HETATM   14 CL   UNL     1      63.166   5.142   6.388  1.00  0.00    -0.084 Cl
HETATM   15  C   UNL     1      65.540   5.661   7.478  1.00  0.00     0.024 A 
HETATM   16  C   UNL     1      66.769   6.304   7.602  1.00  0.00     0.005 A 
HETATM   17  C   UNL     1      67.163   7.214   6.630  1.00  0.00     0.043 A 
HETATM   18  C   UNL     1      66.349   7.436   5.520  1.00  0.00     0.126 A 
HETATM   19  F   UNL     1      66.768   8.321   4.602  1.00  0.00    -0.205 F 
ENDBRANCH  11  12
ENDBRANCH   1  11
TORSDOF 2
ENDMDL
MODEL 5
REMARK VINA RESULT:      -4.6      3.412      6.642
REMARK  2 active torsions:
REMARK  status: ('A' for Active; 'I' for Inactive)
REMARK    1  A    between atoms: C_1  and  C_2 
REMARK    2  A    between atoms: C_2  and  N_3 
ROOT
HETATM    1  N   UNL     1      65.094   7.770   6.260  1.00  0.00    -0.065 N 
HETATM    2  N   UNL     1      62.784   7.680   4.119  1.00  0.00    -0.073 N 
HETATM    3  C   UNL     1      64.441   6.458   6.227  1.00  0.00     0.237 C 
HETATM    4  C   UNL     1      62.916   6.451   6.343  1.00  0.00     0.055 C 
HETATM    5  C   UNL     1      62.084   7.181   5.293  1.00  0.00     0.234 C 
HETATM    6  C   UNL     1      65.024   8.486   4.974  1.00  0.00     0.262 C 
HETATM    7  C   UNL     1      63.615   8.836   4.456  1.00  0.00     0.260 C 
HETATM    8  H   UNL     1      64.563   8.325   6.932  1.00  0.00     0.280 HD
HETATM    9  H   UNL     1      63.378   6.939   3.745  1.00  0.00     0.277 HD
HETATM   10  H   UNL     1      62.094   7.967   3.426  1.00  0.00     0.277 HD
ENDROOT
BRANCH   1  11
HETATM   11  C   UNL     1      66.500   7.683   6.750  1.00  0.00     0.278 C 
BRANCH  11  12
HETATM   12  C   UNL     1      67.026   6.301   7.099  1.00  0.00     0.028 A 
HETATM   13  C   UNL     1      66.969   5.746   8.389  1.00  0.00     0.045 A 
HETATM   14 CL   UNL     1      66.486   6.649   9.783  1.00  0.00    -0.084 Cl
HETATM   15  C   UNL     1      67.349   4.415   8.616  1.00  0.00     0.024 A 
HETATM   16  C   UNL     1      67.842   3.632   7.575  1.00  0.00     0.005 A 
HETATM   17  C   UNL     1      67.981   4.191   6.311  1.00  0.00     0.043 A 
HETATM   18  C   UNL     1      67.579   5.507   6.088  1.00  0.00     0.126 A 
HETATM   19  F   UNL     1      67.727   6.007   4.851  1.00  0.00    -0.205 F 
ENDBRANCH  11  12
ENDBRANCH   1  11
TORSDOF 2
ENDMDL
MODEL 6
REMARK VINA RESULT:      -4.5      2.371      5.671
REMARK  2 active torsions:
REMARK  status: ('A' for Active; 'I' for Inactive)
REMARK    1  A    between atoms: C_1  and  C_2 
REMARK    2  A    between atoms: C_2  and  N_3 
ROOT
HETATM    1  N   UNL     1      63.768   8.031   4.032  1.00  0.00    -0.065 N 
HETATM    2  N   UNL     1      61.388   9.965   3.311  1.00  0.00    -0.073 N 
HETATM    3  C   UNL     1      63.158   8.604   5.235  1.00  0.00     0.237 C 
HETATM    4  C   UNL     1      63.009  10.127   5.266  1.00  0.00     0.055 C 
HETATM    5  C   UNL     1      62.170  10.817   4.195  1.00  0.00     0.234 C 
HETATM    6  C   UNL     1      62.834   7.932   2.896  1.00  0.00     0.262 C 
HETATM    7  C   UNL     1      62.252   9.257   2.366  1.00  0.00     0.260 C 
HETATM    8  H   UNL     1      64.497   8.688   3.753  1.00  0.00     0.280 HD
HETATM    9  H   UNL     1      60.876   9.283   3.872  1.00  0.00     0.277 HD
HETATM   10  H   UNL     1      60.740  10.550   2.785  1.00  0.00     0.277 HD
ENDROOT
BRANCH   1  11
HETATM   11  C   UNL     1      64.420   6.718   4.307  1.00  0.00     0.278 C 
BRANCH  11  12
HETATM   12  C   UNL     1      65.315   6.634   5.531  1.00  0.00     0.028 A 
HETATM   13  C   UNL     1      66.600   7.198   5.601  1.00  0.00     0.045 A 
HETATM   14 CL   UNL     1      67.407   7.874   4.230  1.00  0.00    -0.084 Cl
HETATM   15  C   UNL     1      67.319   7.201   6.805  1.00  0.00     0.024 A 
HETATM   16  C   UNL     1      66.795   6.597   7.945  1.00  0.00     0.005 A 
HETATM   17  C   UNL     1      65.561   5.963   7.872  1.00  0.00     0.043 A 
HETATM   18  C   UNL     1      64.841   5.984   6.678  1.00  0.00     0.126 A 
HETATM   19  F   UNL     1      63.652   5.364   6.651  1.00  0.00    -0.205 F 
ENDBRANCH  11  12
ENDBRANCH   1  11
TORSDOF 2
ENDMDL
MODEL 7
REMARK VINA RESULT:      -4.5      1.888      2.633
REMARK  2 active torsions:
REMARK  status: ('A' for Active; 'I' for Inactive)
REMARK    1  A    between atoms: C_1  and  C_2 
REMARK    2  A    between atoms: C_2  and  N_3 
ROOT
HETATM    1  N   UNL     1      65.969   6.041   5.721  1.00  0.00    -0.065 N 
HETATM    2  N   UNL     1      66.324   3.700   7.800  1.00  0.00    -0.073 N 
HETATM    3  C   UNL     1      67.382   5.809   6.034  1.00  0.00     0.237 C 
HETATM    4  C   UNL     1      67.757   5.783   7.517  1.00  0.00     0.055 C 
HETATM    5  C   UNL     1      67.115   4.746   8.432  1.00  0.00     0.234 C 
HETATM    6  C   UNL     1      65.133   4.838   5.880  1.00  0.00     0.262 C 
HETATM    7  C   UNL     1      65.058   4.233   7.296  1.00  0.00     0.260 C 
HETATM    8  H   UNL     1      65.641   6.717   6.411  1.00  0.00     0.280 HD
HETATM    9  H   UNL     1      66.854   3.306   7.022  1.00  0.00     0.277 HD
HETATM   10  H   UNL     1      66.121   2.981   8.494  1.00  0.00     0.277 HD
ENDROOT
BRANCH   1  11
HETATM   11  C   UNL     1      65.787   6.646   4.370  1.00  0.00     0.278 C 
BRANCH  11  12
HETATM   12  C   UNL     1      64.618   7.599   4.191  1.00  0.00     0.028 A 
HETATM   13  C   UNL     1      63.609   7.428   3.227  1.00  0.00     0.045 A 
HETATM   14 CL   UNL     1      63.688   6.228   1.985  1.00  0.00    -0.084 Cl
HETATM   15  C   UNL     1      62.488   8.269   3.204  1.00  0.00     0.024 A 
HETATM   16  C   UNL     1      62.376   9.326   4.104  1.00  0.00     0.005 A 
HETATM   17  C   UNL     1      63.402   9.559   5.010  1.00  0.00     0.043 A 
HETATM   18  C   UNL     1      64.503   8.704   5.043  1.00  0.00     0.126 A 
HETATM   19  F   UNL     1      65.471   8.963   5.936  1.00  0.00    -0.205 F 
ENDBRANCH  11  12
ENDBRANCH   1  11
TORSDOF 2
ENDMDL
MODEL 8
REMARK VINA RESULT:      -4.5      3.286      4.747
REMARK  2 active torsions:
REMARK  status: ('A' for Active; 'I' for Inactive)
REMARK    1  A    between atoms: C_1  and  C_2 
REMARK    2  A    between atoms: C_2  and  N_3 
ROOT
HETATM    1  N   UNL     1      60.698   6.681   5.007  1.00  0.00    -0.065 N 
HETATM    2  N   UNL     1      58.146   5.121   5.997  1.00  0.00    -0.073 N 
HETATM    3  C   UNL     1      61.006   5.814   6.148  1.00  0.00     0.237 C 
HETATM    4  C   UNL     1      60.110   5.960   7.379  1.00  0.00     0.055 C 
HETATM    5  C   UNL     1      58.614   5.696   7.249  1.00  0.00     0.234 C 
HETATM    6  C   UNL     1      59.563   6.200   4.201  1.00  0.00     0.262 C 
HETATM    7  C   UNL     1      58.200   6.105   4.916  1.00  0.00     0.260 C 
HETATM    8  H   UNL     1      60.411   7.574   5.410  1.00  0.00     0.280 HD
HETATM    9  H   UNL     1      58.737   4.325   5.755  1.00  0.00     0.277 HD
HETATM   10  H   UNL     1      57.179   4.822   6.117  1.00  0.00     0.277 HD
ENDROOT
BRANCH   1  11
HETATM   11  C   UNL     1      61.896   6.931   4.154  1.00  0.00     0.278 C 
BRANCH  11  12
HETATM   12  C   UNL     1      61.938   8.243   3.390  1.00  0.00     0.028 A 
HETATM   13  C   UNL     1      61.751   8.345   2.001  1.00  0.00     0.045 A 
HETATM   14 CL   UNL     1      61.660   6.968   0.959  1.00  0.00    -0.084 Cl
HETATM   15  C   UNL     1      61.669   9.599   1.378  1.00  0.00     0.024 A 
HETATM   16  C   UNL     1      61.825  10.769   2.117  1.00  0.00     0.005 A 
HETATM   17  C   UNL     1      62.091  10.684   3.477  1.00  0.00     0.043 A 
HETATM   18  C   UNL     1      62.149   9.435   4.094  1.00  0.00     0.126 A 
HETATM   19  F   UNL     1      62.405   9.397   5.411  1.00  0.00    -0.205 F 
ENDBRANCH  11  12
ENDBRANCH   1  11
TORSDOF 2
ENDMDL
MODEL 9
REMARK VINA RESULT:      -4.4      3.639      5.293
REMARK  2 active torsions:
REMARK  status: ('A' for Active; 'I' for Inactive)
REMARK    1  A    between atoms: C_1  and  C_2 
REMARK    2  A    between atoms: C_2  and  N_3 
ROOT
HETATM    1  N   UNL     1      60.519   6.593   3.015  1.00  0.00    -0.065 N 
HETATM    2  N   UNL     1      58.089   4.673   3.600  1.00  0.00    -0.073 N 
HETATM    3  C   UNL     1      59.468   7.271   3.780  1.00  0.00     0.237 C 
HETATM    4  C   UNL     1      58.049   7.188   3.215  1.00  0.00     0.055 C 
HETATM    5  C   UNL     1      57.397   5.821   3.034  1.00  0.00     0.234 C 
HETATM    6  C   UNL     1      60.549   5.136   3.235  1.00  0.00     0.262 C 
HETATM    7  C   UNL     1      59.288   4.350   2.825  1.00  0.00     0.260 C 
HETATM    8  H   UNL     1      60.279   6.734   2.033  1.00  0.00     0.280 HD
HETATM    9  H   UNL     1      58.360   4.887   4.560  1.00  0.00     0.277 HD
HETATM   10  H   UNL     1      57.461   3.870   3.577  1.00  0.00     0.277 HD
ENDROOT
BRANCH   1  11
HETATM   11  C   UNL     1      61.861   7.199   3.247  1.00  0.00     0.278 C 
BRANCH  11  12
HETATM   12  C   UNL     1      61.975   8.706   3.088  1.00  0.00     0.028 A 
HETATM   13  C   UNL     1      61.865   9.372   1.856  1.00  0.00     0.045 A 
HETATM   14 CL   UNL     1      61.797   8.544   0.340  1.00  0.00    -0.084 Cl
HETATM   15  C   UNL     1      61.846  10.773   1.796  1.00  0.00     0.024 A 
HETATM   16  C   UNL     1      61.989  11.534   2.954  1.00  0.00     0.005 A 
HETATM   17  C   UNL     1      62.181  10.891   4.170  1.00  0.00     0.043 A 
HETATM   18  C   UNL     1      62.176   9.498   4.225  1.00  0.00     0.126 A 
HETATM   19  F   UNL     1      62.361   8.917   5.420  1.00  0.00    -0.205 F 
ENDBRANCH  11  12
ENDBRANCH   1  11
TORSDOF 2
ENDMDL
