MODEL 1
REMARK VINA RESULT:      -5.3      0.000      0.000
REMARK  2 active torsions:
REMARK  status: ('A' for Active; 'I' for Inactive)
REMARK    1  A    between atoms: C_3  and  C_7 
REMARK    2  A    between atoms: C_10  and  N_11 
ROOT
HETATM    1  C   UNL     1      63.292   8.650   4.620  1.00  0.00    -0.009 A 
HETATM    2  C   UNL     1      62.951   8.393   3.286  1.00  0.00     0.016 A 
HETATM    3  C   UNL     1      62.993   9.912   5.149  1.00  0.00     0.016 A 
HETATM    4  C   UNL     1      61.963  10.603   3.059  1.00  0.00     0.025 A 
HETATM    5  C   UNL     1      62.313   9.367   2.510  1.00  0.00     0.030 A 
HETATM    6  C   UNL     1      62.352  10.882   4.369  1.00  0.00     0.030 A 
ENDROOT
BRANCH   1   7
HETATM    7  C   UNL     1      63.983   7.663   5.443  1.00  0.00     0.049 A 
HETATM    8  N   UNL     1      65.056   8.020   6.247  1.00  0.00    -0.353 N 
HETATM    9  C   UNL     1      65.526   6.962   6.872  1.00  0.00     0.047 A 
ATOM     10  HN  UNL     1      65.427   8.966   6.341  1.00  0.00     0.166 HD
HETATM   11  S   UNL     1      64.696   5.490   6.562  1.00  0.00    -0.087 SA
HETATM   12  C   UNL     1      66.693   6.976   7.795  1.00  0.00     0.076 C 
HETATM   13  C   UNL     1      63.636   6.326   5.508  1.00  0.00     0.081 A 
ENDBRANCH   1   7
BRANCH   4  14
HETATM   14  N   UNL     1      61.455  11.616   2.239  1.00  0.00    -0.399 N 
HETATM   15  H   UNL     1      60.963  11.386   1.418  1.00  0.00     0.156 HD
HETATM   16  H   UNL     1      61.591  12.561   2.483  1.00  0.00     0.156 HD
ENDBRANCH   4  14
TORSDOF 2
ENDMDL
MODEL 2
REMARK VINA RESULT:      -5.1      1.332      1.491
REMARK  2 active torsions:
REMARK  status: ('A' for Active; 'I' for Inactive)
REMARK    1  A    between atoms: C_3  and  C_7 
REMARK    2  A    between atoms: C_10  and  N_11 
ROOT
HETATM    1  C   UNL     1      64.193   8.438   4.823  1.00  0.00    -0.009 A 
HETATM    2  C   UNL     1      63.719   7.935   3.606  1.00  0.00     0.016 A 
HETATM    3  C   UNL     1      63.662   9.646   5.294  1.00  0.00     0.016 A 
HETATM    4  C   UNL     1      62.157   9.786   3.389  1.00  0.00     0.025 A 
HETATM    5  C   UNL     1      62.727   8.614   2.888  1.00  0.00     0.030 A 
HETATM    6  C   UNL     1      62.668  10.320   4.573  1.00  0.00     0.030 A 
ENDROOT
BRANCH   1   7
HETATM    7  C   UNL     1      65.246   7.766   5.578  1.00  0.00     0.049 A 
HETATM    8  N   UNL     1      65.063   7.410   6.908  1.00  0.00    -0.353 N 
HETATM    9  C   UNL     1      66.153   6.842   7.378  1.00  0.00     0.047 A 
ATOM     10  HN  UNL     1      64.209   7.566   7.443  1.00  0.00     0.166 HD
HETATM   11  S   UNL     1      67.442   6.671   6.255  1.00  0.00    -0.087 SA
HETATM   12  C   UNL     1      66.318   6.362   8.776  1.00  0.00     0.076 C 
HETATM   13  C   UNL     1      66.477   7.419   5.054  1.00  0.00     0.081 A 
ENDBRANCH   1   7
BRANCH   4  14
HETATM   14  N   UNL     1      61.272  10.529   2.601  1.00  0.00    -0.399 N 
HETATM   15  H   UNL     1      60.462  10.917   3.003  1.00  0.00     0.156 HD
HETATM   16  H   UNL     1      61.460  10.664   1.644  1.00  0.00     0.156 HD
ENDBRANCH   4  14
TORSDOF 2
ENDMDL
MODEL 3
REMARK VINA RESULT:      -4.6      1.674      2.230
REMARK  2 active torsions:
REMARK  status: ('A' for Active; 'I' for Inactive)
REMARK    1  A    between atoms: C_3  and  C_7 
REMARK    2  A    between atoms: C_10  and  N_11 
ROOT
HETATM    1  C   UNL     1      62.493   8.853   4.097  1.00  0.00    -0.009 A 
HETATM    2  C   UNL     1      62.269   8.750   2.718  1.00  0.00     0.016 A 
HETATM    3  C   UNL     1      62.417  10.121   4.688  1.00  0.00     0.016 A 
HETATM    4  C   UNL     1      61.828  11.136   2.559  1.00  0.00     0.025 A 
HETATM    5  C   UNL     1      61.962   9.883   1.957  1.00  0.00     0.030 A 
HETATM    6  C   UNL     1      62.107  11.251   3.922  1.00  0.00     0.030 A 
ENDROOT
BRANCH   1   7
HETATM    7  C   UNL     1      62.843   7.693   4.910  1.00  0.00     0.049 A 
HETATM    8  N   UNL     1      61.892   6.740   5.251  1.00  0.00    -0.353 N 
HETATM    9  C   UNL     1      62.436   5.808   6.004  1.00  0.00     0.047 A 
ATOM     10  HN  UNL     1      60.915   6.759   4.961  1.00  0.00     0.166 HD
HETATM   11  S   UNL     1      64.114   5.996   6.320  1.00  0.00    -0.087 SA
HETATM   12  C   UNL     1      61.700   4.647   6.572  1.00  0.00     0.076 C 
HETATM   13  C   UNL     1      64.113   7.435   5.390  1.00  0.00     0.081 A 
ENDBRANCH   1   7
BRANCH   4  14
HETATM   14  N   UNL     1      61.661  12.280   1.771  1.00  0.00    -0.399 N 
HETATM   15  H   UNL     1      61.934  12.270   0.826  1.00  0.00     0.156 HD
HETATM   16  H   UNL     1      61.271  13.095   2.163  1.00  0.00     0.156 HD
ENDBRANCH   4  14
TORSDOF 2
ENDMDL
MODEL 4
REMARK VINA RESULT:      -4.5      2.429      5.618
REMARK  2 active torsions:
REMARK  status: ('A' for Active; 'I' for Inactive)
REMARK    1  A    between atoms: C_3  and  C_7 
REMARK    2  A    between atoms: C_10  and  N_11 
ROOT
HETATM    1  C   UNL     1      64.456   8.027   5.391  1.00  0.00    -0.009 A 
HETATM    2  C   UNL     1      64.039   6.977   6.219  1.00  0.00     0.016 A 
HETATM    3  C   UNL     1      65.790   8.446   5.472  1.00  0.00     0.016 A 
HETATM    4  C   UNL     1      66.282   6.733   7.126  1.00  0.00     0.025 A 
HETATM    5  C   UNL     1      64.939   6.353   7.091  1.00  0.00     0.030 A 
HETATM    6  C   UNL     1      66.686   7.816   6.344  1.00  0.00     0.030 A 
ENDROOT
BRANCH   1   7
HETATM    7  C   UNL     1      63.533   8.714   4.493  1.00  0.00     0.049 A 
HETATM    8  N   UNL     1      63.271   8.227   3.220  1.00  0.00    -0.353 N 
HETATM    9  C   UNL     1      62.433   9.024   2.594  1.00  0.00     0.047 A 
ATOM     10  HN  UNL     1      63.671   7.374   2.826  1.00  0.00     0.166 HD
HETATM   11  S   UNL     1      61.884  10.378   3.497  1.00  0.00    -0.087 SA
HETATM   12  C   UNL     1      61.956   8.819   1.199  1.00  0.00     0.076 C 
HETATM   13  C   UNL     1      62.845   9.867   4.820  1.00  0.00     0.081 A 
ENDBRANCH   1   7
BRANCH   4  14
HETATM   14  N   UNL     1      67.136   6.202   8.098  1.00  0.00    -0.399 N 
HETATM   15  H   UNL     1      67.729   6.797   8.610  1.00  0.00     0.156 HD
HETATM   16  H   UNL     1      67.146   5.232   8.268  1.00  0.00     0.156 HD
ENDBRANCH   4  14
TORSDOF 2
ENDMDL
MODEL 5
REMARK VINA RESULT:      -4.1      2.225      3.348
REMARK  2 active torsions:
REMARK  status: ('A' for Active; 'I' for Inactive)
REMARK    1  A    between atoms: C_3  and  C_7 
REMARK    2  A    between atoms: C_10  and  N_11 
ROOT
HETATM    1  C   UNL     1      62.446   8.218   3.261  1.00  0.00    -0.009 A 
HETATM    2  C   UNL     1      62.316   9.296   4.145  1.00  0.00     0.016 A 
HETATM    3  C   UNL     1      62.290   8.462   1.890  1.00  0.00     0.016 A 
HETATM    4  C   UNL     1      61.959  10.835   2.297  1.00  0.00     0.025 A 
HETATM    5  C   UNL     1      62.054  10.585   3.668  1.00  0.00     0.030 A 
HETATM    6  C   UNL     1      62.031   9.754   1.418  1.00  0.00     0.030 A 
ENDROOT
BRANCH   1   7
HETATM    7  C   UNL     1      62.691   6.859   3.733  1.00  0.00     0.049 A 
HETATM    8  N   UNL     1      62.089   5.766   3.124  1.00  0.00    -0.353 N 
HETATM    9  C   UNL     1      62.441   4.656   3.736  1.00  0.00     0.047 A 
ATOM     10  HN  UNL     1      61.465   5.815   2.318  1.00  0.00     0.166 HD
HETATM   11  S   UNL     1      63.532   4.848   5.049  1.00  0.00    -0.087 SA
HETATM   12  C   UNL     1      61.960   3.298   3.365  1.00  0.00     0.076 C 
HETATM   13  C   UNL     1      63.528   6.541   4.786  1.00  0.00     0.081 A 
ENDBRANCH   1   7
BRANCH   4  14
HETATM   14  N   UNL     1      61.558  12.095   1.839  1.00  0.00    -0.399 N 
HETATM   15  H   UNL     1      61.544  12.286   0.874  1.00  0.00     0.156 HD
HETATM   16  H   UNL     1      61.291  12.791   2.483  1.00  0.00     0.156 HD
ENDBRANCH   4  14
TORSDOF 2
ENDMDL
MODEL 6
REMARK VINA RESULT:      -4.0     11.375     12.498
REMARK  2 active torsions:
REMARK  status: ('A' for Active; 'I' for Inactive)
REMARK    1  A    between atoms: C_3  and  C_7 
REMARK    2  A    between atoms: C_10  and  N_11 
ROOT
HETATM    1  C   UNL     1      60.138   0.068  12.814  1.00  0.00    -0.009 A 
HETATM    2  C   UNL     1      59.723   1.353  13.187  1.00  0.00     0.016 A 
HETATM    3  C   UNL     1      59.274  -1.006  13.062  1.00  0.00     0.016 A 
HETATM    4  C   UNL     1      57.588   0.492  13.969  1.00  0.00     0.025 A 
HETATM    5  C   UNL     1      58.471   1.556  13.778  1.00  0.00     0.030 A 
HETATM    6  C   UNL     1      58.021  -0.796  13.650  1.00  0.00     0.030 A 
ENDROOT
BRANCH   1   7
HETATM    7  C   UNL     1      61.449  -0.178  12.222  1.00  0.00     0.049 A 
HETATM    8  N   UNL     1      62.576  -0.347  13.015  1.00  0.00    -0.353 N 
HETATM    9  C   UNL     1      63.638  -0.530  12.260  1.00  0.00     0.047 A 
ATOM     10  HN  UNL     1      62.581  -0.333  14.035  1.00  0.00     0.166 HD
HETATM   11  S   UNL     1      63.348  -0.542  10.566  1.00  0.00    -0.087 SA
HETATM   12  C   UNL     1      65.020  -0.718  12.777  1.00  0.00     0.076 C 
HETATM   13  C   UNL     1      61.682  -0.274  10.863  1.00  0.00     0.081 A 
ENDBRANCH   1   7
BRANCH   4  14
HETATM   14  N   UNL     1      56.402   0.683  14.686  1.00  0.00    -0.399 N 
HETATM   15  H   UNL     1      56.042   1.591  14.809  1.00  0.00     0.156 HD
HETATM   16  H   UNL     1      55.927  -0.090  15.068  1.00  0.00     0.156 HD
ENDBRANCH   4  14
TORSDOF 2
ENDMDL
MODEL 7
REMARK VINA RESULT:      -4.0      2.088      2.470
REMARK  2 active torsions:
REMARK  status: ('A' for Active; 'I' for Inactive)
REMARK    1  A    between atoms: C_3  and  C_7 
REMARK    2  A    between atoms: C_10  and  N_11 
ROOT
HETATM    1  C   UNL     1      63.147   7.621   4.715  1.00  0.00    -0.009 A 
HETATM    2  C   UNL     1      62.923   8.654   3.796  1.00  0.00     0.016 A 
HETATM    3  C   UNL     1      62.079   6.774   5.034  1.00  0.00     0.016 A 
HETATM    4  C   UNL     1      60.621   7.939   3.475  1.00  0.00     0.025 A 
HETATM    5  C   UNL     1      61.667   8.822   3.201  1.00  0.00     0.030 A 
HETATM    6  C   UNL     1      60.826   6.944   4.433  1.00  0.00     0.030 A 
ENDROOT
BRANCH   1   7
HETATM    7  C   UNL     1      64.438   7.441   5.371  1.00  0.00     0.049 A 
HETATM    8  N   UNL     1      65.614   7.882   4.780  1.00  0.00    -0.353 N 
HETATM    9  C   UNL     1      66.644   7.587   5.545  1.00  0.00     0.047 A 
ATOM     10  HN  UNL     1      65.673   8.364   3.883  1.00  0.00     0.166 HD
HETATM   11  S   UNL     1      66.265   6.798   7.024  1.00  0.00    -0.087 SA
HETATM   12  C   UNL     1      68.060   7.889   5.207  1.00  0.00     0.076 C 
HETATM   13  C   UNL     1      64.604   6.846   6.608  1.00  0.00     0.081 A 
ENDBRANCH   1   7
BRANCH   4  14
HETATM   14  N   UNL     1      59.337   8.198   2.986  1.00  0.00    -0.399 N 
HETATM   15  H   UNL     1      58.887   7.539   2.411  1.00  0.00     0.156 HD
HETATM   16  H   UNL     1      58.882   9.041   3.218  1.00  0.00     0.156 HD
ENDBRANCH   4  14
TORSDOF 2
ENDMDL
MODEL 8
REMARK VINA RESULT:      -3.9      2.985      5.274
REMARK  2 active torsions:
REMARK  status: ('A' for Active; 'I' for Inactive)
REMARK    1  A    between atoms: C_3  and  C_7 
REMARK    2  A    between atoms: C_10  and  N_11 
ROOT
HETATM    1  C   UNL     1      64.253   7.637   4.082  1.00  0.00    -0.009 A 
HETATM    2  C   UNL     1      65.167   6.676   3.630  1.00  0.00     0.016 A 
HETATM    3  C   UNL     1      64.631   8.460   5.151  1.00  0.00     0.016 A 
HETATM    4  C   UNL     1      66.825   7.417   5.248  1.00  0.00     0.025 A 
HETATM    5  C   UNL     1      66.429   6.555   4.223  1.00  0.00     0.030 A 
HETATM    6  C   UNL     1      65.896   8.337   5.737  1.00  0.00     0.030 A 
ENDROOT
BRANCH   1   7
HETATM    7  C   UNL     1      62.920   7.767   3.502  1.00  0.00     0.049 A 
HETATM    8  N   UNL     1      61.787   7.396   4.213  1.00  0.00    -0.353 N 
HETATM    9  C   UNL     1      60.711   7.580   3.478  1.00  0.00     0.047 A 
ATOM     10  HN  UNL     1      61.787   7.033   5.167  1.00  0.00     0.166 HD
HETATM   11  S   UNL     1      60.987   8.235   1.914  1.00  0.00    -0.087 SA
HETATM   12  C   UNL     1      59.326   7.262   3.916  1.00  0.00     0.076 C 
HETATM   13  C   UNL     1      62.669   8.267   2.238  1.00  0.00     0.081 A 
ENDBRANCH   1   7
BRANCH   4  14
HETATM   14  N   UNL     1      68.028   7.196   5.925  1.00  0.00    -0.399 N 
HETATM   15  H   UNL     1      68.023   7.018   6.893  1.00  0.00     0.156 HD
HETATM   16  H   UNL     1      68.882   7.221   5.433  1.00  0.00     0.156 HD
ENDBRANCH   4  14
TORSDOF 2
ENDMDL
MODEL 9
REMARK VINA RESULT:      -3.8      9.254     11.156
REMARK  2 active torsions:
REMARK  status: ('A' for Active; 'I' for Inactive)
REMARK    1  A    between atoms: C_3  and  C_7 
REMARK    2  A    between atoms: C_10  and  N_11 
ROOT
HETATM    1  C   UNL     1      57.978   2.568  11.309  1.00  0.00    -0.009 A 
HETATM    2  C   UNL     1      58.763   2.127  12.383  1.00  0.00     0.016 A 
HETATM    3  C   UNL     1      56.588   2.420  11.399  1.00  0.00     0.016 A 
HETATM    4  C   UNL     1      56.780   1.478  13.632  1.00  0.00     0.025 A 
HETATM    5  C   UNL     1      58.169   1.569  13.520  1.00  0.00     0.030 A 
HETATM    6  C   UNL     1      56.000   1.863  12.541  1.00  0.00     0.030 A 
ENDROOT
BRANCH   1   7
HETATM    7  C   UNL     1      58.572   3.128  10.099  1.00  0.00     0.049 A 
HETATM    8  N   UNL     1      58.588   4.498   9.872  1.00  0.00    -0.353 N 
HETATM    9  C   UNL     1      59.150   4.758   8.712  1.00  0.00     0.047 A 
ATOM     10  HN  UNL     1      58.217   5.201  10.512  1.00  0.00     0.166 HD
HETATM   11  S   UNL     1      59.720   3.390   7.842  1.00  0.00    -0.087 SA
HETATM   12  C   UNL     1      59.310   6.121   8.138  1.00  0.00     0.076 C 
HETATM   13  C   UNL     1      59.167   2.374   9.105  1.00  0.00     0.081 A 
ENDBRANCH   1   7
BRANCH   4  14
HETATM   14  N   UNL     1      56.205   0.792  14.707  1.00  0.00    -0.399 N 
HETATM   15  H   UNL     1      55.423   1.170  15.170  1.00  0.00     0.156 HD
HETATM   16  H   UNL     1      56.584  -0.068  15.001  1.00  0.00     0.156 HD
ENDBRANCH   4  14
TORSDOF 2
ENDMDL
