MODEL 1
REMARK VINA RESULT:      -4.7      0.000      0.000
REMARK  6 active torsions:
REMARK  status: ('A' for Active; 'I' for Inactive)
REMARK    1  A    between atoms: C_1  and  C_2 
REMARK    2  A    between atoms: C_5  and  N_12 
REMARK    3  A    between atoms: N_12  and  C_16 
REMARK    4  A    between atoms: N_14  and  C_17 
REMARK    5  A    between atoms: C_15  and  C_16 
REMARK    6  A    between atoms: C_15  and  C_17 
ROOT
HETATM    1  C   UNL     1      64.313   7.791   4.196  1.00  0.00     0.065 A 
HETATM    2  N   UNL     1      65.398   8.713   6.156  1.00  0.00    -0.350 N 
ATOM      3  HN  UNL     1      65.434   9.434   6.877  1.00  0.00     0.166 HD
HETATM    4  C   UNL     1      66.302   7.705   6.141  1.00  0.00     0.123 A 
HETATM    5  C   UNL     1      65.254   6.759   4.173  1.00  0.00     0.045 A 
HETATM    6  C   UNL     1      66.259   6.719   5.140  1.00  0.00     0.078 A 
HETATM    7  C   UNL     1      64.445   8.744   5.193  1.00  0.00     0.106 A 
HETATM    8 CL   UNL     1      67.392   5.415   5.094  1.00  0.00    -0.080 Cl
ENDROOT
BRANCH   4   9
HETATM    9  N   UNL     1      67.231   7.608   7.174  1.00  0.00    -0.375 N 
HETATM   10  H   UNL     1      68.120   8.017   7.073  1.00  0.00     0.161 HD
BRANCH   9  11
HETATM   11  C   UNL     1      66.891   6.906   8.401  1.00  0.00     0.123 C 
BRANCH  11  12
HETATM   12  C   UNL     1      67.973   5.929   8.852  1.00  0.00     0.047 C 
BRANCH  12  13
HETATM   13  C   UNL     1      67.549   4.470   8.727  1.00  0.00     0.231 C 
BRANCH  13  14
HETATM   14  N   UNL     1      66.154   4.396   8.292  1.00  0.00    -0.079 N 
HETATM   15  H   UNL     1      65.707   3.585   8.718  1.00  0.00     0.274 HD
HETATM   16  H   UNL     1      66.119   4.308   7.276  1.00  0.00     0.274 HD
HETATM   17  H   UNL     1      65.663   5.243   8.577  1.00  0.00     0.274 HD
ENDBRANCH  13  14
ENDBRANCH  12  13
ENDBRANCH  11  12
ENDBRANCH   9  11
ENDBRANCH   4   9
BRANCH   1  18
HETATM   18  C   UNL     1      63.196   7.889   3.207  1.00  0.00     0.418 C 
HETATM   19  F   UNL     1      62.024   7.362   3.658  1.00  0.00    -0.166 F 
HETATM   20  F   UNL     1      63.473   7.241   2.044  1.00  0.00    -0.166 F 
HETATM   21  F   UNL     1      62.919   9.176   2.864  1.00  0.00    -0.166 F 
ENDBRANCH   1  18
TORSDOF 6
ENDMDL
MODEL 2
REMARK VINA RESULT:      -4.7      2.473      3.077
REMARK  6 active torsions:
REMARK  status: ('A' for Active; 'I' for Inactive)
REMARK    1  A    between atoms: C_1  and  C_2 
REMARK    2  A    between atoms: C_5  and  N_12 
REMARK    3  A    between atoms: N_12  and  C_16 
REMARK    4  A    between atoms: N_14  and  C_17 
REMARK    5  A    between atoms: C_15  and  C_16 
REMARK    6  A    between atoms: C_15  and  C_17 
ROOT
HETATM    1  C   UNL     1      62.603   8.993   3.085  1.00  0.00     0.065 A 
HETATM    2  N   UNL     1      63.289   9.170   5.402  1.00  0.00    -0.350 N 
ATOM      3  HN  UNL     1      63.347   9.725   6.255  1.00  0.00     0.166 HD
HETATM    4  C   UNL     1      63.755   7.899   5.371  1.00  0.00     0.123 A 
HETATM    5  C   UNL     1      63.097   7.686   3.049  1.00  0.00     0.045 A 
HETATM    6  C   UNL     1      63.685   7.139   4.190  1.00  0.00     0.078 A 
HETATM    7  C   UNL     1      62.742   9.688   4.275  1.00  0.00     0.106 A 
HETATM    8 CL   UNL     1      64.265   5.512   4.116  1.00  0.00    -0.080 Cl
ENDROOT
BRANCH   4   9
HETATM    9  N   UNL     1      64.236   7.322   6.543  1.00  0.00    -0.375 N 
HETATM   10  H   UNL     1      63.611   7.090   7.267  1.00  0.00     0.161 HD
BRANCH   9  11
HETATM   11  C   UNL     1      65.657   7.062   6.702  1.00  0.00     0.123 C 
BRANCH  11  12
HETATM   12  C   UNL     1      66.539   8.139   6.076  1.00  0.00     0.047 C 
BRANCH  12  13
HETATM   13  C   UNL     1      67.793   7.575   5.418  1.00  0.00     0.231 C 
BRANCH  13  14
HETATM   14  N   UNL     1      67.467   7.067   4.086  1.00  0.00    -0.079 N 
HETATM   15  H   UNL     1      67.659   7.788   3.390  1.00  0.00     0.274 HD
HETATM   16  H   UNL     1      66.479   6.816   4.051  1.00  0.00     0.274 HD
HETATM   17  H   UNL     1      68.034   6.243   3.887  1.00  0.00     0.274 HD
ENDBRANCH  13  14
ENDBRANCH  12  13
ENDBRANCH  11  12
ENDBRANCH   9  11
ENDBRANCH   4   9
BRANCH   1  18
HETATM   18  C   UNL     1      61.942   9.639   1.910  1.00  0.00     0.418 C 
HETATM   19  F   UNL     1      60.719   9.115   1.619  1.00  0.00    -0.166 F 
HETATM   20  F   UNL     1      62.677   9.525   0.771  1.00  0.00    -0.166 F 
HETATM   21  F   UNL     1      61.742  10.971   2.096  1.00  0.00    -0.166 F 
ENDBRANCH   1  18
TORSDOF 6
ENDMDL
MODEL 3
REMARK VINA RESULT:      -4.7      1.650      2.160
REMARK  6 active torsions:
REMARK  status: ('A' for Active; 'I' for Inactive)
REMARK    1  A    between atoms: C_1  and  C_2 
REMARK    2  A    between atoms: C_5  and  N_12 
REMARK    3  A    between atoms: N_12  and  C_16 
REMARK    4  A    between atoms: N_14  and  C_17 
REMARK    5  A    between atoms: C_15  and  C_16 
REMARK    6  A    between atoms: C_15  and  C_17 
ROOT
HETATM    1  C   UNL     1      62.764   8.917   3.236  1.00  0.00     0.065 A 
HETATM    2  N   UNL     1      63.625   9.204   5.482  1.00  0.00    -0.350 N 
ATOM      3  HN  UNL     1      63.666   9.759   6.337  1.00  0.00     0.166 HD
HETATM    4  C   UNL     1      64.301   8.035   5.383  1.00  0.00     0.123 A 
HETATM    5  C   UNL     1      63.472   7.717   3.129  1.00  0.00     0.045 A 
HETATM    6  C   UNL     1      64.253   7.278   4.199  1.00  0.00     0.078 A 
HETATM    7  C   UNL     1      62.892   9.622   4.421  1.00  0.00     0.106 A 
HETATM    8 CL   UNL     1      65.098   5.779   4.039  1.00  0.00    -0.080 Cl
ENDROOT
BRANCH   4   9
HETATM    9  N   UNL     1      64.984   7.548   6.493  1.00  0.00    -0.375 N 
HETATM   10  H   UNL     1      64.506   7.015   7.168  1.00  0.00     0.161 HD
BRANCH   9  11
HETATM   11  C   UNL     1      66.402   7.824   6.661  1.00  0.00     0.123 C 
BRANCH  11  12
HETATM   12  C   UNL     1      67.175   6.652   7.260  1.00  0.00     0.047 C 
BRANCH  12  13
HETATM   13  C   UNL     1      66.742   6.316   8.682  1.00  0.00     0.231 C 
BRANCH  13  14
HETATM   14  N   UNL     1      66.235   4.945   8.735  1.00  0.00    -0.079 N 
HETATM   15  H   UNL     1      65.220   4.953   8.637  1.00  0.00     0.274 HD
HETATM   16  H   UNL     1      66.486   4.524   9.629  1.00  0.00     0.274 HD
HETATM   17  H   UNL     1      66.645   4.401   7.976  1.00  0.00     0.274 HD
ENDBRANCH  13  14
ENDBRANCH  12  13
ENDBRANCH  11  12
ENDBRANCH   9  11
ENDBRANCH   4   9
BRANCH   1  18
HETATM   18  C   UNL     1      61.891   9.441   2.141  1.00  0.00     0.418 C 
HETATM   19  F   UNL     1      60.703   8.784   2.032  1.00  0.00    -0.166 F 
HETATM   20  F   UNL     1      62.480   9.350   0.918  1.00  0.00    -0.166 F 
HETATM   21  F   UNL     1      61.578  10.753   2.311  1.00  0.00    -0.166 F 
ENDBRANCH   1  18
TORSDOF 6
ENDMDL
MODEL 4
REMARK VINA RESULT:      -4.6      2.588      3.392
REMARK  6 active torsions:
REMARK  status: ('A' for Active; 'I' for Inactive)
REMARK    1  A    between atoms: C_1  and  C_2 
REMARK    2  A    between atoms: C_5  and  N_12 
REMARK    3  A    between atoms: N_12  and  C_16 
REMARK    4  A    between atoms: N_14  and  C_17 
REMARK    5  A    between atoms: C_15  and  C_16 
REMARK    6  A    between atoms: C_15  and  C_17 
ROOT
HETATM    1  C   UNL     1      62.503   8.516   2.491  1.00  0.00     0.065 A 
HETATM    2  N   UNL     1      64.000   7.373   4.014  1.00  0.00    -0.350 N 
ATOM      3  HN  UNL     1      64.575   6.558   4.226  1.00  0.00     0.166 HD
HETATM    4  C   UNL     1      63.935   8.416   4.876  1.00  0.00     0.123 A 
HETATM    5  C   UNL     1      62.425   9.586   3.386  1.00  0.00     0.045 A 
HETATM    6  C   UNL     1      63.133   9.534   4.587  1.00  0.00     0.078 A 
HETATM    7  C   UNL     1      63.285   7.436   2.864  1.00  0.00     0.106 A 
HETATM    8 CL   UNL     1      63.032  10.885   5.661  1.00  0.00    -0.080 Cl
ENDROOT
BRANCH   4   9
HETATM    9  N   UNL     1      64.733   8.406   6.016  1.00  0.00    -0.375 N 
HETATM   10  H   UNL     1      64.329   8.576   6.898  1.00  0.00     0.161 HD
BRANCH   9  11
HETATM   11  C   UNL     1      66.159   8.145   5.912  1.00  0.00     0.123 C 
BRANCH  11  12
HETATM   12  C   UNL     1      66.573   6.814   6.534  1.00  0.00     0.047 C 
BRANCH  12  13
HETATM   13  C   UNL     1      65.767   6.461   7.779  1.00  0.00     0.231 C 
BRANCH  13  14
HETATM   14  N   UNL     1      66.573   6.700   8.975  1.00  0.00    -0.079 N 
HETATM   15  H   UNL     1      67.082   5.850   9.218  1.00  0.00     0.274 HD
HETATM   16  H   UNL     1      65.964   6.964   9.749  1.00  0.00     0.274 HD
HETATM   17  H   UNL     1      67.237   7.453   8.794  1.00  0.00     0.274 HD
ENDBRANCH  13  14
ENDBRANCH  12  13
ENDBRANCH  11  12
ENDBRANCH   9  11
ENDBRANCH   4   9
BRANCH   1  18
HETATM   18  C   UNL     1      61.790   8.509   1.177  1.00  0.00     0.418 C 
HETATM   19  F   UNL     1      60.576   9.125   1.214  1.00  0.00    -0.166 F 
HETATM   20  F   UNL     1      61.556   7.250   0.719  1.00  0.00    -0.166 F 
HETATM   21  F   UNL     1      62.498   9.138   0.201  1.00  0.00    -0.166 F 
ENDBRANCH   1  18
TORSDOF 6
ENDMDL
MODEL 5
REMARK VINA RESULT:      -4.4      4.100      6.180
REMARK  6 active torsions:
REMARK  status: ('A' for Active; 'I' for Inactive)
REMARK    1  A    between atoms: C_1  and  C_2 
REMARK    2  A    between atoms: C_5  and  N_12 
REMARK    3  A    between atoms: N_12  and  C_16 
REMARK    4  A    between atoms: N_14  and  C_17 
REMARK    5  A    between atoms: C_15  and  C_16 
REMARK    6  A    between atoms: C_15  and  C_17 
ROOT
HETATM    1  C   UNL     1      66.190   6.658   7.385  1.00  0.00     0.065 A 
HETATM    2  N   UNL     1      65.844   8.656   6.060  1.00  0.00    -0.350 N 
ATOM      3  HN  UNL     1      66.186   9.563   5.742  1.00  0.00     0.166 HD
HETATM    4  C   UNL     1      64.655   8.175   5.627  1.00  0.00     0.123 A 
HETATM    5  C   UNL     1      64.957   6.167   6.948  1.00  0.00     0.045 A 
HETATM    6  C   UNL     1      64.180   6.930   6.076  1.00  0.00     0.078 A 
HETATM    7  C   UNL     1      66.571   7.907   6.925  1.00  0.00     0.106 A 
HETATM    8 CL   UNL     1      62.670   6.283   5.539  1.00  0.00    -0.080 Cl
ENDROOT
BRANCH   4   9
HETATM    9  N   UNL     1      63.941   8.890   4.670  1.00  0.00    -0.375 N 
HETATM   10  H   UNL     1      64.018   8.649   3.719  1.00  0.00     0.161 HD
BRANCH   9  11
HETATM   11  C   UNL     1      63.079   9.991   5.069  1.00  0.00     0.123 C 
BRANCH  11  12
HETATM   12  C   UNL     1      62.081  10.394   3.988  1.00  0.00     0.047 C 
BRANCH  12  13
HETATM   13  C   UNL     1      61.326   9.207   3.400  1.00  0.00     0.231 C 
BRANCH  13  14
HETATM   14  N   UNL     1      61.017   9.465   1.994  1.00  0.00    -0.079 N 
HETATM   15  H   UNL     1      60.132   9.968   1.926  1.00  0.00     0.274 HD
HETATM   16  H   UNL     1      60.941   8.579   1.495  1.00  0.00     0.274 HD
HETATM   17  H   UNL     1      61.759  10.026   1.579  1.00  0.00     0.274 HD
ENDBRANCH  13  14
ENDBRANCH  12  13
ENDBRANCH  11  12
ENDBRANCH   9  11
ENDBRANCH   4   9
BRANCH   1  18
HETATM   18  C   UNL     1      67.086   5.889   8.302  1.00  0.00     0.418 C 
HETATM   19  F   UNL     1      68.071   5.208   7.653  1.00  0.00    -0.166 F 
HETATM   20  F   UNL     1      66.411   4.962   9.033  1.00  0.00    -0.166 F 
HETATM   21  F   UNL     1      67.717   6.690   9.202  1.00  0.00    -0.166 F 
ENDBRANCH   1  18
TORSDOF 6
ENDMDL
MODEL 6
REMARK VINA RESULT:      -4.2      2.088      2.676
REMARK  6 active torsions:
REMARK  status: ('A' for Active; 'I' for Inactive)
REMARK    1  A    between atoms: C_1  and  C_2 
REMARK    2  A    between atoms: C_5  and  N_12 
REMARK    3  A    between atoms: N_12  and  C_16 
REMARK    4  A    between atoms: N_14  and  C_17 
REMARK    5  A    between atoms: C_15  and  C_16 
REMARK    6  A    between atoms: C_15  and  C_17 
ROOT
HETATM    1  C   UNL     1      63.262   8.943   4.070  1.00  0.00     0.065 A 
HETATM    2  N   UNL     1      64.249   6.828   3.422  1.00  0.00    -0.350 N 
ATOM      3  HN  UNL     1      64.239   6.010   2.813  1.00  0.00     0.166 HD
HETATM    4  C   UNL     1      65.207   6.974   4.367  1.00  0.00     0.123 A 
HETATM    5  C   UNL     1      64.242   9.088   5.055  1.00  0.00     0.045 A 
HETATM    6  C   UNL     1      65.212   8.097   5.214  1.00  0.00     0.078 A 
HETATM    7  C   UNL     1      63.304   7.792   3.301  1.00  0.00     0.106 A 
HETATM    8 CL   UNL     1      66.423   8.319   6.428  1.00  0.00    -0.080 Cl
ENDROOT
BRANCH   4   9
HETATM    9  N   UNL     1      66.235   6.040   4.444  1.00  0.00    -0.375 N 
HETATM   10  H   UNL     1      67.037   6.146   3.882  1.00  0.00     0.161 HD
BRANCH   9  11
HETATM   11  C   UNL     1      66.131   4.908   5.350  1.00  0.00     0.123 C 
BRANCH  11  12
HETATM   12  C   UNL     1      67.441   4.590   6.067  1.00  0.00     0.047 C 
BRANCH  12  13
HETATM   13  C   UNL     1      67.442   5.025   7.528  1.00  0.00     0.231 C 
BRANCH  13  14
HETATM   14  N   UNL     1      66.430   4.272   8.268  1.00  0.00    -0.079 N 
HETATM   15  H   UNL     1      66.885   3.561   8.840  1.00  0.00     0.274 HD
HETATM   16  H   UNL     1      65.793   3.821   7.611  1.00  0.00     0.274 HD
HETATM   17  H   UNL     1      65.904   4.907   8.869  1.00  0.00     0.274 HD
ENDBRANCH  13  14
ENDBRANCH  12  13
ENDBRANCH  11  12
ENDBRANCH   9  11
ENDBRANCH   4   9
BRANCH   1  18
HETATM   18  C   UNL     1      62.204   9.972   3.827  1.00  0.00     0.418 C 
HETATM   19  F   UNL     1      60.938   9.473   3.886  1.00  0.00    -0.166 F 
HETATM   20  F   UNL     1      62.318  10.555   2.603  1.00  0.00    -0.166 F 
HETATM   21  F   UNL     1      62.249  10.985   4.732  1.00  0.00    -0.166 F 
ENDBRANCH   1  18
TORSDOF 6
ENDMDL
MODEL 7
REMARK VINA RESULT:      -4.0      4.196      6.609
REMARK  6 active torsions:
REMARK  status: ('A' for Active; 'I' for Inactive)
REMARK    1  A    between atoms: C_1  and  C_2 
REMARK    2  A    between atoms: C_5  and  N_12 
REMARK    3  A    between atoms: N_12  and  C_16 
REMARK    4  A    between atoms: N_14  and  C_17 
REMARK    5  A    between atoms: C_15  and  C_16 
REMARK    6  A    between atoms: C_15  and  C_17 
ROOT
HETATM    1  C   UNL     1      65.204   7.871   5.347  1.00  0.00     0.065 A 
HETATM    2  N   UNL     1      63.322   6.538   4.607  1.00  0.00    -0.350 N 
ATOM      3  HN  UNL     1      62.918   5.617   4.436  1.00  0.00     0.166 HD
HETATM    4  C   UNL     1      62.602   7.662   4.382  1.00  0.00     0.123 A 
HETATM    5  C   UNL     1      64.466   9.031   5.103  1.00  0.00     0.045 A 
HETATM    6  C   UNL     1      63.165   8.931   4.608  1.00  0.00     0.078 A 
HETATM    7  C   UNL     1      64.592   6.661   5.066  1.00  0.00     0.106 A 
HETATM    8 CL   UNL     1      62.274  10.386   4.338  1.00  0.00    -0.080 Cl
ENDROOT
BRANCH   4   9
HETATM    9  N   UNL     1      61.269   7.550   3.999  1.00  0.00    -0.375 N 
HETATM   10  H   UNL     1      60.555   7.786   4.633  1.00  0.00     0.161 HD
BRANCH   9  11
HETATM   11  C   UNL     1      60.927   7.087   2.664  1.00  0.00     0.123 C 
BRANCH  11  12
HETATM   12  C   UNL     1      61.068   8.170   1.598  1.00  0.00     0.047 C 
BRANCH  12  13
HETATM   13  C   UNL     1      59.919   8.174   0.596  1.00  0.00     0.231 C 
BRANCH  13  14
HETATM   14  N   UNL     1      58.643   8.108   1.306  1.00  0.00    -0.079 N 
HETATM   15  H   UNL     1      58.774   8.409   2.272  1.00  0.00     0.274 HD
HETATM   16  H   UNL     1      58.297   7.148   1.294  1.00  0.00     0.274 HD
HETATM   17  H   UNL     1      57.966   8.718   0.849  1.00  0.00     0.274 HD
ENDBRANCH  13  14
ENDBRANCH  12  13
ENDBRANCH  11  12
ENDBRANCH   9  11
ENDBRANCH   4   9
BRANCH   1  18
HETATM   18  C   UNL     1      66.595   7.899   5.896  1.00  0.00     0.418 C 
HETATM   19  F   UNL     1      66.989   6.713   6.439  1.00  0.00    -0.166 F 
HETATM   20  F   UNL     1      66.749   8.828   6.878  1.00  0.00    -0.166 F 
HETATM   21  F   UNL     1      67.521   8.200   4.947  1.00  0.00    -0.166 F 
ENDBRANCH   1  18
TORSDOF 6
ENDMDL
MODEL 8
REMARK VINA RESULT:      -3.9      6.574      7.877
REMARK  6 active torsions:
REMARK  status: ('A' for Active; 'I' for Inactive)
REMARK    1  A    between atoms: C_1  and  C_2 
REMARK    2  A    between atoms: C_5  and  N_12 
REMARK    3  A    between atoms: N_12  and  C_16 
REMARK    4  A    between atoms: N_14  and  C_17 
REMARK    5  A    between atoms: C_15  and  C_16 
REMARK    6  A    between atoms: C_15  and  C_17 
ROOT
HETATM    1  C   UNL     1      57.683   6.895   5.505  1.00  0.00     0.065 A 
HETATM    2  N   UNL     1      58.431   7.806   3.388  1.00  0.00    -0.350 N 
ATOM      3  HN  UNL     1      58.254   8.412   2.587  1.00  0.00     0.166 HD
HETATM    4  C   UNL     1      59.590   7.115   3.489  1.00  0.00     0.123 A 
HETATM    5  C   UNL     1      58.874   6.172   5.603  1.00  0.00     0.045 A 
HETATM    6  C   UNL     1      59.827   6.271   4.589  1.00  0.00     0.078 A 
HETATM    7  C   UNL     1      57.510   7.676   4.374  1.00  0.00     0.106 A 
HETATM    8 CL   UNL     1      61.299   5.379   4.754  1.00  0.00    -0.080 Cl
ENDROOT
BRANCH   4   9
HETATM    9  N   UNL     1      60.583   7.307   2.533  1.00  0.00    -0.375 N 
HETATM   10  H   UNL     1      60.908   6.543   2.004  1.00  0.00     0.161 HD
BRANCH   9  11
HETATM   11  C   UNL     1      61.140   8.631   2.310  1.00  0.00     0.123 C 
BRANCH  11  12
HETATM   12  C   UNL     1      61.975   9.136   3.484  1.00  0.00     0.047 C 
BRANCH  12  13
HETATM   13  C   UNL     1      61.965  10.655   3.613  1.00  0.00     0.231 C 
BRANCH  13  14
HETATM   14  N   UNL     1      61.516  11.255   2.357  1.00  0.00    -0.079 N 
HETATM   15  H   UNL     1      61.500  12.271   2.452  1.00  0.00     0.274 HD
HETATM   16  H   UNL     1      60.579  10.920   2.136  1.00  0.00     0.274 HD
HETATM   17  H   UNL     1      62.156  10.994   1.607  1.00  0.00     0.274 HD
ENDBRANCH  13  14
ENDBRANCH  12  13
ENDBRANCH  11  12
ENDBRANCH   9  11
ENDBRANCH   4   9
BRANCH   1  18
HETATM   18  C   UNL     1      56.624   6.857   6.561  1.00  0.00     0.418 C 
HETATM   19  F   UNL     1      55.363   6.740   6.061  1.00  0.00    -0.166 F 
HETATM   20  F   UNL     1      56.618   7.977   7.332  1.00  0.00    -0.166 F 
HETATM   21  F   UNL     1      56.785   5.812   7.416  1.00  0.00    -0.166 F 
ENDBRANCH   1  18
TORSDOF 6
ENDMDL
MODEL 9
REMARK VINA RESULT:      -3.8      3.972      6.286
REMARK  6 active torsions:
REMARK  status: ('A' for Active; 'I' for Inactive)
REMARK    1  A    between atoms: C_1  and  C_2 
REMARK    2  A    between atoms: C_5  and  N_12 
REMARK    3  A    between atoms: N_12  and  C_16 
REMARK    4  A    between atoms: N_14  and  C_17 
REMARK    5  A    between atoms: C_15  and  C_16 
REMARK    6  A    between atoms: C_15  and  C_17 
ROOT
HETATM    1  C   UNL     1      64.116   7.438   5.593  1.00  0.00     0.065 A 
HETATM    2  N   UNL     1      63.485   9.493   4.477  1.00  0.00    -0.350 N 
ATOM      3  HN  UNL     1      63.730  10.439   4.184  1.00  0.00     0.166 HD
HETATM    4  C   UNL     1      62.275   8.967   4.171  1.00  0.00     0.123 A 
HETATM    5  C   UNL     1      62.863   6.900   5.289  1.00  0.00     0.045 A 
HETATM    6  C   UNL     1      61.934   7.668   4.586  1.00  0.00     0.078 A 
HETATM    7  C   UNL     1      64.363   8.737   5.180  1.00  0.00     0.106 A 
HETATM    8 CL   UNL     1      60.402   6.962   4.209  1.00  0.00    -0.080 Cl
ENDROOT
BRANCH   4   9
HETATM    9  N   UNL     1      61.399   9.696   3.373  1.00  0.00    -0.375 N 
HETATM   10  H   UNL     1      60.562  10.044   3.755  1.00  0.00     0.161 HD
BRANCH   9  11
HETATM   11  C   UNL     1      61.714   9.945   1.976  1.00  0.00     0.123 C 
BRANCH  11  12
HETATM   12  C   UNL     1      61.205   8.850   1.041  1.00  0.00     0.047 C 
BRANCH  12  13
HETATM   13  C   UNL     1      62.328   8.105   0.329  1.00  0.00     0.231 C 
BRANCH  13  14
HETATM   14  N   UNL     1      62.727   6.940   1.118  1.00  0.00    -0.079 N 
HETATM   15  H   UNL     1      62.300   6.101   0.727  1.00  0.00     0.274 HD
HETATM   16  H   UNL     1      62.416   7.061   2.083  1.00  0.00     0.274 HD
HETATM   17  H   UNL     1      63.742   6.846   1.098  1.00  0.00     0.274 HD
ENDBRANCH  13  14
ENDBRANCH  12  13
ENDBRANCH  11  12
ENDBRANCH   9  11
ENDBRANCH   4   9
BRANCH   1  18
HETATM   18  C   UNL     1      65.170   6.670   6.324  1.00  0.00     0.418 C 
HETATM   19  F   UNL     1      66.439   7.035   5.989  1.00  0.00    -0.166 F 
HETATM   20  F   UNL     1      65.094   5.332   6.091  1.00  0.00    -0.166 F 
HETATM   21  F   UNL     1      65.081   6.822   7.672  1.00  0.00    -0.166 F 
ENDBRANCH   1  18
TORSDOF 6
ENDMDL
