MODEL 1
REMARK VINA RESULT:      -5.7      0.000      0.000
REMARK  2 active torsions:
REMARK  status: ('A' for Active; 'I' for Inactive)
REMARK    1  A    between atoms: C_1  and  C_2 
REMARK    2  A    between atoms: C_3  and  N_6 
ROOT
HETATM    1  C   UNL     1      63.135   8.889   3.950  1.00  0.00     0.063 A 
HETATM    2  C   UNL     1      65.149   7.565   5.367  1.00  0.00     0.102 A 
HETATM    3  N   UNL     1      64.697   8.770   5.784  1.00  0.00    -0.352 N 
ATOM      4  HN  UNL     1      65.090   9.202   6.620  1.00  0.00     0.166 HD
HETATM    5  C   UNL     1      63.724   9.400   5.091  1.00  0.00     0.106 A 
HETATM    6  C   UNL     1      63.584   7.643   3.517  1.00  0.00     0.021 A 
HETATM    7  C   UNL     1      64.595   6.987   4.225  1.00  0.00     0.049 A 
ENDROOT
BRANCH   2   8
HETATM    8  N   UNL     1      66.202   6.976   6.051  1.00  0.00    -0.366 N 
HETATM    9  C   UNL     1      66.669   7.519   7.324  1.00  0.00     0.126 C 
HETATM   10  C   UNL     1      66.478   6.519   8.459  1.00  0.00     0.047 C 
HETATM   11  C   UNL     1      66.952   5.084   8.206  1.00  0.00     0.234 C 
HETATM   12  N   UNL     1      68.045   4.898   7.254  1.00  0.00    -0.074 N 
HETATM   13  C   UNL     1      67.551   4.894   5.864  1.00  0.00     0.252 C 
HETATM   14  H   UNL     1      68.716   5.658   7.366  1.00  0.00     0.277 HD
HETATM   15  H   UNL     1      68.486   3.998   7.442  1.00  0.00     0.277 HD
HETATM   16  C   UNL     1      67.222   6.273   5.256  1.00  0.00     0.152 C 
ENDBRANCH   2   8
BRANCH   1  17
HETATM   17  C   UNL     1      62.087   9.661   3.217  1.00  0.00     0.418 C 
HETATM   18  F   UNL     1      62.074  10.990   3.518  1.00  0.00    -0.166 F 
HETATM   19  F   UNL     1      60.829   9.210   3.475  1.00  0.00    -0.166 F 
HETATM   20  F   UNL     1      62.238   9.589   1.865  1.00  0.00    -0.166 F 
ENDBRANCH   1  17
TORSDOF 2
ENDMDL
MODEL 2
REMARK VINA RESULT:      -5.4      3.924      6.518
REMARK  2 active torsions:
REMARK  status: ('A' for Active; 'I' for Inactive)
REMARK    1  A    between atoms: C_1  and  C_2 
REMARK    2  A    between atoms: C_3  and  N_6 
ROOT
HETATM    1  C   UNL     1      65.343   7.176   6.462  1.00  0.00     0.063 A 
HETATM    2  C   UNL     1      63.213   8.074   4.889  1.00  0.00     0.102 A 
HETATM    3  N   UNL     1      63.030   7.077   5.785  1.00  0.00    -0.352 N 
ATOM      4  HN  UNL     1      62.111   6.648   5.891  1.00  0.00     0.166 HD
HETATM    5  C   UNL     1      64.067   6.652   6.539  1.00  0.00     0.106 A 
HETATM    6  C   UNL     1      65.541   8.212   5.551  1.00  0.00     0.021 A 
HETATM    7  C   UNL     1      64.475   8.654   4.763  1.00  0.00     0.049 A 
ENDROOT
BRANCH   2   8
HETATM    8  N   UNL     1      62.152   8.438   4.073  1.00  0.00    -0.366 N 
HETATM    9  C   UNL     1      61.845   9.844   3.823  1.00  0.00     0.126 C 
HETATM   10  C   UNL     1      62.003  10.194   2.347  1.00  0.00     0.047 C 
HETATM   11  C   UNL     1      61.350   9.245   1.336  1.00  0.00     0.234 C 
HETATM   12  N   UNL     1      60.176   8.497   1.780  1.00  0.00    -0.074 N 
HETATM   13  C   UNL     1      60.564   7.293   2.539  1.00  0.00     0.252 C 
HETATM   14  H   UNL     1      59.607   9.096   2.378  1.00  0.00     0.277 HD
HETATM   15  H   UNL     1      59.650   8.204   0.958  1.00  0.00     0.277 HD
HETATM   16  C   UNL     1      61.003   7.521   4.000  1.00  0.00     0.152 C 
ENDBRANCH   2   8
BRANCH   1  17
HETATM   17  C   UNL     1      66.448   6.630   7.306  1.00  0.00     0.418 C 
HETATM   18  F   UNL     1      66.093   5.533   8.031  1.00  0.00    -0.166 F 
HETATM   19  F   UNL     1      66.914   7.536   8.208  1.00  0.00    -0.166 F 
HETATM   20  F   UNL     1      67.528   6.251   6.567  1.00  0.00    -0.166 F 
ENDBRANCH   1  17
TORSDOF 2
ENDMDL
MODEL 3
REMARK VINA RESULT:      -5.1      1.363      1.811
REMARK  2 active torsions:
REMARK  status: ('A' for Active; 'I' for Inactive)
REMARK    1  A    between atoms: C_1  and  C_2 
REMARK    2  A    between atoms: C_3  and  N_6 
ROOT
HETATM    1  C   UNL     1      62.783   8.607   2.787  1.00  0.00     0.063 A 
HETATM    2  C   UNL     1      64.361   7.185   4.605  1.00  0.00     0.102 A 
HETATM    3  N   UNL     1      63.941   8.437   4.896  1.00  0.00    -0.352 N 
ATOM      4  HN  UNL     1      64.199   8.869   5.783  1.00  0.00     0.166 HD
HETATM    5  C   UNL     1      63.180   9.115   4.010  1.00  0.00     0.106 A 
HETATM    6  C   UNL     1      63.199   7.314   2.481  1.00  0.00     0.021 A 
HETATM    7  C   UNL     1      63.992   6.608   3.390  1.00  0.00     0.049 A 
ENDROOT
BRANCH   2   8
HETATM    8  N   UNL     1      65.206   6.541   5.498  1.00  0.00    -0.366 N 
HETATM    9  C   UNL     1      66.528   7.081   5.803  1.00  0.00     0.126 C 
HETATM   10  C   UNL     1      66.646   7.466   7.274  1.00  0.00     0.047 C 
HETATM   11  C   UNL     1      66.164   6.435   8.301  1.00  0.00     0.234 C 
HETATM   12  N   UNL     1      66.220   5.027   7.914  1.00  0.00    -0.074 N 
HETATM   13  C   UNL     1      65.049   4.647   7.102  1.00  0.00     0.252 C 
HETATM   14  H   UNL     1      67.068   4.866   7.370  1.00  0.00     0.277 HD
HETATM   15  H   UNL     1      66.223   4.460   8.762  1.00  0.00     0.277 HD
HETATM   16  C   UNL     1      65.079   5.080   5.622  1.00  0.00     0.152 C 
ENDBRANCH   2   8
BRANCH   1  17
HETATM   17  C   UNL     1      61.968   9.431   1.844  1.00  0.00     0.418 C 
HETATM   18  F   UNL     1      62.469   9.470   0.578  1.00  0.00    -0.166 F 
HETATM   19  F   UNL     1      61.860  10.728   2.241  1.00  0.00    -0.166 F 
HETATM   20  F   UNL     1      60.692   8.970   1.723  1.00  0.00    -0.166 F 
ENDBRANCH   1  17
TORSDOF 2
ENDMDL
MODEL 4
REMARK VINA RESULT:      -5.0      3.890      6.585
REMARK  2 active torsions:
REMARK  status: ('A' for Active; 'I' for Inactive)
REMARK    1  A    between atoms: C_1  and  C_2 
REMARK    2  A    between atoms: C_3  and  N_6 
ROOT
HETATM    1  C   UNL     1      65.009   7.221   6.024  1.00  0.00     0.063 A 
HETATM    2  C   UNL     1      62.994   7.925   4.218  1.00  0.00     0.102 A 
HETATM    3  N   UNL     1      64.019   8.772   4.465  1.00  0.00    -0.352 N 
ATOM      4  HN  UNL     1      64.061   9.674   3.992  1.00  0.00     0.166 HD
HETATM    5  C   UNL     1      64.986   8.421   5.340  1.00  0.00     0.106 A 
HETATM    6  C   UNL     1      63.966   6.334   5.769  1.00  0.00     0.021 A 
HETATM    7  C   UNL     1      62.957   6.692   4.869  1.00  0.00     0.049 A 
ENDROOT
BRANCH   2   8
HETATM    8  N   UNL     1      61.974   8.341   3.376  1.00  0.00    -0.366 N 
HETATM    9  C   UNL     1      62.123   9.535   2.548  1.00  0.00     0.126 C 
HETATM   10  C   UNL     1      62.068   9.193   1.063  1.00  0.00     0.047 C 
HETATM   11  C   UNL     1      60.926   8.279   0.604  1.00  0.00     0.234 C 
HETATM   12  N   UNL     1      59.692   8.304   1.387  1.00  0.00    -0.074 N 
HETATM   13  C   UNL     1      59.797   7.440   2.578  1.00  0.00     0.252 C 
HETATM   14  H   UNL     1      59.508   9.261   1.686  1.00  0.00     0.277 HD
HETATM   15  H   UNL     1      58.932   7.957   0.802  1.00  0.00     0.277 HD
HETATM   16  C   UNL     1      60.593   8.016   3.767  1.00  0.00     0.152 C 
ENDBRANCH   2   8
BRANCH   1  17
HETATM   17  C   UNL     1      66.097   6.917   7.002  1.00  0.00     0.418 C 
HETATM   18  F   UNL     1      66.900   7.982   7.277  1.00  0.00    -0.166 F 
HETATM   19  F   UNL     1      66.926   5.927   6.572  1.00  0.00    -0.166 F 
HETATM   20  F   UNL     1      65.612   6.500   8.205  1.00  0.00    -0.166 F 
ENDBRANCH   1  17
TORSDOF 2
ENDMDL
MODEL 5
REMARK VINA RESULT:      -4.8      4.134      6.511
REMARK  2 active torsions:
REMARK  status: ('A' for Active; 'I' for Inactive)
REMARK    1  A    between atoms: C_1  and  C_2 
REMARK    2  A    between atoms: C_3  and  N_6 
ROOT
HETATM    1  C   UNL     1      65.896   6.652   7.287  1.00  0.00     0.063 A 
HETATM    2  C   UNL     1      64.251   7.708   5.288  1.00  0.00     0.102 A 
HETATM    3  N   UNL     1      63.824   6.677   6.052  1.00  0.00    -0.352 N 
ATOM      4  HN  UNL     1      62.897   6.280   5.902  1.00  0.00     0.166 HD
HETATM    5  C   UNL     1      64.628   6.175   7.015  1.00  0.00     0.106 A 
HETATM    6  C   UNL     1      66.342   7.722   6.516  1.00  0.00     0.021 A 
HETATM    7  C   UNL     1      65.519   8.244   5.513  1.00  0.00     0.049 A 
ENDROOT
BRANCH   2   8
HETATM    8  N   UNL     1      63.438   8.154   4.256  1.00  0.00    -0.366 N 
HETATM    9  C   UNL     1      63.353   7.419   2.997  1.00  0.00     0.126 C 
HETATM   10  C   UNL     1      61.941   6.895   2.753  1.00  0.00     0.047 C 
HETATM   11  C   UNL     1      60.790   7.886   2.953  1.00  0.00     0.234 C 
HETATM   12  N   UNL     1      61.081   9.303   2.744  1.00  0.00    -0.074 N 
HETATM   13  C   UNL     1      61.700   9.904   3.940  1.00  0.00     0.252 C 
HETATM   14  H   UNL     1      61.722   9.397   1.956  1.00  0.00     0.277 HD
HETATM   15  H   UNL     1      60.205   9.788   2.555  1.00  0.00     0.277 HD
HETATM   16  C   UNL     1      63.197   9.602   4.157  1.00  0.00     0.152 C 
ENDBRANCH   2   8
BRANCH   1  17
HETATM   17  C   UNL     1      66.740   6.023   8.347  1.00  0.00     0.418 C 
HETATM   18  F   UNL     1      66.508   6.514   9.597  1.00  0.00    -0.166 F 
HETATM   19  F   UNL     1      68.072   6.190   8.124  1.00  0.00    -0.166 F 
HETATM   20  F   UNL     1      66.543   4.678   8.437  1.00  0.00    -0.166 F 
ENDBRANCH   1  17
TORSDOF 2
ENDMDL
MODEL 6
REMARK VINA RESULT:      -4.4      2.437      3.036
REMARK  2 active torsions:
REMARK  status: ('A' for Active; 'I' for Inactive)
REMARK    1  A    between atoms: C_1  and  C_2 
REMARK    2  A    between atoms: C_3  and  N_6 
ROOT
HETATM    1  C   UNL     1      61.084   6.797   4.808  1.00  0.00     0.063 A 
HETATM    2  C   UNL     1      63.754   6.968   5.619  1.00  0.00     0.102 A 
HETATM    3  N   UNL     1      62.871   6.224   6.323  1.00  0.00    -0.352 N 
ATOM      4  HN  UNL     1      63.177   5.720   7.155  1.00  0.00     0.166 HD
HETATM    5  C   UNL     1      61.584   6.149   5.921  1.00  0.00     0.106 A 
HETATM    6  C   UNL     1      61.987   7.557   4.068  1.00  0.00     0.021 A 
HETATM    7  C   UNL     1      63.320   7.645   4.479  1.00  0.00     0.049 A 
ENDROOT
BRANCH   2   8
HETATM    8  N   UNL     1      65.051   7.091   6.096  1.00  0.00    -0.366 N 
HETATM    9  C   UNL     1      65.418   6.581   7.414  1.00  0.00     0.126 C 
HETATM   10  C   UNL     1      66.460   5.472   7.311  1.00  0.00     0.047 C 
HETATM   11  C   UNL     1      67.670   5.739   6.410  1.00  0.00     0.234 C 
HETATM   12  N   UNL     1      68.075   7.131   6.227  1.00  0.00    -0.074 N 
HETATM   13  C   UNL     1      67.259   7.795   5.193  1.00  0.00     0.252 C 
HETATM   14  H   UNL     1      67.960   7.629   7.110  1.00  0.00     0.277 HD
HETATM   15  H   UNL     1      69.050   7.147   5.928  1.00  0.00     0.277 HD
HETATM   16  C   UNL     1      65.845   8.237   5.622  1.00  0.00     0.152 C 
ENDBRANCH   2   8
BRANCH   1  17
HETATM   17  C   UNL     1      59.638   6.693   4.445  1.00  0.00     0.418 C 
HETATM   18  F   UNL     1      58.829   6.394   5.500  1.00  0.00    -0.166 F 
HETATM   19  F   UNL     1      59.401   5.733   3.511  1.00  0.00    -0.166 F 
HETATM   20  F   UNL     1      59.150   7.852   3.921  1.00  0.00    -0.166 F 
ENDBRANCH   1  17
TORSDOF 2
ENDMDL
MODEL 7
REMARK VINA RESULT:      -4.2      5.727      7.597
REMARK  2 active torsions:
REMARK  status: ('A' for Active; 'I' for Inactive)
REMARK    1  A    between atoms: C_1  and  C_2 
REMARK    2  A    between atoms: C_3  and  N_6 
ROOT
HETATM    1  C   UNL     1      57.329   6.767   6.160  1.00  0.00     0.063 A 
HETATM    2  C   UNL     1      59.190   6.952   4.081  1.00  0.00     0.102 A 
HETATM    3  N   UNL     1      59.450   6.189   5.167  1.00  0.00    -0.352 N 
ATOM      4  HN  UNL     1      60.329   5.676   5.232  1.00  0.00     0.166 HD
HETATM    5  C   UNL     1      58.544   6.108   6.165  1.00  0.00     0.106 A 
HETATM    6  C   UNL     1      57.044   7.546   5.041  1.00  0.00     0.021 A 
HETATM    7  C   UNL     1      57.979   7.641   4.006  1.00  0.00     0.049 A 
ENDROOT
BRANCH   2   8
HETATM    8  N   UNL     1      60.169   7.081   3.107  1.00  0.00    -0.366 N 
HETATM    9  C   UNL     1      59.850   6.903   1.693  1.00  0.00     0.126 C 
HETATM   10  C   UNL     1      60.086   8.186   0.903  1.00  0.00     0.047 C 
HETATM   11  C   UNL     1      61.418   8.907   1.135  1.00  0.00     0.234 C 
HETATM   12  N   UNL     1      62.558   8.093   1.548  1.00  0.00    -0.074 N 
HETATM   13  C   UNL     1      62.536   7.837   3.001  1.00  0.00     0.252 C 
HETATM   14  H   UNL     1      62.525   7.201   1.054  1.00  0.00     0.277 HD
HETATM   15  H   UNL     1      63.414   8.598   1.322  1.00  0.00     0.277 HD
HETATM   16  C   UNL     1      61.553   6.752   3.486  1.00  0.00     0.152 C 
ENDBRANCH   2   8
BRANCH   1  17
HETATM   17  C   UNL     1      56.391   6.655   7.317  1.00  0.00     0.418 C 
HETATM   18  F   UNL     1      56.399   5.429   7.912  1.00  0.00    -0.166 F 
HETATM   19  F   UNL     1      55.097   6.889   6.967  1.00  0.00    -0.166 F 
HETATM   20  F   UNL     1      56.677   7.547   8.306  1.00  0.00    -0.166 F 
ENDBRANCH   1  17
TORSDOF 2
ENDMDL
MODEL 8
REMARK VINA RESULT:      -4.2     10.090     11.338
REMARK  2 active torsions:
REMARK  status: ('A' for Active; 'I' for Inactive)
REMARK    1  A    between atoms: C_1  and  C_2 
REMARK    2  A    between atoms: C_3  and  N_6 
ROOT
HETATM    1  C   UNL     1      58.402   1.226  12.854  1.00  0.00     0.063 A 
HETATM    2  C   UNL     1      58.689   2.436  10.350  1.00  0.00     0.102 A 
HETATM    3  N   UNL     1      59.399   1.328  10.661  1.00  0.00    -0.352 N 
ATOM      4  HN  UNL     1      60.044   0.927   9.980  1.00  0.00     0.166 HD
HETATM    5  C   UNL     1      59.252   0.752  11.873  1.00  0.00     0.106 A 
HETATM    6  C   UNL     1      57.656   2.359  12.542  1.00  0.00     0.021 A 
HETATM    7  C   UNL     1      57.806   2.965  11.291  1.00  0.00     0.049 A 
ENDROOT
BRANCH   2   8
HETATM    8  N   UNL     1      58.915   3.052   9.128  1.00  0.00    -0.366 N 
HETATM    9  C   UNL     1      57.916   3.936   8.536  1.00  0.00     0.126 C 
HETATM   10  C   UNL     1      58.443   5.361   8.398  1.00  0.00     0.047 C 
HETATM   11  C   UNL     1      59.837   5.527   7.782  1.00  0.00     0.234 C 
HETATM   12  N   UNL     1      60.283   4.497   6.847  1.00  0.00    -0.074 N 
HETATM   13  C   UNL     1      60.826   3.325   7.559  1.00  0.00     0.252 C 
HETATM   14  H   UNL     1      59.490   4.201   6.277  1.00  0.00     0.277 HD
HETATM   15  H   UNL     1      61.020   4.890   6.262  1.00  0.00     0.277 HD
HETATM   16  C   UNL     1      59.789   2.359   8.168  1.00  0.00     0.152 C 
ENDBRANCH   2   8
BRANCH   1  17
HETATM   17  C   UNL     1      58.319   0.554  14.186  1.00  0.00     0.418 C 
HETATM   18  F   UNL     1      59.059  -0.587  14.272  1.00  0.00    -0.166 F 
HETATM   19  F   UNL     1      57.047   0.196  14.513  1.00  0.00    -0.166 F 
HETATM   20  F   UNL     1      58.753   1.354  15.200  1.00  0.00    -0.166 F 
ENDBRANCH   1  17
TORSDOF 2
ENDMDL
MODEL 9
REMARK VINA RESULT:      -4.1      1.817      2.395
REMARK  2 active torsions:
REMARK  status: ('A' for Active; 'I' for Inactive)
REMARK    1  A    between atoms: C_1  and  C_2 
REMARK    2  A    between atoms: C_3  and  N_6 
ROOT
HETATM    1  C   UNL     1      62.989   8.262   3.170  1.00  0.00     0.063 A 
HETATM    2  C   UNL     1      65.041   6.414   3.609  1.00  0.00     0.102 A 
HETATM    3  N   UNL     1      64.932   7.515   4.387  1.00  0.00    -0.352 N 
ATOM      4  HN  UNL     1      65.601   7.675   5.141  1.00  0.00     0.166 HD
HETATM    5  C   UNL     1      63.937   8.400   4.165  1.00  0.00     0.106 A 
HETATM    6  C   UNL     1      63.083   7.126   2.369  1.00  0.00     0.021 A 
HETATM    7  C   UNL     1      64.113   6.207   2.588  1.00  0.00     0.049 A 
ENDROOT
BRANCH   2   8
HETATM    8  N   UNL     1      66.117   5.561   3.807  1.00  0.00    -0.366 N 
HETATM    9  C   UNL     1      67.174   5.895   4.757  1.00  0.00     0.126 C 
HETATM   10  C   UNL     1      67.243   4.879   5.893  1.00  0.00     0.047 C 
HETATM   11  C   UNL     1      67.230   3.398   5.500  1.00  0.00     0.234 C 
HETATM   12  N   UNL     1      67.763   3.049   4.184  1.00  0.00    -0.074 N 
HETATM   13  C   UNL     1      66.756   3.256   3.127  1.00  0.00     0.252 C 
HETATM   14  H   UNL     1      68.574   3.636   3.989  1.00  0.00     0.277 HD
HETATM   15  H   UNL     1      68.024   2.063   4.193  1.00  0.00     0.277 HD
HETATM   16  C   UNL     1      66.531   4.714   2.677  1.00  0.00     0.152 C 
ENDBRANCH   2   8
BRANCH   1  17
HETATM   17  C   UNL     1      61.936   9.302   2.964  1.00  0.00     0.418 C 
HETATM   18  F   UNL     1      60.860   9.163   3.788  1.00  0.00    -0.166 F 
HETATM   19  F   UNL     1      61.436   9.297   1.698  1.00  0.00    -0.166 F 
HETATM   20  F   UNL     1      62.404  10.563   3.175  1.00  0.00    -0.166 F 
ENDBRANCH   1  17
TORSDOF 2
ENDMDL
