MODEL 1
REMARK VINA RESULT:      -5.6      0.000      0.000
REMARK  5 active torsions:
REMARK  status: ('A' for Active; 'I' for Inactive)
REMARK    1  A    between atoms: N_1  and  C_4 
REMARK    2  A    between atoms: C_2  and  C_4 
REMARK    3  A    between atoms: N_3  and  C_11 
REMARK    4  A    between atoms: C_11  and  C_15 
REMARK    5  A    between atoms: O_13  and  C_15 
ROOT
HETATM    1  N   UNL     1      64.188   7.359   4.756  1.00  0.00    -0.064 N 
HETATM    2  N   UNL     1      66.215   6.959   7.002  1.00  0.00    -0.066 N 
HETATM    3  C   UNL     1      64.255   6.130   5.569  1.00  0.00     0.263 C 
HETATM    4  C   UNL     1      65.496   8.033   4.784  1.00  0.00     0.263 C 
HETATM    5  C   UNL     1      64.896   6.284   6.973  1.00  0.00     0.262 C 
HETATM    6  C   UNL     1      66.139   8.186   6.184  1.00  0.00     0.262 C 
HETATM    7  H   UNL     1      63.973   7.091   3.796  1.00  0.00     0.280 HD
HETATM    8  H   UNL     1      66.459   7.250   7.947  1.00  0.00     0.280 HD
ENDROOT
BRANCH   1   9
HETATM    9  C   UNL     1      63.085   8.262   5.164  1.00  0.00     0.276 C 
BRANCH   9  10
HETATM   10  C   UNL     1      62.671   9.202   4.052  1.00  0.00     0.006 A 
HETATM   11  C   UNL     1      62.440  10.555   4.310  1.00  0.00     0.124 A 
HETATM   12  F   UNL     1      62.666  11.054   5.534  1.00  0.00    -0.206 F 
HETATM   13  C   UNL     1      61.946  11.408   3.324  1.00  0.00     0.043 A 
HETATM   14  C   UNL     1      61.688  10.912   2.047  1.00  0.00     0.003 A 
HETATM   15  C   UNL     1      61.961   9.577   1.754  1.00  0.00     0.001 A 
HETATM   16  C   UNL     1      62.460   8.729   2.746  1.00  0.00     0.012 A 
ENDBRANCH   9  10
ENDBRANCH   1   9
BRANCH   2  17
HETATM   17  C   UNL     1      67.288   6.019   6.605  1.00  0.00     0.260 C 
BRANCH  17  18
HETATM   18  C   UNL     1      68.075   5.422   7.786  1.00  0.00     0.192 C 
BRANCH  18  19
HETATM   19  O   UNL     1      68.075   6.323   8.892  1.00  0.00    -0.399 OA
HETATM   20  H   UNL     1      67.738   7.186   8.604  1.00  0.00     0.209 HD
ENDBRANCH  18  19
ENDBRANCH  17  18
ENDBRANCH   2  17
TORSDOF 5
ENDMDL
MODEL 2
REMARK VINA RESULT:      -5.4      1.672      2.316
REMARK  5 active torsions:
REMARK  status: ('A' for Active; 'I' for Inactive)
REMARK    1  A    between atoms: N_1  and  C_4 
REMARK    2  A    between atoms: C_2  and  C_4 
REMARK    3  A    between atoms: N_3  and  C_11 
REMARK    4  A    between atoms: C_11  and  C_15 
REMARK    5  A    between atoms: O_13  and  C_15 
ROOT
HETATM    1  N   UNL     1      64.097   8.087   5.514  1.00  0.00    -0.064 N 
HETATM    2  N   UNL     1      66.263   6.091   6.312  1.00  0.00    -0.066 N 
HETATM    3  C   UNL     1      65.539   8.378   5.404  1.00  0.00     0.263 C 
HETATM    4  C   UNL     1      63.888   7.040   6.526  1.00  0.00     0.263 C 
HETATM    5  C   UNL     1      66.471   7.143   5.290  1.00  0.00     0.262 C 
HETATM    6  C   UNL     1      64.818   5.807   6.416  1.00  0.00     0.262 C 
HETATM    7  H   UNL     1      63.624   8.939   5.814  1.00  0.00     0.280 HD
HETATM    8  H   UNL     1      66.715   5.219   6.040  1.00  0.00     0.280 HD
ENDROOT
BRANCH   1   9
HETATM    9  C   UNL     1      63.479   7.736   4.212  1.00  0.00     0.276 C 
BRANCH   9  10
HETATM   10  C   UNL     1      62.799   8.923   3.562  1.00  0.00     0.006 A 
HETATM   11  C   UNL     1      62.519   8.923   2.193  1.00  0.00     0.124 A 
HETATM   12  F   UNL     1      62.775   7.833   1.455  1.00  0.00    -0.206 F 
HETATM   13  C   UNL     1      62.002  10.052   1.559  1.00  0.00     0.043 A 
HETATM   14  C   UNL     1      61.741  11.203   2.300  1.00  0.00     0.003 A 
HETATM   15  C   UNL     1      61.964  11.206   3.676  1.00  0.00     0.001 A 
HETATM   16  C   UNL     1      62.479  10.071   4.306  1.00  0.00     0.012 A 
ENDBRANCH   9  10
ENDBRANCH   1   9
BRANCH   2  17
HETATM   17  C   UNL     1      66.910   6.472   7.588  1.00  0.00     0.260 C 
BRANCH  17  18
HETATM   18  C   UNL     1      66.391   5.701   8.816  1.00  0.00     0.192 C 
BRANCH  18  19
HETATM   19  O   UNL     1      66.904   4.370   8.822  1.00  0.00    -0.399 OA
HETATM   20  H   UNL     1      67.783   4.361   8.411  1.00  0.00     0.209 HD
ENDBRANCH  18  19
ENDBRANCH  17  18
ENDBRANCH   2  17
TORSDOF 5
ENDMDL
MODEL 3
REMARK VINA RESULT:      -4.9      3.409      6.874
REMARK  5 active torsions:
REMARK  status: ('A' for Active; 'I' for Inactive)
REMARK    1  A    between atoms: N_1  and  C_4 
REMARK    2  A    between atoms: C_2  and  C_4 
REMARK    3  A    between atoms: N_3  and  C_11 
REMARK    4  A    between atoms: C_11  and  C_15 
REMARK    5  A    between atoms: O_13  and  C_15 
ROOT
HETATM    1  N   UNL     1      64.568   7.541   4.943  1.00  0.00    -0.064 N 
HETATM    2  N   UNL     1      62.011   9.000   4.142  1.00  0.00    -0.066 N 
HETATM    3  C   UNL     1      64.394   8.998   5.091  1.00  0.00     0.263 C 
HETATM    4  C   UNL     1      63.657   7.045   3.900  1.00  0.00     0.263 C 
HETATM    5  C   UNL     1      62.928   9.496   5.194  1.00  0.00     0.262 C 
HETATM    6  C   UNL     1      62.193   7.541   4.000  1.00  0.00     0.262 C 
HETATM    7  H   UNL     1      65.530   7.366   4.654  1.00  0.00     0.280 HD
HETATM    8  H   UNL     1      61.037   9.150   4.401  1.00  0.00     0.280 HD
ENDROOT
BRANCH   1   9
HETATM    9  C   UNL     1      64.406   6.809   6.222  1.00  0.00     0.276 C 
BRANCH   9  10
HETATM   10  C   UNL     1      65.730   6.330   6.781  1.00  0.00     0.006 A 
HETATM   11  C   UNL     1      66.414   5.267   6.188  1.00  0.00     0.124 A 
HETATM   12  F   UNL     1      65.944   4.711   5.062  1.00  0.00    -0.206 F 
HETATM   13  C   UNL     1      67.571   4.740   6.760  1.00  0.00     0.043 A 
HETATM   14  C   UNL     1      68.072   5.288   7.939  1.00  0.00     0.003 A 
HETATM   15  C   UNL     1      67.433   6.384   8.519  1.00  0.00     0.001 A 
HETATM   16  C   UNL     1      66.276   6.909   7.939  1.00  0.00     0.012 A 
ENDBRANCH   9  10
ENDBRANCH   1   9
BRANCH   2  17
HETATM   17  C   UNL     1      62.193   9.768   2.889  1.00  0.00     0.260 C 
BRANCH  17  18
HETATM   18  C   UNL     1      61.830  11.260   3.004  1.00  0.00     0.192 C 
BRANCH  18  19
HETATM   19  O   UNL     1      62.139  11.943   1.790  1.00  0.00    -0.399 OA
HETATM   20  H   UNL     1      63.039  12.302   1.842  1.00  0.00     0.209 HD
ENDBRANCH  18  19
ENDBRANCH  17  18
ENDBRANCH   2  17
TORSDOF 5
ENDMDL
MODEL 4
REMARK VINA RESULT:      -4.7      1.457      1.740
REMARK  5 active torsions:
REMARK  status: ('A' for Active; 'I' for Inactive)
REMARK    1  A    between atoms: N_1  and  C_4 
REMARK    2  A    between atoms: C_2  and  C_4 
REMARK    3  A    between atoms: N_3  and  C_11 
REMARK    4  A    between atoms: C_11  and  C_15 
REMARK    5  A    between atoms: O_13  and  C_15 
ROOT
HETATM    1  N   UNL     1      64.268   7.296   4.483  1.00  0.00    -0.064 N 
HETATM    2  N   UNL     1      64.802   4.705   6.005  1.00  0.00    -0.066 N 
HETATM    3  C   UNL     1      64.871   6.105   3.856  1.00  0.00     0.263 C 
HETATM    4  C   UNL     1      64.503   7.254   5.935  1.00  0.00     0.263 C 
HETATM    5  C   UNL     1      64.561   4.749   4.544  1.00  0.00     0.262 C 
HETATM    6  C   UNL     1      64.196   5.902   6.623  1.00  0.00     0.262 C 
HETATM    7  H   UNL     1      64.724   8.122   4.097  1.00  0.00     0.280 HD
HETATM    8  H   UNL     1      64.351   3.895   6.428  1.00  0.00     0.280 HD
ENDROOT
BRANCH   1   9
HETATM    9  C   UNL     1      62.831   7.455   4.155  1.00  0.00     0.276 C 
BRANCH   9  10
HETATM   10  C   UNL     1      62.551   8.745   3.412  1.00  0.00     0.006 A 
HETATM   11  C   UNL     1      62.345   9.939   4.107  1.00  0.00     0.124 A 
HETATM   12  F   UNL     1      62.479   9.971   5.441  1.00  0.00    -0.206 F 
HETATM   13  C   UNL     1      61.971  11.108   3.446  1.00  0.00     0.043 A 
HETATM   14  C   UNL     1      61.810  11.098   2.062  1.00  0.00     0.003 A 
HETATM   15  C   UNL     1      62.061   9.930   1.343  1.00  0.00     0.001 A 
HETATM   16  C   UNL     1      62.440   8.763   2.012  1.00  0.00     0.012 A 
ENDBRANCH   9  10
ENDBRANCH   1   9
BRANCH   2  17
HETATM   17  C   UNL     1      66.244   4.529   6.288  1.00  0.00     0.260 C 
BRANCH  17  18
HETATM   18  C   UNL     1      66.546   3.617   7.492  1.00  0.00     0.192 C 
BRANCH  18  19
HETATM   19  O   UNL     1      66.791   4.397   8.660  1.00  0.00    -0.399 OA
HETATM   20  H   UNL     1      67.394   5.125   8.441  1.00  0.00     0.209 HD
ENDBRANCH  18  19
ENDBRANCH  17  18
ENDBRANCH   2  17
TORSDOF 5
ENDMDL
MODEL 5
REMARK VINA RESULT:      -4.6      1.794      2.464
REMARK  5 active torsions:
REMARK  status: ('A' for Active; 'I' for Inactive)
REMARK    1  A    between atoms: N_1  and  C_4 
REMARK    2  A    between atoms: C_2  and  C_4 
REMARK    3  A    between atoms: N_3  and  C_11 
REMARK    4  A    between atoms: C_11  and  C_15 
REMARK    5  A    between atoms: O_13  and  C_15 
ROOT
HETATM    1  N   UNL     1      65.253   6.124   5.675  1.00  0.00    -0.064 N 
HETATM    2  N   UNL     1      67.543   5.848   7.672  1.00  0.00    -0.066 N 
HETATM    3  C   UNL     1      65.214   6.708   7.029  1.00  0.00     0.263 C 
HETATM    4  C   UNL     1      66.199   4.997   5.658  1.00  0.00     0.263 C 
HETATM    5  C   UNL     1      66.592   6.983   7.686  1.00  0.00     0.262 C 
HETATM    6  C   UNL     1      67.574   5.269   6.314  1.00  0.00     0.262 C 
HETATM    7  H   UNL     1      64.320   5.778   5.453  1.00  0.00     0.280 HD
HETATM    8  H   UNL     1      68.491   6.159   7.881  1.00  0.00     0.280 HD
ENDROOT
BRANCH   1   9
HETATM    9  C   UNL     1      65.557   7.124   4.624  1.00  0.00     0.276 C 
BRANCH   9  10
HETATM   10  C   UNL     1      64.304   7.693   3.992  1.00  0.00     0.006 A 
HETATM   11  C   UNL     1      63.751   8.890   4.453  1.00  0.00     0.124 A 
HETATM   12  F   UNL     1      64.375   9.593   5.408  1.00  0.00    -0.206 F 
HETATM   13  C   UNL     1      62.536   9.364   3.962  1.00  0.00     0.043 A 
HETATM   14  C   UNL     1      61.858   8.644   2.979  1.00  0.00     0.003 A 
HETATM   15  C   UNL     1      62.419   7.474   2.468  1.00  0.00     0.001 A 
HETATM   16  C   UNL     1      63.638   7.006   2.962  1.00  0.00     0.012 A 
ENDBRANCH   9  10
ENDBRANCH   1   9
BRANCH   2  17
HETATM   17  C   UNL     1      67.214   4.882   8.746  1.00  0.00     0.260 C 
BRANCH  17  18
HETATM   18  C   UNL     1      67.996   3.558   8.668  1.00  0.00     0.192 C 
BRANCH  18  19
HETATM   19  O   UNL     1      67.343   2.547   9.434  1.00  0.00    -0.399 OA
HETATM   20  H   UNL     1      67.089   1.815   8.851  1.00  0.00     0.209 HD
ENDBRANCH  18  19
ENDBRANCH  17  18
ENDBRANCH   2  17
TORSDOF 5
ENDMDL
MODEL 6
REMARK VINA RESULT:      -4.5      2.577      3.128
REMARK  5 active torsions:
REMARK  status: ('A' for Active; 'I' for Inactive)
REMARK    1  A    between atoms: N_1  and  C_4 
REMARK    2  A    between atoms: C_2  and  C_4 
REMARK    3  A    between atoms: N_3  and  C_11 
REMARK    4  A    between atoms: C_11  and  C_15 
REMARK    5  A    between atoms: O_13  and  C_15 
ROOT
HETATM    1  N   UNL     1      62.778   7.395   3.823  1.00  0.00    -0.064 N 
HETATM    2  N   UNL     1      64.314   7.671   6.445  1.00  0.00    -0.066 N 
HETATM    3  C   UNL     1      62.489   6.575   5.014  1.00  0.00     0.263 C 
HETATM    4  C   UNL     1      64.165   7.881   3.891  1.00  0.00     0.263 C 
HETATM    5  C   UNL     1      62.916   7.185   6.375  1.00  0.00     0.262 C 
HETATM    6  C   UNL     1      64.595   8.489   5.248  1.00  0.00     0.262 C 
HETATM    7  H   UNL     1      62.672   6.804   2.999  1.00  0.00     0.280 HD
HETATM    8  H   UNL     1      64.454   8.274   7.254  1.00  0.00     0.280 HD
ENDROOT
BRANCH   1   9
HETATM    9  C   UNL     1      61.808   8.501   3.635  1.00  0.00     0.276 C 
BRANCH   9  10
HETATM   10  C   UNL     1      60.665   8.114   2.720  1.00  0.00     0.006 A 
HETATM   11  C   UNL     1      60.730   8.371   1.349  1.00  0.00     0.124 A 
HETATM   12  F   UNL     1      61.845   8.889   0.815  1.00  0.00    -0.206 F 
HETATM   13  C   UNL     1      59.641   8.128   0.513  1.00  0.00     0.043 A 
HETATM   14  C   UNL     1      58.464   7.604   1.045  1.00  0.00     0.003 A 
HETATM   15  C   UNL     1      58.397   7.291   2.402  1.00  0.00     0.001 A 
HETATM   16  C   UNL     1      59.493   7.534   3.233  1.00  0.00     0.012 A 
ENDBRANCH   9  10
ENDBRANCH   1   9
BRANCH   2  17
HETATM   17  C   UNL     1      65.247   6.539   6.650  1.00  0.00     0.260 C 
BRANCH  17  18
HETATM   18  C   UNL     1      66.158   6.685   7.882  1.00  0.00     0.192 C 
BRANCH  18  19
HETATM   19  O   UNL     1      67.104   7.735   7.681  1.00  0.00    -0.399 OA
HETATM   20  H   UNL     1      67.087   8.011   6.752  1.00  0.00     0.209 HD
ENDBRANCH  18  19
ENDBRANCH  17  18
ENDBRANCH   2  17
TORSDOF 5
ENDMDL
MODEL 7
REMARK VINA RESULT:      -4.4      5.122      7.203
REMARK  5 active torsions:
REMARK  status: ('A' for Active; 'I' for Inactive)
REMARK    1  A    between atoms: N_1  and  C_4 
REMARK    2  A    between atoms: C_2  and  C_4 
REMARK    3  A    between atoms: N_3  and  C_11 
REMARK    4  A    between atoms: C_11  and  C_15 
REMARK    5  A    between atoms: O_13  and  C_15 
ROOT
HETATM    1  N   UNL     1      60.170   8.582   1.782  1.00  0.00    -0.064 N 
HETATM    2  N   UNL     1      59.620   5.621   1.289  1.00  0.00    -0.066 N 
HETATM    3  C   UNL     1      59.917   7.619   2.870  1.00  0.00     0.263 C 
HETATM    4  C   UNL     1      59.576   8.074   0.535  1.00  0.00     0.263 C 
HETATM    5  C   UNL     1      60.221   6.134   2.543  1.00  0.00     0.262 C 
HETATM    6  C   UNL     1      59.877   6.592   0.206  1.00  0.00     0.262 C 
HETATM    7  H   UNL     1      59.721   9.464   2.029  1.00  0.00     0.280 HD
HETATM    8  H   UNL     1      60.053   4.743   1.006  1.00  0.00     0.280 HD
ENDROOT
BRANCH   1   9
HETATM    9  C   UNL     1      61.607   8.909   1.623  1.00  0.00     0.276 C 
BRANCH   9  10
HETATM   10  C   UNL     1      62.206   9.494   2.885  1.00  0.00     0.006 A 
HETATM   11  C   UNL     1      63.095   8.751   3.665  1.00  0.00     0.124 A 
HETATM   12  F   UNL     1      63.494   7.537   3.257  1.00  0.00    -0.206 F 
HETATM   13  C   UNL     1      63.562   9.230   4.888  1.00  0.00     0.043 A 
HETATM   14  C   UNL     1      63.152  10.481   5.343  1.00  0.00     0.003 A 
HETATM   15  C   UNL     1      62.306  11.261   4.555  1.00  0.00     0.001 A 
HETATM   16  C   UNL     1      61.844  10.777   3.329  1.00  0.00     0.012 A 
ENDBRANCH   9  10
ENDBRANCH   1   9
BRANCH   2  17
HETATM   17  C   UNL     1      58.191   5.292   1.496  1.00  0.00     0.260 C 
BRANCH  17  18
HETATM   18  C   UNL     1      57.424   4.964   0.202  1.00  0.00     0.192 C 
BRANCH  18  19
HETATM   19  O   UNL     1      56.069   5.398   0.302  1.00  0.00    -0.399 OA
HETATM   20  H   UNL     1      56.047   6.355   0.466  1.00  0.00     0.209 HD
ENDBRANCH  18  19
ENDBRANCH  17  18
ENDBRANCH   2  17
TORSDOF 5
ENDMDL
MODEL 8
REMARK VINA RESULT:      -4.3      3.636      6.826
REMARK  5 active torsions:
REMARK  status: ('A' for Active; 'I' for Inactive)
REMARK    1  A    between atoms: N_1  and  C_4 
REMARK    2  A    between atoms: C_2  and  C_4 
REMARK    3  A    between atoms: N_3  and  C_11 
REMARK    4  A    between atoms: C_11  and  C_15 
REMARK    5  A    between atoms: O_13  and  C_15 
ROOT
HETATM    1  N   UNL     1      63.143   7.215   4.081  1.00  0.00    -0.064 N 
HETATM    2  N   UNL     1      60.721   8.632   2.881  1.00  0.00    -0.066 N 
HETATM    3  C   UNL     1      63.212   8.564   3.488  1.00  0.00     0.263 C 
HETATM    4  C   UNL     1      61.992   6.493   3.516  1.00  0.00     0.263 C 
HETATM    5  C   UNL     1      61.879   9.356   3.454  1.00  0.00     0.262 C 
HETATM    6  C   UNL     1      60.660   7.283   3.479  1.00  0.00     0.262 C 
HETATM    7  H   UNL     1      63.999   6.717   3.837  1.00  0.00     0.280 HD
HETATM    8  H   UNL     1      59.844   9.096   3.114  1.00  0.00     0.280 HD
ENDROOT
BRANCH   1   9
HETATM    9  C   UNL     1      63.115   7.237   5.563  1.00  0.00     0.276 C 
BRANCH   9  10
HETATM   10  C   UNL     1      64.386   6.682   6.170  1.00  0.00     0.006 A 
HETATM   11  C   UNL     1      65.545   7.459   6.236  1.00  0.00     0.124 A 
HETATM   12  F   UNL     1      65.519   8.738   5.836  1.00  0.00    -0.206 F 
HETATM   13  C   UNL     1      66.752   6.924   6.682  1.00  0.00     0.043 A 
HETATM   14  C   UNL     1      66.811   5.593   7.089  1.00  0.00     0.003 A 
HETATM   15  C   UNL     1      65.654   4.814   7.081  1.00  0.00     0.001 A 
HETATM   16  C   UNL     1      64.447   5.357   6.635  1.00  0.00     0.012 A 
ENDBRANCH   9  10
ENDBRANCH   1   9
BRANCH   2  17
HETATM   17  C   UNL     1      60.778   8.648   1.402  1.00  0.00     0.260 C 
BRANCH  17  18
HETATM   18  C   UNL     1      59.612   7.914   0.715  1.00  0.00     0.192 C 
BRANCH  18  19
HETATM   19  O   UNL     1      58.362   8.438   1.161  1.00  0.00    -0.399 OA
HETATM   20  H   UNL     1      57.776   7.706   1.409  1.00  0.00     0.209 HD
ENDBRANCH  18  19
ENDBRANCH  17  18
ENDBRANCH   2  17
TORSDOF 5
ENDMDL
MODEL 9
REMARK VINA RESULT:      -4.1      2.772      3.274
REMARK  5 active torsions:
REMARK  status: ('A' for Active; 'I' for Inactive)
REMARK    1  A    between atoms: N_1  and  C_4 
REMARK    2  A    between atoms: C_2  and  C_4 
REMARK    3  A    between atoms: N_3  and  C_11 
REMARK    4  A    between atoms: C_11  and  C_15 
REMARK    5  A    between atoms: O_13  and  C_15 
ROOT
HETATM    1  N   UNL     1      62.664   7.279   3.927  1.00  0.00    -0.064 N 
HETATM    2  N   UNL     1      64.685   7.754   6.163  1.00  0.00    -0.066 N 
HETATM    3  C   UNL     1      62.939   6.290   4.985  1.00  0.00     0.263 C 
HETATM    4  C   UNL     1      63.825   8.172   3.781  1.00  0.00     0.263 C 
HETATM    5  C   UNL     1      63.513   6.859   6.309  1.00  0.00     0.262 C 
HETATM    6  C   UNL     1      64.401   8.740   5.101  1.00  0.00     0.262 C 
HETATM    7  H   UNL     1      62.521   6.776   3.052  1.00  0.00     0.280 HD
HETATM    8  H   UNL     1      64.853   8.283   7.018  1.00  0.00     0.280 HD
ENDROOT
BRANCH   1   9
HETATM    9  C   UNL     1      61.406   8.032   4.153  1.00  0.00     0.276 C 
BRANCH   9  10
HETATM   10  C   UNL     1      60.459   7.935   2.975  1.00  0.00     0.006 A 
HETATM   11  C   UNL     1      59.164   7.438   3.138  1.00  0.00     0.124 A 
HETATM   12  F   UNL     1      58.717   7.118   4.362  1.00  0.00    -0.206 F 
HETATM   13  C   UNL     1      58.323   7.233   2.047  1.00  0.00     0.043 A 
HETATM   14  C   UNL     1      58.768   7.541   0.763  1.00  0.00     0.003 A 
HETATM   15  C   UNL     1      60.038   8.087   0.583  1.00  0.00     0.001 A 
HETATM   16  C   UNL     1      60.875   8.294   1.682  1.00  0.00     0.012 A 
ENDBRANCH   9  10
ENDBRANCH   1   9
BRANCH   2  17
HETATM   17  C   UNL     1      65.920   6.963   5.957  1.00  0.00     0.260 C 
BRANCH  17  18
HETATM   18  C   UNL     1      67.151   7.803   5.570  1.00  0.00     0.192 C 
BRANCH  18  19
HETATM   19  O   UNL     1      68.075   7.016   4.819  1.00  0.00    -0.399 OA
HETATM   20  H   UNL     1      68.255   6.190   5.294  1.00  0.00     0.209 HD
ENDBRANCH  18  19
ENDBRANCH  17  18
ENDBRANCH   2  17
TORSDOF 5
ENDMDL
