MODEL 1
REMARK VINA RESULT:      -5.8      0.000      0.000
REMARK  2 active torsions:
REMARK  status: ('A' for Active; 'I' for Inactive)
REMARK    1  A    between atoms: C_1  and  C_5 
REMARK    2  A    between atoms: N_4  and  C_5 
ROOT
HETATM    1  N   UNL     1      64.642   7.840   5.888  1.00  0.00    -0.066 N 
HETATM    2  N   UNL     1      67.204   6.123   6.623  1.00  0.00    -0.073 N 
HETATM    3  C   UNL     1      65.411   7.445   4.687  1.00  0.00     0.237 C 
HETATM    4  C   UNL     1      66.912   7.743   4.694  1.00  0.00     0.055 C 
HETATM    5  C   UNL     1      67.771   7.205   5.833  1.00  0.00     0.234 C 
HETATM    6  C   UNL     1      64.794   6.829   6.956  1.00  0.00     0.262 C 
HETATM    7  C   UNL     1      66.199   6.641   7.555  1.00  0.00     0.260 C 
HETATM    8  H   UNL     1      64.983   8.727   6.255  1.00  0.00     0.280 HD
HETATM    9  H   UNL     1      66.767   5.445   5.999  1.00  0.00     0.277 HD
HETATM   10  H   UNL     1      67.951   5.677   7.157  1.00  0.00     0.277 HD
ENDROOT
BRANCH   1  11
HETATM   11  C   UNL     1      63.212   7.955   5.480  1.00  0.00     0.274 C 
BRANCH  11  12
HETATM   12  C   UNL     1      62.845   9.049   4.479  1.00  0.00    -0.021 A 
HETATM   13  C   UNL     1      62.513   8.718   3.140  1.00  0.00    -0.053 A 
HETATM   14  C   UNL     1      62.017   9.711   2.267  1.00  0.00     0.014 A 
HETATM   15  C   UNL     1      62.589   7.315   2.589  1.00  0.00     0.049 C 
HETATM   16  C   UNL     1      61.892  11.039   2.673  1.00  0.00    -0.061 A 
HETATM   17  C   UNL     1      62.292  11.377   3.963  1.00  0.00     0.014 A 
HETATM   18  C   UNL     1      61.361  12.091   1.749  1.00  0.00     0.048 C 
HETATM   19  C   UNL     1      62.752  10.408   4.878  1.00  0.00    -0.053 A 
HETATM   20  C   UNL     1      63.137  10.936   6.235  1.00  0.00     0.049 C 
ENDBRANCH  11  12
ENDBRANCH   1  11
TORSDOF 2
ENDMDL
MODEL 2
REMARK VINA RESULT:      -5.5      2.200      3.370
REMARK  2 active torsions:
REMARK  status: ('A' for Active; 'I' for Inactive)
REMARK    1  A    between atoms: C_1  and  C_5 
REMARK    2  A    between atoms: N_4  and  C_5 
ROOT
HETATM    1  N   UNL     1      64.588   6.170   2.953  1.00  0.00    -0.066 N 
HETATM    2  N   UNL     1      67.435   5.012   3.735  1.00  0.00    -0.073 N 
HETATM    3  C   UNL     1      64.681   4.713   2.714  1.00  0.00     0.237 C 
HETATM    4  C   UNL     1      65.877   4.217   1.898  1.00  0.00     0.055 C 
HETATM    5  C   UNL     1      67.288   4.572   2.356  1.00  0.00     0.234 C 
HETATM    6  C   UNL     1      65.465   6.569   4.075  1.00  0.00     0.262 C 
HETATM    7  C   UNL     1      66.981   6.398   3.881  1.00  0.00     0.260 C 
HETATM    8  H   UNL     1      64.892   6.688   2.128  1.00  0.00     0.280 HD
HETATM    9  H   UNL     1      66.877   4.410   4.341  1.00  0.00     0.277 HD
HETATM   10  H   UNL     1      68.419   4.957   3.996  1.00  0.00     0.277 HD
ENDROOT
BRANCH   1  11
HETATM   11  C   UNL     1      63.164   6.477   3.271  1.00  0.00     0.274 C 
BRANCH  11  12
HETATM   12  C   UNL     1      62.652   7.881   2.948  1.00  0.00    -0.021 A 
HETATM   13  C   UNL     1      62.531   8.856   3.971  1.00  0.00    -0.053 A 
HETATM   14  C   UNL     1      62.217  10.192   3.642  1.00  0.00     0.014 A 
HETATM   15  C   UNL     1      62.794   8.566   5.429  1.00  0.00     0.049 C 
HETATM   16  C   UNL     1      61.966  10.577   2.326  1.00  0.00    -0.061 A 
HETATM   17  C   UNL     1      62.009   9.603   1.332  1.00  0.00     0.014 A 
HETATM   18  C   UNL     1      61.638  11.996   1.976  1.00  0.00     0.048 C 
HETATM   19  C   UNL     1      62.360   8.268   1.614  1.00  0.00    -0.053 A 
HETATM   20  C   UNL     1      62.369   7.340   0.427  1.00  0.00     0.049 C 
ENDBRANCH  11  12
ENDBRANCH   1  11
TORSDOF 2
ENDMDL
MODEL 3
REMARK VINA RESULT:      -5.4      1.245      2.967
REMARK  2 active torsions:
REMARK  status: ('A' for Active; 'I' for Inactive)
REMARK    1  A    between atoms: C_1  and  C_5 
REMARK    2  A    between atoms: N_4  and  C_5 
ROOT
HETATM    1  N   UNL     1      65.034   6.903   5.967  1.00  0.00    -0.066 N 
HETATM    2  N   UNL     1      68.070   6.947   6.882  1.00  0.00    -0.073 N 
HETATM    3  C   UNL     1      65.230   6.247   7.279  1.00  0.00     0.237 C 
HETATM    4  C   UNL     1      66.319   5.176   7.365  1.00  0.00     0.055 C 
HETATM    5  C   UNL     1      67.744   5.530   6.952  1.00  0.00     0.234 C 
HETATM    6  C   UNL     1      66.038   7.969   5.765  1.00  0.00     0.262 C 
HETATM    7  C   UNL     1      67.513   7.540   5.663  1.00  0.00     0.260 C 
HETATM    8  H   UNL     1      65.147   6.229   5.210  1.00  0.00     0.280 HD
HETATM    9  H   UNL     1      67.681   7.422   7.696  1.00  0.00     0.277 HD
HETATM   10  H   UNL     1      69.085   7.051   6.866  1.00  0.00     0.277 HD
ENDROOT
BRANCH   1  11
HETATM   11  C   UNL     1      63.657   7.477   5.959  1.00  0.00     0.274 C 
BRANCH  11  12
HETATM   12  C   UNL     1      63.045   7.831   4.604  1.00  0.00    -0.021 A 
HETATM   13  C   UNL     1      62.774   9.182   4.268  1.00  0.00    -0.053 A 
HETATM   14  C   UNL     1      62.364   9.518   2.959  1.00  0.00     0.014 A 
HETATM   15  C   UNL     1      62.969  10.331   5.227  1.00  0.00     0.049 C 
HETATM   16  C   UNL     1      62.164   8.539   1.987  1.00  0.00    -0.061 A 
HETATM   17  C   UNL     1      62.355   7.206   2.340  1.00  0.00     0.014 A 
HETATM   18  C   UNL     1      61.735   8.895   0.597  1.00  0.00     0.048 C 
HETATM   19  C   UNL     1      62.805   6.834   3.623  1.00  0.00    -0.053 A 
HETATM   20  C   UNL     1      62.970   5.352   3.842  1.00  0.00     0.049 C 
ENDBRANCH  11  12
ENDBRANCH   1  11
TORSDOF 2
ENDMDL
MODEL 4
REMARK VINA RESULT:      -5.0      1.853      3.496
REMARK  2 active torsions:
REMARK  status: ('A' for Active; 'I' for Inactive)
REMARK    1  A    between atoms: C_1  and  C_5 
REMARK    2  A    between atoms: N_4  and  C_5 
ROOT
HETATM    1  N   UNL     1      65.525   6.266   5.702  1.00  0.00    -0.066 N 
HETATM    2  N   UNL     1      66.272   4.423   8.173  1.00  0.00    -0.073 N 
HETATM    3  C   UNL     1      66.759   6.718   6.382  1.00  0.00     0.237 C 
HETATM    4  C   UNL     1      66.688   6.910   7.898  1.00  0.00     0.055 C 
HETATM    5  C   UNL     1      66.231   5.747   8.774  1.00  0.00     0.234 C 
HETATM    6  C   UNL     1      65.366   4.802   5.837  1.00  0.00     0.262 C 
HETATM    7  C   UNL     1      65.145   4.243   7.253  1.00  0.00     0.260 C 
HETATM    8  H   UNL     1      64.705   6.702   6.123  1.00  0.00     0.280 HD
HETATM    9  H   UNL     1      67.146   4.314   7.659  1.00  0.00     0.277 HD
HETATM   10  H   UNL     1      66.210   3.723   8.912  1.00  0.00     0.277 HD
ENDROOT
BRANCH   1  11
HETATM   11  C   UNL     1      65.645   6.646   4.265  1.00  0.00     0.274 C 
BRANCH  11  12
HETATM   12  C   UNL     1      64.378   7.111   3.547  1.00  0.00    -0.021 A 
HETATM   13  C   UNL     1      63.727   8.309   3.936  1.00  0.00    -0.053 A 
HETATM   14  C   UNL     1      62.659   8.818   3.166  1.00  0.00     0.014 A 
HETATM   15  C   UNL     1      64.161   9.142   5.117  1.00  0.00     0.049 C 
HETATM   16  C   UNL     1      62.183   8.138   2.046  1.00  0.00    -0.061 A 
HETATM   17  C   UNL     1      62.771   6.922   1.709  1.00  0.00     0.014 A 
HETATM   18  C   UNL     1      61.053   8.679   1.226  1.00  0.00     0.048 C 
HETATM   19  C   UNL     1      63.868   6.402   2.428  1.00  0.00    -0.053 A 
HETATM   20  C   UNL     1      64.395   5.081   1.930  1.00  0.00     0.049 C 
ENDBRANCH  11  12
ENDBRANCH   1  11
TORSDOF 2
ENDMDL
MODEL 5
REMARK VINA RESULT:      -5.0      3.023      6.139
REMARK  2 active torsions:
REMARK  status: ('A' for Active; 'I' for Inactive)
REMARK    1  A    between atoms: C_1  and  C_5 
REMARK    2  A    between atoms: N_4  and  C_5 
ROOT
HETATM    1  N   UNL     1      61.178   7.891   2.262  1.00  0.00    -0.066 N 
HETATM    2  N   UNL     1      58.020   7.778   2.534  1.00  0.00    -0.073 N 
HETATM    3  C   UNL     1      60.496   8.477   1.087  1.00  0.00     0.237 C 
HETATM    4  C   UNL     1      59.411   7.629   0.418  1.00  0.00     0.055 C 
HETATM    5  C   UNL     1      58.246   7.115   1.259  1.00  0.00     0.234 C 
HETATM    6  C   UNL     1      60.354   8.063   3.478  1.00  0.00     0.262 C 
HETATM    7  C   UNL     1      59.003   7.330   3.525  1.00  0.00     0.260 C 
HETATM    8  H   UNL     1      61.322   6.890   2.130  1.00  0.00     0.280 HD
HETATM    9  H   UNL     1      58.105   8.786   2.409  1.00  0.00     0.277 HD
HETATM   10  H   UNL     1      57.085   7.543   2.867  1.00  0.00     0.277 HD
ENDROOT
BRANCH   1  11
HETATM   11  C   UNL     1      62.484   8.595   2.414  1.00  0.00     0.274 C 
BRANCH  11  12
HETATM   12  C   UNL     1      63.497   8.006   3.395  1.00  0.00    -0.021 A 
HETATM   13  C   UNL     1      64.160   6.787   3.101  1.00  0.00    -0.053 A 
HETATM   14  C   UNL     1      65.211   6.335   3.928  1.00  0.00     0.014 A 
HETATM   15  C   UNL     1      63.855   5.950   1.883  1.00  0.00     0.049 C 
HETATM   16  C   UNL     1      65.587   7.035   5.073  1.00  0.00    -0.061 A 
HETATM   17  C   UNL     1      64.884   8.191   5.404  1.00  0.00     0.014 A 
HETATM   18  C   UNL     1      66.705   6.559   5.949  1.00  0.00     0.048 C 
HETATM   19  C   UNL     1      63.857   8.698   4.581  1.00  0.00    -0.053 A 
HETATM   20  C   UNL     1      63.202   9.961   5.075  1.00  0.00     0.049 C 
ENDBRANCH  11  12
ENDBRANCH   1  11
TORSDOF 2
ENDMDL
MODEL 6
REMARK VINA RESULT:      -4.9      1.597      2.252
REMARK  2 active torsions:
REMARK  status: ('A' for Active; 'I' for Inactive)
REMARK    1  A    between atoms: C_1  and  C_5 
REMARK    2  A    between atoms: N_4  and  C_5 
ROOT
HETATM    1  N   UNL     1      64.341   5.762   4.127  1.00  0.00    -0.066 N 
HETATM    2  N   UNL     1      67.293   6.191   5.204  1.00  0.00    -0.073 N 
HETATM    3  C   UNL     1      64.469   5.406   5.557  1.00  0.00     0.237 C 
HETATM    4  C   UNL     1      65.601   4.449   5.937  1.00  0.00     0.055 C 
HETATM    5  C   UNL     1      67.034   4.802   5.551  1.00  0.00     0.234 C 
HETATM    6  C   UNL     1      65.303   6.826   3.769  1.00  0.00     0.262 C 
HETATM    7  C   UNL     1      66.801   6.482   3.854  1.00  0.00     0.260 C 
HETATM    8  H   UNL     1      64.545   4.954   3.538  1.00  0.00     0.280 HD
HETATM    9  H   UNL     1      66.819   6.798   5.872  1.00  0.00     0.277 HD
HETATM   10  H   UNL     1      68.299   6.356   5.231  1.00  0.00     0.277 HD
ENDROOT
BRANCH   1  11
HETATM   11  C   UNL     1      62.942   6.231   3.909  1.00  0.00     0.274 C 
BRANCH  11  12
HETATM   12  C   UNL     1      62.744   7.654   3.389  1.00  0.00    -0.021 A 
HETATM   13  C   UNL     1      62.588   7.898   2.001  1.00  0.00    -0.053 A 
HETATM   14  C   UNL     1      62.241   9.188   1.543  1.00  0.00     0.014 A 
HETATM   15  C   UNL     1      62.703   6.820   0.951  1.00  0.00     0.049 C 
HETATM   16  C   UNL     1      62.097  10.258   2.425  1.00  0.00    -0.061 A 
HETATM   17  C   UNL     1      62.326  10.034   3.781  1.00  0.00     0.014 A 
HETATM   18  C   UNL     1      61.724  11.625   1.941  1.00  0.00     0.048 C 
HETATM   19  C   UNL     1      62.632   8.752   4.281  1.00  0.00    -0.053 A 
HETATM   20  C   UNL     1      62.842   8.677   5.772  1.00  0.00     0.049 C 
ENDBRANCH  11  12
ENDBRANCH   1  11
TORSDOF 2
ENDMDL
MODEL 7
REMARK VINA RESULT:      -4.9      3.574      5.101
REMARK  2 active torsions:
REMARK  status: ('A' for Active; 'I' for Inactive)
REMARK    1  A    between atoms: C_1  and  C_5 
REMARK    2  A    between atoms: N_4  and  C_5 
ROOT
HETATM    1  N   UNL     1      60.237   6.163   5.017  1.00  0.00    -0.066 N 
HETATM    2  N   UNL     1      58.077   4.393   6.519  1.00  0.00    -0.073 N 
HETATM    3  C   UNL     1      60.774   5.565   6.260  1.00  0.00     0.237 C 
HETATM    4  C   UNL     1      59.954   5.763   7.537  1.00  0.00     0.055 C 
HETATM    5  C   UNL     1      58.493   5.323   7.558  1.00  0.00     0.234 C 
HETATM    6  C   UNL     1      59.195   5.293   4.432  1.00  0.00     0.262 C 
HETATM    7  C   UNL     1      57.904   5.093   5.244  1.00  0.00     0.260 C 
HETATM    8  H   UNL     1      59.807   7.067   5.212  1.00  0.00     0.280 HD
HETATM    9  H   UNL     1      58.788   3.669   6.412  1.00  0.00     0.277 HD
HETATM   10  H   UNL     1      57.188   3.973   6.790  1.00  0.00     0.277 HD
ENDROOT
BRANCH   1  11
HETATM   11  C   UNL     1      61.379   6.317   4.070  1.00  0.00     0.274 C 
BRANCH  11  12
HETATM   12  C   UNL     1      61.612   7.698   3.459  1.00  0.00    -0.021 A 
HETATM   13  C   UNL     1      61.139   7.998   2.155  1.00  0.00    -0.053 A 
HETATM   14  C   UNL     1      61.210   9.319   1.663  1.00  0.00     0.014 A 
HETATM   15  C   UNL     1      60.477   6.980   1.259  1.00  0.00     0.049 C 
HETATM   16  C   UNL     1      61.790  10.343   2.410  1.00  0.00    -0.061 A 
HETATM   17  C   UNL     1      62.324  10.032   3.657  1.00  0.00     0.014 A 
HETATM   18  C   UNL     1      61.861  11.746   1.890  1.00  0.00     0.048 C 
HETATM   19  C   UNL     1      62.235   8.735   4.202  1.00  0.00    -0.053 A 
HETATM   20  C   UNL     1      62.854   8.565   5.565  1.00  0.00     0.049 C 
ENDBRANCH  11  12
ENDBRANCH   1  11
TORSDOF 2
ENDMDL
MODEL 8
REMARK VINA RESULT:      -4.7      2.012      2.984
REMARK  2 active torsions:
REMARK  status: ('A' for Active; 'I' for Inactive)
REMARK    1  A    between atoms: C_1  and  C_5 
REMARK    2  A    between atoms: N_4  and  C_5 
ROOT
HETATM    1  N   UNL     1      65.663   6.171   5.755  1.00  0.00    -0.066 N 
HETATM    2  N   UNL     1      66.489   4.399   8.252  1.00  0.00    -0.073 N 
HETATM    3  C   UNL     1      66.846   6.715   6.457  1.00  0.00     0.237 C 
HETATM    4  C   UNL     1      66.728   6.908   7.971  1.00  0.00     0.055 C 
HETATM    5  C   UNL     1      66.339   5.720   8.844  1.00  0.00     0.234 C 
HETATM    6  C   UNL     1      65.608   4.700   5.895  1.00  0.00     0.262 C 
HETATM    7  C   UNL     1      65.398   4.133   7.310  1.00  0.00     0.260 C 
HETATM    8  H   UNL     1      64.805   6.549   6.155  1.00  0.00     0.280 HD
HETATM    9  H   UNL     1      67.379   4.352   7.757  1.00  0.00     0.277 HD
HETATM   10  H   UNL     1      66.462   3.700   8.994  1.00  0.00     0.277 HD
ENDROOT
BRANCH   1  11
HETATM   11  C   UNL     1      65.786   6.552   4.318  1.00  0.00     0.274 C 
BRANCH  11  12
HETATM   12  C   UNL     1      64.517   6.999   3.592  1.00  0.00    -0.021 A 
HETATM   13  C   UNL     1      63.989   6.228   2.525  1.00  0.00    -0.053 A 
HETATM   14  C   UNL     1      62.733   6.554   1.969  1.00  0.00     0.014 A 
HETATM   15  C   UNL     1      64.671   5.000   1.973  1.00  0.00     0.049 C 
HETATM   16  C   UNL     1      62.009   7.660   2.410  1.00  0.00    -0.061 A 
HETATM   17  C   UNL     1      62.563   8.462   3.405  1.00  0.00     0.014 A 
HETATM   18  C   UNL     1      60.673   8.004   1.825  1.00  0.00     0.048 C 
HETATM   19  C   UNL     1      63.795   8.145   4.014  1.00  0.00    -0.053 A 
HETATM   20  C   UNL     1      64.251   9.108   5.079  1.00  0.00     0.049 C 
ENDBRANCH  11  12
ENDBRANCH   1  11
TORSDOF 2
ENDMDL
MODEL 9
REMARK VINA RESULT:      -4.7      3.012      4.693
REMARK  2 active torsions:
REMARK  status: ('A' for Active; 'I' for Inactive)
REMARK    1  A    between atoms: C_1  and  C_5 
REMARK    2  A    between atoms: N_4  and  C_5 
ROOT
HETATM    1  N   UNL     1      62.415   5.550   4.018  1.00  0.00    -0.066 N 
HETATM    2  N   UNL     1      60.218   3.269   4.172  1.00  0.00    -0.073 N 
HETATM    3  C   UNL     1      63.007   4.199   3.906  1.00  0.00     0.237 C 
HETATM    4  C   UNL     1      62.621   3.180   4.980  1.00  0.00     0.055 C 
HETATM    5  C   UNL     1      61.146   2.879   5.224  1.00  0.00     0.234 C 
HETATM    6  C   UNL     1      61.041   5.561   3.474  1.00  0.00     0.262 C 
HETATM    7  C   UNL     1      59.984   4.715   4.206  1.00  0.00     0.260 C 
HETATM    8  H   UNL     1      62.359   5.836   4.995  1.00  0.00     0.280 HD
HETATM    9  H   UNL     1      60.611   3.012   3.267  1.00  0.00     0.277 HD
HETATM   10  H   UNL     1      59.331   2.787   4.319  1.00  0.00     0.277 HD
ENDROOT
BRANCH   1  11
HETATM   11  C   UNL     1      63.288   6.482   3.247  1.00  0.00     0.274 C 
BRANCH  11  12
HETATM   12  C   UNL     1      62.738   7.874   2.935  1.00  0.00    -0.021 A 
HETATM   13  C   UNL     1      62.635   8.853   3.956  1.00  0.00    -0.053 A 
HETATM   14  C   UNL     1      62.285  10.181   3.630  1.00  0.00     0.014 A 
HETATM   15  C   UNL     1      62.955   8.578   5.404  1.00  0.00     0.049 C 
HETATM   16  C   UNL     1      61.980  10.552   2.321  1.00  0.00    -0.061 A 
HETATM   17  C   UNL     1      62.006   9.573   1.332  1.00  0.00     0.014 A 
HETATM   18  C   UNL     1      61.613  11.963   1.974  1.00  0.00     0.048 C 
HETATM   19  C   UNL     1      62.392   8.246   1.609  1.00  0.00    -0.053 A 
HETATM   20  C   UNL     1      62.377   7.311   0.428  1.00  0.00     0.049 C 
ENDBRANCH  11  12
ENDBRANCH   1  11
TORSDOF 2
ENDMDL
