MODEL 1
REMARK VINA RESULT:      -5.8      0.000      0.000
REMARK  0 active torsions:
REMARK  status: ('A' for Active; 'I' for Inactive)
ROOT
HETATM    1  C   UNL     1      64.200   7.186   5.246  1.00  0.00     0.147 A 
HETATM    2  N   UNL     1      63.931   8.322   5.855  1.00  0.00    -0.336 N 
ATOM      3  HN  UNL     1      64.151   8.513   6.832  1.00  0.00     0.168 HD
HETATM    4  S   UNL     1      63.723   7.177   3.578  1.00  0.00    -0.052 SA
HETATM    5  C   UNL     1      63.098   8.767   3.711  1.00  0.00     0.036 A 
HETATM    6  N   UNL     1      64.780   6.118   5.869  1.00  0.00    -0.360 N 
HETATM    7  C   UNL     1      63.313   9.223   5.008  1.00  0.00     0.051 A 
HETATM    8  C   UNL     1      62.468   9.554   2.733  1.00  0.00     0.045 A 
HETATM    9  N   UNL     1      67.318   5.055   7.161  1.00  0.00    -0.074 N 
HETATM   10  C   UNL     1      62.893  10.528   5.343  1.00  0.00     0.032 A 
HETATM   11  C   UNL     1      62.066  10.841   3.092  1.00  0.00     0.035 A 
HETATM   12  C   UNL     1      62.274  11.331   4.378  1.00  0.00     0.026 A 
HETATM   13  C   UNL     1      65.155   4.886   5.188  1.00  0.00     0.126 C 
HETATM   14 CL   UNL     1      61.301  11.841   1.916  1.00  0.00    -0.084 Cl
HETATM   15  C   UNL     1      65.015   6.161   7.315  1.00  0.00     0.152 C 
HETATM   16  C   UNL     1      66.601   4.916   4.707  1.00  0.00     0.047 C 
HETATM   17  C   UNL     1      67.672   5.238   5.757  1.00  0.00     0.234 C 
HETATM   18  C   UNL     1      66.516   6.183   7.671  1.00  0.00     0.252 C 
HETATM   19  H   UNL     1      66.778   4.195   7.257  1.00  0.00     0.277 HD
HETATM   20  H   UNL     1      68.180   5.006   7.704  1.00  0.00     0.277 HD
ENDROOT
TORSDOF 0
ENDMDL
MODEL 2
REMARK VINA RESULT:      -5.3      3.463      6.462
REMARK  0 active torsions:
REMARK  status: ('A' for Active; 'I' for Inactive)
ROOT
HETATM    1  C   UNL     1      62.694   7.946   4.630  1.00  0.00     0.147 A 
HETATM    2  N   UNL     1      62.701   6.719   5.108  1.00  0.00    -0.336 N 
ATOM      3  HN  UNL     1      61.935   6.056   4.993  1.00  0.00     0.168 HD
HETATM    4  S   UNL     1      64.152   8.819   4.972  1.00  0.00    -0.052 SA
HETATM    5  C   UNL     1      64.793   7.484   5.833  1.00  0.00     0.036 A 
HETATM    6  N   UNL     1      61.638   8.480   3.947  1.00  0.00    -0.360 N 
HETATM    7  C   UNL     1      63.873   6.441   5.786  1.00  0.00     0.051 A 
HETATM    8  C   UNL     1      66.026   7.368   6.496  1.00  0.00     0.045 A 
HETATM    9  N   UNL     1      60.006   8.370   1.386  1.00  0.00    -0.074 N 
HETATM   10  C   UNL     1      64.201   5.222   6.418  1.00  0.00     0.032 A 
HETATM   11  C   UNL     1      66.325   6.151   7.110  1.00  0.00     0.035 A 
HETATM   12  C   UNL     1      65.431   5.085   7.073  1.00  0.00     0.026 A 
HETATM   13  C   UNL     1      61.649   9.806   3.345  1.00  0.00     0.126 C 
HETATM   14 CL   UNL     1      67.833   5.967   7.922  1.00  0.00    -0.084 Cl
HETATM   15  C   UNL     1      60.389   7.721   3.832  1.00  0.00     0.152 C 
HETATM   16  C   UNL     1      62.091   9.768   1.887  1.00  0.00     0.047 C 
HETATM   17  C   UNL     1      61.327   8.817   0.957  1.00  0.00     0.234 C 
HETATM   18  C   UNL     1      60.094   7.285   2.382  1.00  0.00     0.252 C 
HETATM   19  H   UNL     1      59.508   9.159   1.799  1.00  0.00     0.277 HD
HETATM   20  H   UNL     1      59.509   8.014   0.569  1.00  0.00     0.277 HD
ENDROOT
TORSDOF 0
ENDMDL
MODEL 3
REMARK VINA RESULT:      -5.2      2.110      2.663
REMARK  0 active torsions:
REMARK  status: ('A' for Active; 'I' for Inactive)
ROOT
HETATM    1  C   UNL     1      64.111   7.501   5.355  1.00  0.00     0.147 A 
HETATM    2  N   UNL     1      64.077   8.294   4.303  1.00  0.00    -0.336 N 
ATOM      3  HN  UNL     1      64.845   8.903   4.021  1.00  0.00     0.168 HD
HETATM    4  S   UNL     1      62.660   6.573   5.556  1.00  0.00    -0.052 SA
HETATM    5  C   UNL     1      61.955   7.310   4.179  1.00  0.00     0.036 A 
HETATM    6  N   UNL     1      65.175   7.430   6.208  1.00  0.00    -0.360 N 
HETATM    7  C   UNL     1      62.874   8.199   3.629  1.00  0.00     0.051 A 
HETATM    8  C   UNL     1      60.680   7.110   3.624  1.00  0.00     0.045 A 
HETATM    9  N   UNL     1      68.075   6.576   6.521  1.00  0.00    -0.074 N 
HETATM   10  C   UNL     1      62.512   8.911   2.466  1.00  0.00     0.032 A 
HETATM   11  C   UNL     1      60.351   7.825   2.472  1.00  0.00     0.035 A 
HETATM   12  C   UNL     1      61.251   8.714   1.891  1.00  0.00     0.026 A 
HETATM   13  C   UNL     1      65.257   6.502   7.327  1.00  0.00     0.126 C 
HETATM   14 CL   UNL     1      58.801   7.596   1.754  1.00  0.00    -0.084 Cl
HETATM   15  C   UNL     1      66.299   8.357   6.047  1.00  0.00     0.152 C 
HETATM   16  C   UNL     1      65.956   5.203   6.943  1.00  0.00     0.047 C 
HETATM   17  C   UNL     1      67.348   5.329   6.311  1.00  0.00     0.234 C 
HETATM   18  C   UNL     1      67.598   7.643   5.620  1.00  0.00     0.252 C 
HETATM   19  H   UNL     1      67.945   6.876   7.487  1.00  0.00     0.277 HD
HETATM   20  H   UNL     1      69.062   6.408   6.322  1.00  0.00     0.277 HD
ENDROOT
TORSDOF 0
ENDMDL
MODEL 4
REMARK VINA RESULT:      -5.1      3.676      6.537
REMARK  0 active torsions:
REMARK  status: ('A' for Active; 'I' for Inactive)
ROOT
HETATM    1  C   UNL     1      64.857   7.057   5.387  1.00  0.00     0.147 A 
HETATM    2  N   UNL     1      65.262   7.513   6.554  1.00  0.00    -0.336 N 
ATOM      3  HN  UNL     1      65.101   8.464   6.884  1.00  0.00     0.168 HD
HETATM    4  S   UNL     1      65.264   5.391   5.128  1.00  0.00    -0.052 SA
HETATM    5  C   UNL     1      66.050   5.309   6.648  1.00  0.00     0.036 A 
HETATM    6  N   UNL     1      64.197   7.823   4.469  1.00  0.00    -0.360 N 
HETATM    7  C   UNL     1      65.933   6.544   7.278  1.00  0.00     0.051 A 
HETATM    8  C   UNL     1      66.717   4.224   7.242  1.00  0.00     0.045 A 
HETATM    9  N   UNL     1      61.619   9.304   3.840  1.00  0.00    -0.074 N 
HETATM   10  C   UNL     1      66.495   6.704   8.563  1.00  0.00     0.032 A 
HETATM   11  C   UNL     1      67.260   4.410   8.514  1.00  0.00     0.035 A 
HETATM   12  C   UNL     1      67.152   5.630   9.174  1.00  0.00     0.026 A 
HETATM   13  C   UNL     1      63.675   7.310   3.210  1.00  0.00     0.126 C 
HETATM   14 CL   UNL     1      68.074   3.098   9.279  1.00  0.00    -0.084 Cl
HETATM   15  C   UNL     1      64.026   9.258   4.710  1.00  0.00     0.152 C 
HETATM   16  C   UNL     1      62.221   6.868   3.332  1.00  0.00     0.047 C 
HETATM   17  C   UNL     1      61.230   7.898   3.888  1.00  0.00     0.234 C 
HETATM   18  C   UNL     1      62.550   9.649   4.932  1.00  0.00     0.252 C 
HETATM   19  H   UNL     1      62.073   9.491   2.946  1.00  0.00     0.277 HD
HETATM   20  H   UNL     1      60.778   9.872   3.947  1.00  0.00     0.277 HD
ENDROOT
TORSDOF 0
ENDMDL
MODEL 5
REMARK VINA RESULT:      -4.7      3.730      6.228
REMARK  0 active torsions:
REMARK  status: ('A' for Active; 'I' for Inactive)
ROOT
HETATM    1  C   UNL     1      63.162   6.710   4.428  1.00  0.00     0.147 A 
HETATM    2  N   UNL     1      64.108   7.625   4.470  1.00  0.00    -0.336 N 
ATOM      3  HN  UNL     1      64.198   8.386   3.797  1.00  0.00     0.168 HD
HETATM    4  S   UNL     1      63.265   5.564   5.726  1.00  0.00    -0.052 SA
HETATM    5  C   UNL     1      64.671   6.328   6.338  1.00  0.00     0.036 A 
HETATM    6  N   UNL     1      62.207   6.660   3.453  1.00  0.00    -0.360 N 
HETATM    7  C   UNL     1      64.964   7.428   5.537  1.00  0.00     0.051 A 
HETATM    8  C   UNL     1      65.453   5.981   7.452  1.00  0.00     0.045 A 
HETATM    9  N   UNL     1      59.764   8.033   2.276  1.00  0.00    -0.074 N 
HETATM   10  C   UNL     1      66.080   8.226   5.869  1.00  0.00     0.032 A 
HETATM   11  C   UNL     1      66.548   6.790   7.757  1.00  0.00     0.035 A 
HETATM   12  C   UNL     1      66.863   7.902   6.983  1.00  0.00     0.026 A 
HETATM   13  C   UNL     1      61.110   5.702   3.441  1.00  0.00     0.126 C 
HETATM   14 CL   UNL     1      67.524   6.402   9.124  1.00  0.00    -0.084 Cl
HETATM   15  C   UNL     1      62.283   7.580   2.315  1.00  0.00     0.152 C 
HETATM   16  C   UNL     1      59.860   6.255   4.115  1.00  0.00     0.047 C 
HETATM   17  C   UNL     1      59.336   7.603   3.603  1.00  0.00     0.234 C 
HETATM   18  C   UNL     1      61.126   8.600   2.300  1.00  0.00     0.252 C 
HETATM   19  H   UNL     1      59.751   7.230   1.647  1.00  0.00     0.277 HD
HETATM   20  H   UNL     1      59.123   8.758   1.953  1.00  0.00     0.277 HD
ENDROOT
TORSDOF 0
ENDMDL
MODEL 6
REMARK VINA RESULT:      -4.6      4.676      6.537
REMARK  0 active torsions:
REMARK  status: ('A' for Active; 'I' for Inactive)
ROOT
HETATM    1  C   UNL     1      60.854   6.458   5.088  1.00  0.00     0.147 A 
HETATM    2  N   UNL     1      61.494   7.450   4.505  1.00  0.00    -0.336 N 
ATOM      3  HN  UNL     1      61.085   8.055   3.793  1.00  0.00     0.168 HD
HETATM    4  S   UNL     1      61.813   5.631   6.273  1.00  0.00    -0.052 SA
HETATM    5  C   UNL     1      63.155   6.644   5.947  1.00  0.00     0.036 A 
HETATM    6  N   UNL     1      59.570   6.107   4.778  1.00  0.00    -0.360 N 
HETATM    7  C   UNL     1      62.788   7.571   4.976  1.00  0.00     0.051 A 
HETATM    8  C   UNL     1      64.440   6.622   6.516  1.00  0.00     0.045 A 
HETATM    9  N   UNL     1      56.652   6.947   4.897  1.00  0.00    -0.074 N 
HETATM   10  C   UNL     1      63.739   8.528   4.562  1.00  0.00     0.032 A 
HETATM   11  C   UNL     1      65.358   7.581   6.090  1.00  0.00     0.035 A 
HETATM   12  C   UNL     1      65.020   8.529   5.128  1.00  0.00     0.026 A 
HETATM   13  C   UNL     1      58.826   5.064   5.470  1.00  0.00     0.126 C 
HETATM   14 CL   UNL     1      66.939   7.594   6.774  1.00  0.00    -0.084 Cl
HETATM   15  C   UNL     1      58.887   6.765   3.662  1.00  0.00     0.152 C 
HETATM   16  C   UNL     1      57.999   5.621   6.623  1.00  0.00     0.047 C 
HETATM   17  C   UNL     1      57.038   6.770   6.293  1.00  0.00     0.234 C 
HETATM   18  C   UNL     1      57.703   7.639   4.125  1.00  0.00     0.252 C 
HETATM   19  H   UNL     1      56.485   6.031   4.481  1.00  0.00     0.277 HD
HETATM   20  H   UNL     1      55.807   7.519   4.869  1.00  0.00     0.277 HD
ENDROOT
TORSDOF 0
ENDMDL
MODEL 7
REMARK VINA RESULT:      -4.6      3.360      3.769
REMARK  0 active torsions:
REMARK  status: ('A' for Active; 'I' for Inactive)
ROOT
HETATM    1  C   UNL     1      63.334   6.212   5.579  1.00  0.00     0.147 A 
HETATM    2  N   UNL     1      62.445   5.858   6.485  1.00  0.00    -0.336 N 
ATOM      3  HN  UNL     1      62.683   5.483   7.403  1.00  0.00     0.168 HD
HETATM    4  S   UNL     1      62.616   6.835   4.128  1.00  0.00    -0.052 SA
HETATM    5  C   UNL     1      61.042   6.575   4.752  1.00  0.00     0.036 A 
HETATM    6  N   UNL     1      64.682   6.086   5.759  1.00  0.00    -0.360 N 
HETATM    7  C   UNL     1      61.152   6.056   6.038  1.00  0.00     0.051 A 
HETATM    8  C   UNL     1      59.798   6.820   4.145  1.00  0.00     0.045 A 
HETATM    9  N   UNL     1      67.100   7.086   7.303  1.00  0.00    -0.074 N 
HETATM   10  C   UNL     1      59.970   5.781   6.759  1.00  0.00     0.032 A 
HETATM   11  C   UNL     1      58.647   6.541   4.883  1.00  0.00     0.035 A 
HETATM   12  C   UNL     1      58.723   6.031   6.176  1.00  0.00     0.026 A 
HETATM   13  C   UNL     1      65.675   6.547   4.798  1.00  0.00     0.126 C 
HETATM   14 CL   UNL     1      57.104   6.840   4.177  1.00  0.00    -0.084 Cl
HETATM   15  C   UNL     1      65.195   5.413   6.956  1.00  0.00     0.152 C 
HETATM   16  C   UNL     1      66.144   7.965   5.098  1.00  0.00     0.047 C 
HETATM   17  C   UNL     1      66.672   8.235   6.512  1.00  0.00     0.234 C 
HETATM   18  C   UNL     1      65.952   6.374   7.896  1.00  0.00     0.252 C 
HETATM   19  H   UNL     1      67.614   6.443   6.701  1.00  0.00     0.277 HD
HETATM   20  H   UNL     1      67.692   7.424   8.063  1.00  0.00     0.277 HD
ENDROOT
TORSDOF 0
ENDMDL
MODEL 8
REMARK VINA RESULT:      -4.4      5.019      5.874
REMARK  0 active torsions:
REMARK  status: ('A' for Active; 'I' for Inactive)
ROOT
HETATM    1  C   UNL     1      60.490   6.761   4.396  1.00  0.00     0.147 A 
HETATM    2  N   UNL     1      59.880   6.102   5.359  1.00  0.00    -0.336 N 
ATOM      3  HN  UNL     1      60.357   5.689   6.160  1.00  0.00     0.168 HD
HETATM    4  S   UNL     1      59.401   7.364   3.187  1.00  0.00    -0.052 SA
HETATM    5  C   UNL     1      58.061   6.667   3.995  1.00  0.00     0.036 A 
HETATM    6  N   UNL     1      61.843   6.937   4.346  1.00  0.00    -0.360 N 
HETATM    7  C   UNL     1      58.514   6.041   5.152  1.00  0.00     0.051 A 
HETATM    8  C   UNL     1      56.703   6.681   3.632  1.00  0.00     0.045 A 
HETATM    9  N   UNL     1      64.236   8.291   5.641  1.00  0.00    -0.074 N 
HETATM   10  C   UNL     1      57.572   5.410   5.993  1.00  0.00     0.032 A 
HETATM   11  C   UNL     1      55.794   6.052   4.483  1.00  0.00     0.035 A 
HETATM   12  C   UNL     1      56.214   5.425   5.653  1.00  0.00     0.026 A 
HETATM   13  C   UNL     1      62.521   7.730   3.329  1.00  0.00     0.126 C 
HETATM   14 CL   UNL     1      54.120   6.059   4.077  1.00  0.00    -0.084 Cl
HETATM   15  C   UNL     1      62.700   6.268   5.330  1.00  0.00     0.152 C 
HETATM   16  C   UNL     1      62.725   9.174   3.772  1.00  0.00     0.047 C 
HETATM   17  C   UNL     1      63.435   9.392   5.114  1.00  0.00     0.234 C 
HETATM   18  C   UNL     1      63.395   7.263   6.282  1.00  0.00     0.252 C 
HETATM   19  H   UNL     1      64.755   7.863   4.874  1.00  0.00     0.277 HD
HETATM   20  H   UNL     1      64.872   8.667   6.345  1.00  0.00     0.277 HD
ENDROOT
TORSDOF 0
ENDMDL
MODEL 9
REMARK VINA RESULT:      -4.2      8.868      9.876
REMARK  0 active torsions:
REMARK  status: ('A' for Active; 'I' for Inactive)
ROOT
HETATM    1  C   UNL     1      58.199   2.205  10.492  1.00  0.00     0.147 A 
HETATM    2  N   UNL     1      58.021   3.503  10.357  1.00  0.00    -0.336 N 
ATOM      3  HN  UNL     1      57.390   4.057  10.935  1.00  0.00     0.168 HD
HETATM    4  S   UNL     1      59.356   1.555   9.375  1.00  0.00    -0.052 SA
HETATM    5  C   UNL     1      59.589   3.097   8.665  1.00  0.00     0.036 A 
HETATM    6  N   UNL     1      57.528   1.446  11.409  1.00  0.00    -0.360 N 
HETATM    7  C   UNL     1      58.796   4.022   9.336  1.00  0.00     0.051 A 
HETATM    8  C   UNL     1      60.422   3.460   7.592  1.00  0.00     0.045 A 
HETATM    9  N   UNL     1      57.151   0.853  14.365  1.00  0.00    -0.074 N 
HETATM   10  C   UNL     1      58.842   5.373   8.930  1.00  0.00     0.032 A 
HETATM   11  C   UNL     1      60.449   4.803   7.215  1.00  0.00     0.035 A 
HETATM   12  C   UNL     1      59.675   5.754   7.872  1.00  0.00     0.026 A 
HETATM   13  C   UNL     1      57.773   0.026  11.621  1.00  0.00     0.126 C 
HETATM   14 CL   UNL     1      61.468   5.288   5.912  1.00  0.00    -0.084 Cl
HETATM   15  C   UNL     1      56.462   2.051  12.212  1.00  0.00     0.152 C 
HETATM   16  C   UNL     1      58.797  -0.218  12.723  1.00  0.00     0.047 C 
HETATM   17  C   UNL     1      58.521   0.438  14.082  1.00  0.00     0.234 C 
HETATM   18  C   UNL     1      56.822   2.133  13.710  1.00  0.00     0.252 C 
HETATM   19  H   UNL     1      56.511   0.134  14.027  1.00  0.00     0.277 HD
HETATM   20  H   UNL     1      57.057   0.978  15.374  1.00  0.00     0.277 HD
ENDROOT
TORSDOF 0
ENDMDL
