MODEL 1
REMARK VINA RESULT:      -5.6      0.000      0.000
REMARK  2 active torsions:
REMARK  status: ('A' for Active; 'I' for Inactive)
REMARK    1  A    between atoms: N_1  and  C_3 
REMARK    2  A    between atoms: C_3  and  C_4 
ROOT
HETATM    1  N   UNL     1      64.360   7.278   4.867  1.00  0.00    -0.066 N 
HETATM    2  N   UNL     1      66.719   6.201   6.617  1.00  0.00    -0.073 N 
HETATM    3  C   UNL     1      65.362   6.617   4.028  1.00  0.00     0.237 C 
HETATM    4  C   UNL     1      66.801   7.096   4.238  1.00  0.00     0.055 C 
HETATM    5  C   UNL     1      67.398   7.042   5.643  1.00  0.00     0.234 C 
HETATM    6  C   UNL     1      64.263   6.684   6.211  1.00  0.00     0.262 C 
HETATM    7  C   UNL     1      65.502   6.850   7.112  1.00  0.00     0.260 C 
HETATM    8  H   UNL     1      64.686   8.237   4.988  1.00  0.00     0.280 HD
HETATM    9  H   UNL     1      66.470   5.315   6.177  1.00  0.00     0.277 HD
HETATM   10  H   UNL     1      67.348   6.043   7.405  1.00  0.00     0.277 HD
ENDROOT
BRANCH   1  11
HETATM   11  C   UNL     1      63.035   7.338   4.211  1.00  0.00     0.273 C 
BRANCH  11  12
HETATM   12  C   UNL     1      62.644   8.647   3.545  1.00  0.00    -0.032 A 
HETATM   13  C   UNL     1      62.428   8.714   2.158  1.00  0.00     0.012 A 
HETATM   14  C   UNL     1      62.045   9.913   1.555  1.00  0.00     0.043 A 
HETATM   15  C   UNL     1      61.872  11.049   2.335  1.00  0.00     0.116 A 
HETATM   16  C   UNL     1      62.080  11.010   3.708  1.00  0.00     0.043 A 
HETATM   17  F   UNL     1      61.491  12.197   1.757  1.00  0.00    -0.206 F 
HETATM   18  C   UNL     1      62.466   9.813   4.311  1.00  0.00     0.012 A 
ENDBRANCH  11  12
ENDBRANCH   1  11
TORSDOF 2
ENDMDL
MODEL 2
REMARK VINA RESULT:      -5.3      1.172      1.717
REMARK  2 active torsions:
REMARK  status: ('A' for Active; 'I' for Inactive)
REMARK    1  A    between atoms: N_1  and  C_3 
REMARK    2  A    between atoms: C_3  and  C_4 
ROOT
HETATM    1  N   UNL     1      64.765   7.225   5.711  1.00  0.00    -0.066 N 
HETATM    2  N   UNL     1      67.859   7.061   6.146  1.00  0.00    -0.073 N 
HETATM    3  C   UNL     1      65.082   6.302   6.802  1.00  0.00     0.237 C 
HETATM    4  C   UNL     1      66.122   5.231   6.464  1.00  0.00     0.055 C 
HETATM    5  C   UNL     1      67.488   5.669   5.939  1.00  0.00     0.234 C 
HETATM    6  C   UNL     1      65.733   8.332   5.603  1.00  0.00     0.262 C 
HETATM    7  C   UNL     1      67.166   7.935   5.197  1.00  0.00     0.260 C 
HETATM    8  H   UNL     1      64.841   6.680   4.853  1.00  0.00     0.280 HD
HETATM    9  H   UNL     1      67.610   7.335   7.097  1.00  0.00     0.277 HD
HETATM   10  H   UNL     1      68.865   7.155   6.002  1.00  0.00     0.277 HD
ENDROOT
BRANCH   1  11
HETATM   11  C   UNL     1      63.378   7.734   5.795  1.00  0.00     0.273 C 
BRANCH  11  12
HETATM   12  C   UNL     1      62.921   8.697   4.712  1.00  0.00    -0.032 A 
HETATM   13  C   UNL     1      62.723   8.256   3.393  1.00  0.00     0.012 A 
HETATM   14  C   UNL     1      62.278   9.139   2.406  1.00  0.00     0.043 A 
HETATM   15  C   UNL     1      62.026  10.464   2.736  1.00  0.00     0.116 A 
HETATM   16  C   UNL     1      62.215  10.926   4.032  1.00  0.00     0.043 A 
HETATM   17  F   UNL     1      61.587  11.308   1.791  1.00  0.00    -0.206 F 
HETATM   18  C   UNL     1      62.662  10.045   5.018  1.00  0.00     0.012 A 
ENDBRANCH  11  12
ENDBRANCH   1  11
TORSDOF 2
ENDMDL
MODEL 3
REMARK VINA RESULT:      -4.9      2.768      4.360
REMARK  2 active torsions:
REMARK  status: ('A' for Active; 'I' for Inactive)
REMARK    1  A    between atoms: N_1  and  C_3 
REMARK    2  A    between atoms: C_3  and  C_4 
ROOT
HETATM    1  N   UNL     1      61.509   6.524   4.602  1.00  0.00    -0.066 N 
HETATM    2  N   UNL     1      59.263   5.905   6.690  1.00  0.00    -0.073 N 
HETATM    3  C   UNL     1      60.208   6.979   4.107  1.00  0.00     0.237 C 
HETATM    4  C   UNL     1      59.095   5.930   4.152  1.00  0.00     0.055 C 
HETATM    5  C   UNL     1      58.771   5.255   5.485  1.00  0.00     0.234 C 
HETATM    6  C   UNL     1      61.620   6.606   6.069  1.00  0.00     0.262 C 
HETATM    7  C   UNL     1      60.698   5.663   6.867  1.00  0.00     0.260 C 
HETATM    8  H   UNL     1      61.573   5.537   4.353  1.00  0.00     0.280 HD
HETATM    9  H   UNL     1      59.099   6.909   6.619  1.00  0.00     0.277 HD
HETATM   10  H   UNL     1      58.766   5.520   7.494  1.00  0.00     0.277 HD
ENDROOT
BRANCH   1  11
HETATM   11  C   UNL     1      62.633   7.224   3.940  1.00  0.00     0.273 C 
BRANCH  11  12
HETATM   12  C   UNL     1      62.345   8.587   3.332  1.00  0.00    -0.032 A 
HETATM   13  C   UNL     1      62.206   9.724   4.145  1.00  0.00     0.012 A 
HETATM   14  C   UNL     1      61.967  10.978   3.580  1.00  0.00     0.043 A 
HETATM   15  C   UNL     1      61.870  11.101   2.200  1.00  0.00     0.116 A 
HETATM   16  C   UNL     1      62.003   9.992   1.374  1.00  0.00     0.043 A 
HETATM   17  F   UNL     1      61.653  12.307   1.658  1.00  0.00    -0.206 F 
HETATM   18  C   UNL     1      62.239   8.738   1.938  1.00  0.00     0.012 A 
ENDBRANCH  11  12
ENDBRANCH   1  11
TORSDOF 2
ENDMDL
MODEL 4
REMARK VINA RESULT:      -4.8      1.204      1.577
REMARK  2 active torsions:
REMARK  status: ('A' for Active; 'I' for Inactive)
REMARK    1  A    between atoms: N_1  and  C_3 
REMARK    2  A    between atoms: C_3  and  C_4 
ROOT
HETATM    1  N   UNL     1      64.893   7.434   6.082  1.00  0.00    -0.066 N 
HETATM    2  N   UNL     1      67.815   6.561   6.778  1.00  0.00    -0.073 N 
HETATM    3  C   UNL     1      65.585   6.953   4.885  1.00  0.00     0.237 C 
HETATM    4  C   UNL     1      66.949   7.595   4.623  1.00  0.00     0.055 C 
HETATM    5  C   UNL     1      68.014   7.535   5.717  1.00  0.00     0.234 C 
HETATM    6  C   UNL     1      65.343   6.755   7.310  1.00  0.00     0.262 C 
HETATM    7  C   UNL     1      66.802   7.022   7.731  1.00  0.00     0.260 C 
HETATM    8  H   UNL     1      65.147   8.417   6.176  1.00  0.00     0.280 HD
HETATM    9  H   UNL     1      67.511   5.677   6.369  1.00  0.00     0.277 HD
HETATM   10  H   UNL     1      68.697   6.436   7.276  1.00  0.00     0.277 HD
ENDROOT
BRANCH   1  11
HETATM   11  C   UNL     1      63.421   7.366   5.942  1.00  0.00     0.273 C 
BRANCH  11  12
HETATM   12  C   UNL     1      62.810   7.982   4.694  1.00  0.00    -0.032 A 
HETATM   13  C   UNL     1      62.202   7.177   3.716  1.00  0.00     0.012 A 
HETATM   14  C   UNL     1      61.620   7.750   2.584  1.00  0.00     0.043 A 
HETATM   15  C   UNL     1      61.639   9.130   2.426  1.00  0.00     0.116 A 
HETATM   16  C   UNL     1      62.235   9.948   3.378  1.00  0.00     0.043 A 
HETATM   17  F   UNL     1      61.069   9.680   1.346  1.00  0.00    -0.206 F 
HETATM   18  C   UNL     1      62.819   9.376   4.508  1.00  0.00     0.012 A 
ENDBRANCH  11  12
ENDBRANCH   1  11
TORSDOF 2
ENDMDL
MODEL 5
REMARK VINA RESULT:      -4.7      2.060      3.156
REMARK  2 active torsions:
REMARK  status: ('A' for Active; 'I' for Inactive)
REMARK    1  A    between atoms: N_1  and  C_3 
REMARK    2  A    between atoms: C_3  and  C_4 
ROOT
HETATM    1  N   UNL     1      63.019   6.783   5.462  1.00  0.00    -0.066 N 
HETATM    2  N   UNL     1      62.486   3.826   6.331  1.00  0.00    -0.073 N 
HETATM    3  C   UNL     1      61.750   6.681   6.187  1.00  0.00     0.237 C 
HETATM    4  C   UNL     1      60.793   5.605   5.670  1.00  0.00     0.055 C 
HETATM    5  C   UNL     1      61.286   4.162   5.579  1.00  0.00     0.234 C 
HETATM    6  C   UNL     1      64.018   5.805   5.924  1.00  0.00     0.262 C 
HETATM    7  C   UNL     1      63.686   4.324   5.654  1.00  0.00     0.260 C 
HETATM    8  H   UNL     1      62.804   6.554   4.492  1.00  0.00     0.280 HD
HETATM    9  H   UNL     1      62.427   4.245   7.259  1.00  0.00     0.277 HD
HETATM   10  H   UNL     1      62.551   2.810   6.404  1.00  0.00     0.277 HD
ENDROOT
BRANCH   1  11
HETATM   11  C   UNL     1      63.565   8.158   5.484  1.00  0.00     0.273 C 
BRANCH  11  12
HETATM   12  C   UNL     1      62.979   9.159   4.501  1.00  0.00    -0.032 A 
HETATM   13  C   UNL     1      62.719   8.792   3.170  1.00  0.00     0.012 A 
HETATM   14  C   UNL     1      62.157   9.707   2.277  1.00  0.00     0.043 A 
HETATM   15  C   UNL     1      61.849  10.989   2.712  1.00  0.00     0.116 A 
HETATM   16  C   UNL     1      62.097  11.377   4.023  1.00  0.00     0.043 A 
HETATM   17  F   UNL     1      61.298  11.862   1.858  1.00  0.00    -0.206 F 
HETATM   18  C   UNL     1      62.661  10.464   4.915  1.00  0.00     0.012 A 
ENDBRANCH  11  12
ENDBRANCH   1  11
TORSDOF 2
ENDMDL
MODEL 6
REMARK VINA RESULT:      -4.6      2.207      3.589
REMARK  2 active torsions:
REMARK  status: ('A' for Active; 'I' for Inactive)
REMARK    1  A    between atoms: N_1  and  C_3 
REMARK    2  A    between atoms: C_3  and  C_4 
ROOT
HETATM    1  N   UNL     1      67.175   6.613   6.478  1.00  0.00    -0.066 N 
HETATM    2  N   UNL     1      66.417   4.611   8.759  1.00  0.00    -0.073 N 
HETATM    3  C   UNL     1      67.243   5.233   5.994  1.00  0.00     0.237 C 
HETATM    4  C   UNL     1      68.075   4.283   6.859  1.00  0.00     0.055 C 
HETATM    5  C   UNL     1      67.728   4.141   8.341  1.00  0.00     0.234 C 
HETATM    6  C   UNL     1      66.143   6.803   7.513  1.00  0.00     0.262 C 
HETATM    7  C   UNL     1      66.388   6.074   8.849  1.00  0.00     0.260 C 
HETATM    8  H   UNL     1      68.076   6.800   6.918  1.00  0.00     0.280 HD
HETATM    9  H   UNL     1      65.719   4.304   8.082  1.00  0.00     0.277 HD
HETATM   10  H   UNL     1      66.211   4.224   9.681  1.00  0.00     0.277 HD
ENDROOT
BRANCH   1  11
HETATM   11  C   UNL     1      67.010   7.584   5.373  1.00  0.00     0.273 C 
BRANCH  11  12
HETATM   12  C   UNL     1      65.630   7.698   4.745  1.00  0.00    -0.032 A 
HETATM   13  C   UNL     1      64.759   8.740   5.104  1.00  0.00     0.012 A 
HETATM   14  C   UNL     1      63.503   8.855   4.505  1.00  0.00     0.043 A 
HETATM   15  C   UNL     1      63.114   7.932   3.543  1.00  0.00     0.116 A 
HETATM   16  C   UNL     1      63.957   6.891   3.171  1.00  0.00     0.043 A 
HETATM   17  F   UNL     1      61.914   8.050   2.960  1.00  0.00    -0.206 F 
HETATM   18  C   UNL     1      65.211   6.774   3.770  1.00  0.00     0.012 A 
ENDBRANCH  11  12
ENDBRANCH   1  11
TORSDOF 2
ENDMDL
MODEL 7
REMARK VINA RESULT:      -4.6      3.214      5.970
REMARK  2 active torsions:
REMARK  status: ('A' for Active; 'I' for Inactive)
REMARK    1  A    between atoms: N_1  and  C_3 
REMARK    2  A    between atoms: C_3  and  C_4 
ROOT
HETATM    1  N   UNL     1      62.129   8.207   4.165  1.00  0.00    -0.066 N 
HETATM    2  N   UNL     1      60.019   8.255   1.856  1.00  0.00    -0.073 N 
HETATM    3  C   UNL     1      61.893   9.580   3.713  1.00  0.00     0.237 C 
HETATM    4  C   UNL     1      62.013   9.794   2.202  1.00  0.00     0.055 C 
HETATM    5  C   UNL     1      61.157   8.942   1.266  1.00  0.00     0.234 C 
HETATM    6  C   UNL     1      60.933   7.355   4.044  1.00  0.00     0.262 C 
HETATM    7  C   UNL     1      60.451   7.073   2.607  1.00  0.00     0.260 C 
HETATM    8  H   UNL     1      62.833   7.823   3.536  1.00  0.00     0.280 HD
HETATM    9  H   UNL     1      59.533   8.893   2.487  1.00  0.00     0.277 HD
HETATM   10  H   UNL     1      59.395   7.954   1.106  1.00  0.00     0.277 HD
ENDROOT
BRANCH   1  11
HETATM   11  C   UNL     1      62.683   8.159   5.537  1.00  0.00     0.273 C 
BRANCH  11  12
HETATM   12  C   UNL     1      64.118   7.683   5.693  1.00  0.00    -0.032 A 
HETATM   13  C   UNL     1      65.149   8.235   4.913  1.00  0.00     0.012 A 
HETATM   14  C   UNL     1      66.470   7.812   5.079  1.00  0.00     0.043 A 
HETATM   15  C   UNL     1      66.765   6.840   6.026  1.00  0.00     0.116 A 
HETATM   16  C   UNL     1      65.765   6.278   6.808  1.00  0.00     0.043 A 
HETATM   17  F   UNL     1      68.035   6.444   6.192  1.00  0.00    -0.206 F 
HETATM   18  C   UNL     1      64.444   6.698   6.642  1.00  0.00     0.012 A 
ENDBRANCH  11  12
ENDBRANCH   1  11
TORSDOF 2
ENDMDL
MODEL 8
REMARK VINA RESULT:      -4.5      2.718      4.194
REMARK  2 active torsions:
REMARK  status: ('A' for Active; 'I' for Inactive)
REMARK    1  A    between atoms: N_1  and  C_3 
REMARK    2  A    between atoms: C_3  and  C_4 
ROOT
HETATM    1  N   UNL     1      61.833   6.284   3.919  1.00  0.00    -0.066 N 
HETATM    2  N   UNL     1      60.475   3.474   4.133  1.00  0.00    -0.073 N 
HETATM    3  C   UNL     1      60.569   6.379   4.651  1.00  0.00     0.237 C 
HETATM    4  C   UNL     1      59.363   5.753   3.946  1.00  0.00     0.055 C 
HETATM    5  C   UNL     1      59.437   4.287   3.520  1.00  0.00     0.234 C 
HETATM    6  C   UNL     1      62.508   4.989   4.116  1.00  0.00     0.262 C 
HETATM    7  C   UNL     1      61.784   3.757   3.538  1.00  0.00     0.260 C 
HETATM    8  H   UNL     1      61.589   6.344   2.930  1.00  0.00     0.280 HD
HETATM    9  H   UNL     1      60.511   3.675   5.133  1.00  0.00     0.277 HD
HETATM   10  H   UNL     1      60.252   2.490   3.978  1.00  0.00     0.277 HD
ENDROOT
BRANCH   1  11
HETATM   11  C   UNL     1      62.740   7.412   4.223  1.00  0.00     0.273 C 
BRANCH  11  12
HETATM   12  C   UNL     1      62.482   8.728   3.507  1.00  0.00    -0.032 A 
HETATM   13  C   UNL     1      62.380   8.778   2.106  1.00  0.00     0.012 A 
HETATM   14  C   UNL     1      62.118   9.985   1.455  1.00  0.00     0.043 A 
HETATM   15  C   UNL     1      61.953  11.145   2.200  1.00  0.00     0.116 A 
HETATM   16  C   UNL     1      62.050  11.123   3.585  1.00  0.00     0.043 A 
HETATM   17  F   UNL     1      61.689  12.300   1.574  1.00  0.00    -0.206 F 
HETATM   18  C   UNL     1      62.315   9.918   4.237  1.00  0.00     0.012 A 
ENDBRANCH  11  12
ENDBRANCH   1  11
TORSDOF 2
ENDMDL
MODEL 9
REMARK VINA RESULT:      -4.3      2.181      3.339
REMARK  2 active torsions:
REMARK  status: ('A' for Active; 'I' for Inactive)
REMARK    1  A    between atoms: N_1  and  C_3 
REMARK    2  A    between atoms: C_3  and  C_4 
ROOT
HETATM    1  N   UNL     1      63.266   6.640   5.917  1.00  0.00    -0.066 N 
HETATM    2  N   UNL     1      60.938   4.558   6.107  1.00  0.00    -0.073 N 
HETATM    3  C   UNL     1      63.533   5.489   5.052  1.00  0.00     0.237 C 
HETATM    4  C   UNL     1      63.416   4.124   5.734  1.00  0.00     0.055 C 
HETATM    5  C   UNL     1      62.110   3.763   6.440  1.00  0.00     0.234 C 
HETATM    6  C   UNL     1      61.828   6.932   6.045  1.00  0.00     0.262 C 
HETATM    7  C   UNL     1      60.986   5.864   6.770  1.00  0.00     0.260 C 
HETATM    8  H   UNL     1      63.600   6.376   6.844  1.00  0.00     0.280 HD
HETATM    9  H   UNL     1      60.904   4.697   5.097  1.00  0.00     0.277 HD
HETATM   10  H   UNL     1      60.106   4.061   6.426  1.00  0.00     0.277 HD
ENDROOT
BRANCH   1  11
HETATM   11  C   UNL     1      64.021   7.841   5.497  1.00  0.00     0.273 C 
BRANCH  11  12
HETATM   12  C   UNL     1      63.283   8.872   4.658  1.00  0.00    -0.032 A 
HETATM   13  C   UNL     1      62.946  10.127   5.191  1.00  0.00     0.012 A 
HETATM   14  C   UNL     1      62.290  11.079   4.408  1.00  0.00     0.043 A 
HETATM   15  C   UNL     1      61.972  10.782   3.089  1.00  0.00     0.116 A 
HETATM   16  C   UNL     1      62.293   9.548   2.539  1.00  0.00     0.043 A 
HETATM   17  F   UNL     1      61.354  11.702   2.335  1.00  0.00    -0.206 F 
HETATM   18  C   UNL     1      62.946   8.595   3.321  1.00  0.00     0.012 A 
ENDBRANCH  11  12
ENDBRANCH   1  11
TORSDOF 2
ENDMDL
