MODEL 1
REMARK VINA RESULT:      -5.7      0.000      0.000
REMARK  5 active torsions:
REMARK  status: ('A' for Active; 'I' for Inactive)
REMARK    1  A    between atoms: N_1  and  C_3 
REMARK    2  A    between atoms: N_2  and  C_15 
REMARK    3  A    between atoms: C_3  and  C_8 
REMARK    4  A    between atoms: C_15  and  C_17 
REMARK    5  A    between atoms: O_16  and  C_17 
ROOT
HETATM    1  N   UNL     1      64.301   8.037   5.784  1.00  0.00    -0.064 N 
HETATM    2  N   UNL     1      66.606   6.031   5.508  1.00  0.00    -0.066 N 
HETATM    3  C   UNL     1      65.564   8.352   5.085  1.00  0.00     0.263 C 
HETATM    4  C   UNL     1      64.562   6.964   6.767  1.00  0.00     0.263 C 
HETATM    5  C   UNL     1      66.358   7.132   4.548  1.00  0.00     0.262 C 
HETATM    6  C   UNL     1      65.357   5.738   6.242  1.00  0.00     0.262 C 
HETATM    7  H   UNL     1      63.979   8.881   6.259  1.00  0.00     0.280 HD
HETATM    8  H   UNL     1      66.873   5.186   5.002  1.00  0.00     0.280 HD
ENDROOT
BRANCH   1   9
HETATM    9  C   UNL     1      63.208   7.670   4.867  1.00  0.00     0.273 C 
BRANCH   9  10
HETATM   10  C   UNL     1      62.646   8.824   4.049  1.00  0.00    -0.032 A 
HETATM   11  C   UNL     1      62.451  10.084   4.641  1.00  0.00     0.012 A 
HETATM   12  C   UNL     1      62.066  11.186   3.867  1.00  0.00     0.043 A 
HETATM   13  C   UNL     1      61.869  11.030   2.501  1.00  0.00     0.116 A 
HETATM   14  C   UNL     1      62.036   9.792   1.894  1.00  0.00     0.043 A 
HETATM   15  F   UNL     1      61.531  12.094   1.756  1.00  0.00    -0.206 F 
HETATM   16  C   UNL     1      62.423   8.690   2.670  1.00  0.00     0.012 A 
ENDBRANCH   9  10
ENDBRANCH   1   9
BRANCH   2  17
HETATM   17  C   UNL     1      67.753   6.327   6.394  1.00  0.00     0.260 C 
BRANCH  17  18
HETATM   18  C   UNL     1      67.684   5.559   7.728  1.00  0.00     0.192 C 
BRANCH  18  19
HETATM   19  O   UNL     1      68.072   6.405   8.807  1.00  0.00    -0.399 OA
HETATM   20  H   UNL     1      68.888   6.875   8.573  1.00  0.00     0.209 HD
ENDBRANCH  18  19
ENDBRANCH  17  18
ENDBRANCH   2  17
TORSDOF 5
ENDMDL
MODEL 2
REMARK VINA RESULT:      -4.6      3.389      4.166
REMARK  5 active torsions:
REMARK  status: ('A' for Active; 'I' for Inactive)
REMARK    1  A    between atoms: N_1  and  C_3 
REMARK    2  A    between atoms: N_2  and  C_15 
REMARK    3  A    between atoms: C_3  and  C_8 
REMARK    4  A    between atoms: C_15  and  C_17 
REMARK    5  A    between atoms: O_16  and  C_17 
ROOT
HETATM    1  N   UNL     1      62.393   7.071   5.421  1.00  0.00    -0.064 N 
HETATM    2  N   UNL     1      61.850   4.083   5.864  1.00  0.00    -0.066 N 
HETATM    3  C   UNL     1      63.297   6.193   6.191  1.00  0.00     0.263 C 
HETATM    4  C   UNL     1      61.032   6.491   5.457  1.00  0.00     0.263 C 
HETATM    5  C   UNL     1      63.207   4.679   5.863  1.00  0.00     0.262 C 
HETATM    6  C   UNL     1      60.928   4.977   5.132  1.00  0.00     0.262 C 
HETATM    7  H   UNL     1      62.394   7.993   5.856  1.00  0.00     0.280 HD
HETATM    8  H   UNL     1      61.867   3.188   5.377  1.00  0.00     0.280 HD
ENDROOT
BRANCH   1   9
HETATM    9  C   UNL     1      62.843   7.296   4.037  1.00  0.00     0.273 C 
BRANCH   9  10
HETATM   10  C   UNL     1      62.403   8.620   3.429  1.00  0.00    -0.032 A 
HETATM   11  C   UNL     1      62.272   9.762   4.237  1.00  0.00     0.012 A 
HETATM   12  C   UNL     1      62.004  11.014   3.669  1.00  0.00     0.043 A 
HETATM   13  C   UNL     1      61.859  11.125   2.291  1.00  0.00     0.116 A 
HETATM   14  C   UNL     1      61.965  10.009   1.472  1.00  0.00     0.043 A 
HETATM   15  F   UNL     1      61.633  12.329   1.746  1.00  0.00    -0.206 F 
HETATM   16  C   UNL     1      62.236   8.757   2.043  1.00  0.00     0.012 A 
ENDBRANCH   9  10
ENDBRANCH   1   9
BRANCH   2  17
HETATM   17  C   UNL     1      61.395   3.765   7.236  1.00  0.00     0.260 C 
BRANCH  17  18
HETATM   18  C   UNL     1      59.904   3.383   7.290  1.00  0.00     0.192 C 
BRANCH  18  19
HETATM   19  O   UNL     1      59.423   3.455   8.630  1.00  0.00    -0.399 OA
HETATM   20  H   UNL     1      59.637   4.324   9.005  1.00  0.00     0.209 HD
ENDBRANCH  18  19
ENDBRANCH  17  18
ENDBRANCH   2  17
TORSDOF 5
ENDMDL
MODEL 3
REMARK VINA RESULT:      -4.4      2.021      2.746
REMARK  5 active torsions:
REMARK  status: ('A' for Active; 'I' for Inactive)
REMARK    1  A    between atoms: N_1  and  C_3 
REMARK    2  A    between atoms: N_2  and  C_15 
REMARK    3  A    between atoms: C_3  and  C_8 
REMARK    4  A    between atoms: C_15  and  C_17 
REMARK    5  A    between atoms: O_16  and  C_17 
ROOT
HETATM    1  N   UNL     1      65.007   6.476   5.964  1.00  0.00    -0.064 N 
HETATM    2  N   UNL     1      66.024   4.580   8.152  1.00  0.00    -0.066 N 
HETATM    3  C   UNL     1      64.962   5.005   5.840  1.00  0.00     0.263 C 
HETATM    4  C   UNL     1      66.086   6.835   6.910  1.00  0.00     0.263 C 
HETATM    5  C   UNL     1      64.970   4.216   7.177  1.00  0.00     0.262 C 
HETATM    6  C   UNL     1      66.105   6.053   8.251  1.00  0.00     0.262 C 
HETATM    7  H   UNL     1      65.200   6.869   5.043  1.00  0.00     0.280 HD
HETATM    8  H   UNL     1      65.779   4.221   9.075  1.00  0.00     0.280 HD
ENDROOT
BRANCH   1   9
HETATM    9  C   UNL     1      63.719   7.062   6.372  1.00  0.00     0.273 C 
BRANCH   9  10
HETATM   10  C   UNL     1      62.895   7.648   5.235  1.00  0.00    -0.032 A 
HETATM   11  C   UNL     1      63.386   8.734   4.489  1.00  0.00     0.012 A 
HETATM   12  C   UNL     1      62.703   9.192   3.356  1.00  0.00     0.043 A 
HETATM   13  C   UNL     1      61.522   8.569   2.969  1.00  0.00     0.116 A 
HETATM   14  C   UNL     1      61.005   7.506   3.698  1.00  0.00     0.043 A 
HETATM   15  F   UNL     1      60.886   8.989   1.865  1.00  0.00    -0.206 F 
HETATM   16  C   UNL     1      61.692   7.048   4.831  1.00  0.00     0.012 A 
ENDBRANCH   9  10
ENDBRANCH   1   9
BRANCH   2  17
HETATM   17  C   UNL     1      67.317   3.940   7.822  1.00  0.00     0.260 C 
BRANCH  17  18
HETATM   18  C   UNL     1      68.062   3.434   9.072  1.00  0.00     0.192 C 
BRANCH  18  19
HETATM   19  O   UNL     1      67.372   2.326   9.644  1.00  0.00    -0.399 OA
HETATM   20  H   UNL     1      66.561   2.153   9.140  1.00  0.00     0.209 HD
ENDBRANCH  18  19
ENDBRANCH  17  18
ENDBRANCH   2  17
TORSDOF 5
ENDMDL
MODEL 4
REMARK VINA RESULT:      -4.4      3.349      4.049
REMARK  5 active torsions:
REMARK  status: ('A' for Active; 'I' for Inactive)
REMARK    1  A    between atoms: N_1  and  C_3 
REMARK    2  A    between atoms: N_2  and  C_15 
REMARK    3  A    between atoms: C_3  and  C_8 
REMARK    4  A    between atoms: C_15  and  C_17 
REMARK    5  A    between atoms: O_16  and  C_17 
ROOT
HETATM    1  N   UNL     1      62.317   7.295   3.786  1.00  0.00    -0.064 N 
HETATM    2  N   UNL     1      64.305   7.953   6.029  1.00  0.00    -0.066 N 
HETATM    3  C   UNL     1      62.488   6.449   4.985  1.00  0.00     0.263 C 
HETATM    4  C   UNL     1      63.567   8.054   3.564  1.00  0.00     0.263 C 
HETATM    5  C   UNL     1      63.068   7.162   6.235  1.00  0.00     0.262 C 
HETATM    6  C   UNL     1      64.158   8.771   4.807  1.00  0.00     0.262 C 
HETATM    7  H   UNL     1      62.127   6.687   2.989  1.00  0.00     0.280 HD
HETATM    8  H   UNL     1      64.441   8.589   6.814  1.00  0.00     0.280 HD
ENDROOT
BRANCH   1   9
HETATM    9  C   UNL     1      61.153   8.193   3.873  1.00  0.00     0.273 C 
BRANCH   9  10
HETATM   10  C   UNL     1      59.927   7.726   3.102  1.00  0.00    -0.032 A 
HETATM   11  C   UNL     1      58.727   7.445   3.778  1.00  0.00     0.012 A 
HETATM   12  C   UNL     1      57.557   7.149   3.068  1.00  0.00     0.043 A 
HETATM   13  C   UNL     1      57.585   7.127   1.679  1.00  0.00     0.116 A 
HETATM   14  C   UNL     1      58.761   7.381   0.986  1.00  0.00     0.043 A 
HETATM   15  F   UNL     1      56.456   6.874   1.000  1.00  0.00    -0.206 F 
HETATM   16  C   UNL     1      59.931   7.680   1.699  1.00  0.00     0.012 A 
ENDBRANCH   9  10
ENDBRANCH   1   9
BRANCH   2  17
HETATM   17  C   UNL     1      65.508   7.092   6.021  1.00  0.00     0.260 C 
BRANCH  17  18
HETATM   18  C   UNL     1      66.520   7.480   7.115  1.00  0.00     0.192 C 
BRANCH  18  19
HETATM   19  O   UNL     1      66.900   8.847   6.976  1.00  0.00    -0.399 OA
HETATM   20  H   UNL     1      66.490   9.218   6.178  1.00  0.00     0.209 HD
ENDBRANCH  18  19
ENDBRANCH  17  18
ENDBRANCH   2  17
TORSDOF 5
ENDMDL
MODEL 5
REMARK VINA RESULT:      -4.3      1.738      2.363
REMARK  5 active torsions:
REMARK  status: ('A' for Active; 'I' for Inactive)
REMARK    1  A    between atoms: N_1  and  C_3 
REMARK    2  A    between atoms: N_2  and  C_15 
REMARK    3  A    between atoms: C_3  and  C_8 
REMARK    4  A    between atoms: C_15  and  C_17 
REMARK    5  A    between atoms: O_16  and  C_17 
ROOT
HETATM    1  N   UNL     1      64.508   7.305   4.357  1.00  0.00    -0.064 N 
HETATM    2  N   UNL     1      66.075   7.084   6.986  1.00  0.00    -0.066 N 
HETATM    3  C   UNL     1      64.584   6.059   5.147  1.00  0.00     0.263 C 
HETATM    4  C   UNL     1      65.697   8.129   4.663  1.00  0.00     0.263 C 
HETATM    5  C   UNL     1      64.905   6.237   6.655  1.00  0.00     0.262 C 
HETATM    6  C   UNL     1      66.029   8.314   6.168  1.00  0.00     0.262 C 
HETATM    7  H   UNL     1      64.495   7.057   3.368  1.00  0.00     0.280 HD
HETATM    8  H   UNL     1      66.034   7.362   7.966  1.00  0.00     0.280 HD
ENDROOT
BRANCH   1   9
HETATM    9  C   UNL     1      63.262   8.058   4.582  1.00  0.00     0.273 C 
BRANCH   9  10
HETATM   10  C   UNL     1      62.308   8.082   3.397  1.00  0.00    -0.032 A 
HETATM   11  C   UNL     1      61.016   7.541   3.514  1.00  0.00     0.012 A 
HETATM   12  C   UNL     1      60.085   7.681   2.478  1.00  0.00     0.043 A 
HETATM   13  C   UNL     1      60.444   8.358   1.319  1.00  0.00     0.116 A 
HETATM   14  C   UNL     1      61.719   8.886   1.169  1.00  0.00     0.043 A 
HETATM   15  F   UNL     1      59.540   8.518   0.340  1.00  0.00    -0.206 F 
HETATM   16  C   UNL     1      62.650   8.746   2.208  1.00  0.00     0.012 A 
ENDBRANCH   9  10
ENDBRANCH   1   9
BRANCH   2  17
HETATM   17  C   UNL     1      67.345   6.336   6.853  1.00  0.00     0.260 C 
BRANCH  17  18
HETATM   18  C   UNL     1      67.691   5.529   8.118  1.00  0.00     0.192 C 
BRANCH  18  19
HETATM   19  O   UNL     1      68.074   6.406   9.175  1.00  0.00    -0.399 OA
HETATM   20  H   UNL     1      68.749   5.976   9.724  1.00  0.00     0.209 HD
ENDBRANCH  18  19
ENDBRANCH  17  18
ENDBRANCH   2  17
TORSDOF 5
ENDMDL
MODEL 6
REMARK VINA RESULT:      -4.3      4.444      7.150
REMARK  5 active torsions:
REMARK  status: ('A' for Active; 'I' for Inactive)
REMARK    1  A    between atoms: N_1  and  C_3 
REMARK    2  A    between atoms: N_2  and  C_15 
REMARK    3  A    between atoms: C_3  and  C_8 
REMARK    4  A    between atoms: C_15  and  C_17 
REMARK    5  A    between atoms: O_16  and  C_17 
ROOT
HETATM    1  N   UNL     1      63.728   7.014   4.644  1.00  0.00    -0.064 N 
HETATM    2  N   UNL     1      62.260   8.399   2.332  1.00  0.00    -0.066 N 
HETATM    3  C   UNL     1      63.169   6.281   3.490  1.00  0.00     0.263 C 
HETATM    4  C   UNL     1      62.982   8.282   4.801  1.00  0.00     0.263 C 
HETATM    5  C   UNL     1      62.979   7.110   2.193  1.00  0.00     0.262 C 
HETATM    6  C   UNL     1      62.785   9.121   3.510  1.00  0.00     0.262 C 
HETATM    7  H   UNL     1      63.618   6.434   5.476  1.00  0.00     0.280 HD
HETATM    8  H   UNL     1      62.432   8.979   1.511  1.00  0.00     0.280 HD
ENDROOT
BRANCH   1   9
HETATM    9  C   UNL     1      65.176   7.255   4.530  1.00  0.00     0.273 C 
BRANCH   9  10
HETATM   10  C   UNL     1      65.980   6.919   5.778  1.00  0.00    -0.032 A 
HETATM   11  C   UNL     1      65.351   6.868   7.034  1.00  0.00     0.012 A 
HETATM   12  C   UNL     1      66.047   6.427   8.166  1.00  0.00     0.043 A 
HETATM   13  C   UNL     1      67.377   6.041   8.046  1.00  0.00     0.116 A 
HETATM   14  C   UNL     1      68.028   6.100   6.821  1.00  0.00     0.043 A 
HETATM   15  F   UNL     1      68.033   5.589   9.125  1.00  0.00    -0.206 F 
HETATM   16  C   UNL     1      67.328   6.540   5.688  1.00  0.00     0.012 A 
ENDBRANCH   9  10
ENDBRANCH   1   9
BRANCH   2  17
HETATM   17  C   UNL     1      60.794   8.205   2.365  1.00  0.00     0.260 C 
BRANCH  17  18
HETATM   18  C   UNL     1      60.168   8.189   0.958  1.00  0.00     0.192 C 
BRANCH  18  19
HETATM   19  O   UNL     1      58.818   8.645   1.012  1.00  0.00    -0.399 OA
HETATM   20  H   UNL     1      58.801   9.614   0.963  1.00  0.00     0.209 HD
ENDBRANCH  18  19
ENDBRANCH  17  18
ENDBRANCH   2  17
TORSDOF 5
ENDMDL
MODEL 7
REMARK VINA RESULT:      -4.3     11.294     13.224
REMARK  5 active torsions:
REMARK  status: ('A' for Active; 'I' for Inactive)
REMARK    1  A    between atoms: N_1  and  C_3 
REMARK    2  A    between atoms: N_2  and  C_15 
REMARK    3  A    between atoms: C_3  and  C_8 
REMARK    4  A    between atoms: C_15  and  C_17 
REMARK    5  A    between atoms: O_16  and  C_17 
ROOT
HETATM    1  N   UNL     1      59.741   0.872  12.131  1.00  0.00    -0.064 N 
HETATM    2  N   UNL     1      57.000   0.943  13.508  1.00  0.00    -0.066 N 
HETATM    3  C   UNL     1      59.478   1.642  13.364  1.00  0.00     0.263 C 
HETATM    4  C   UNL     1      58.465   0.699  11.404  1.00  0.00     0.263 C 
HETATM    5  C   UNL     1      58.282   1.152  14.221  1.00  0.00     0.262 C 
HETATM    6  C   UNL     1      57.259   0.209  12.251  1.00  0.00     0.262 C 
HETATM    7  H   UNL     1      60.404   1.397  11.561  1.00  0.00     0.280 HD
HETATM    8  H   UNL     1      56.377   0.371  14.078  1.00  0.00     0.280 HD
ENDROOT
BRANCH   1   9
HETATM    9  C   UNL     1      60.393  -0.424  12.386  1.00  0.00     0.273 C 
BRANCH   9  10
HETATM   10  C   UNL     1      61.843  -0.510  11.932  1.00  0.00    -0.032 A 
HETATM   11  C   UNL     1      62.178  -0.299  10.583  1.00  0.00     0.012 A 
HETATM   12  C   UNL     1      63.517  -0.239  10.179  1.00  0.00     0.043 A 
HETATM   13  C   UNL     1      64.526  -0.395  11.122  1.00  0.00     0.116 A 
HETATM   14  C   UNL     1      64.223  -0.623  12.458  1.00  0.00     0.043 A 
HETATM   15  F   UNL     1      65.808  -0.305  10.738  1.00  0.00    -0.206 F 
HETATM   16  C   UNL     1      62.881  -0.681  12.861  1.00  0.00     0.012 A 
ENDBRANCH   9  10
ENDBRANCH   1   9
BRANCH   2  17
HETATM   17  C   UNL     1      56.273   2.216  13.307  1.00  0.00     0.260 C 
BRANCH  17  18
HETATM   18  C   UNL     1      54.998   2.311  14.165  1.00  0.00     0.192 C 
BRANCH  18  19
HETATM   19  O   UNL     1      55.015   3.503  14.947  1.00  0.00    -0.399 OA
HETATM   20  H   UNL     1      54.543   3.351  15.781  1.00  0.00     0.209 HD
ENDBRANCH  18  19
ENDBRANCH  17  18
ENDBRANCH   2  17
TORSDOF 5
ENDMDL
MODEL 8
REMARK VINA RESULT:      -4.2      3.021      3.667
REMARK  5 active torsions:
REMARK  status: ('A' for Active; 'I' for Inactive)
REMARK    1  A    between atoms: N_1  and  C_3 
REMARK    2  A    between atoms: N_2  and  C_15 
REMARK    3  A    between atoms: C_3  and  C_8 
REMARK    4  A    between atoms: C_15  and  C_17 
REMARK    5  A    between atoms: O_16  and  C_17 
ROOT
HETATM    1  N   UNL     1      62.581   6.576   4.884  1.00  0.00    -0.064 N 
HETATM    2  N   UNL     1      61.905   3.779   5.950  1.00  0.00    -0.066 N 
HETATM    3  C   UNL     1      63.441   5.397   4.656  1.00  0.00     0.263 C 
HETATM    4  C   UNL     1      61.785   6.346   6.109  1.00  0.00     0.263 C 
HETATM    5  C   UNL     1      62.733   4.019   4.745  1.00  0.00     0.262 C 
HETATM    6  C   UNL     1      61.072   4.971   6.211  1.00  0.00     0.262 C 
HETATM    7  H   UNL     1      63.182   7.392   5.001  1.00  0.00     0.280 HD
HETATM    8  H   UNL     1      61.278   2.992   5.786  1.00  0.00     0.280 HD
ENDROOT
BRANCH   1   9
HETATM    9  C   UNL     1      61.717   6.893   3.735  1.00  0.00     0.273 C 
BRANCH   9  10
HETATM   10  C   UNL     1      61.877   8.304   3.185  1.00  0.00    -0.032 A 
HETATM   11  C   UNL     1      61.875   8.530   1.798  1.00  0.00     0.012 A 
HETATM   12  C   UNL     1      61.882   9.832   1.285  1.00  0.00     0.043 A 
HETATM   13  C   UNL     1      61.898  10.913   2.158  1.00  0.00     0.116 A 
HETATM   14  C   UNL     1      61.919  10.719   3.533  1.00  0.00     0.043 A 
HETATM   15  F   UNL     1      61.873  12.161   1.665  1.00  0.00    -0.206 F 
HETATM   16  C   UNL     1      61.910   9.413   4.045  1.00  0.00     0.012 A 
ENDBRANCH   9  10
ENDBRANCH   1   9
BRANCH   2  17
HETATM   17  C   UNL     1      62.733   3.375   7.109  1.00  0.00     0.260 C 
BRANCH  17  18
HETATM   18  C   UNL     1      63.509   2.069   6.853  1.00  0.00     0.192 C 
BRANCH  18  19
HETATM   19  O   UNL     1      64.419   1.818   7.922  1.00  0.00    -0.399 OA
HETATM   20  H   UNL     1      63.923   1.661   8.741  1.00  0.00     0.209 HD
ENDBRANCH  18  19
ENDBRANCH  17  18
ENDBRANCH   2  17
TORSDOF 5
ENDMDL
MODEL 9
REMARK VINA RESULT:      -4.0     13.200     15.086
REMARK  5 active torsions:
REMARK  status: ('A' for Active; 'I' for Inactive)
REMARK    1  A    between atoms: N_1  and  C_3 
REMARK    2  A    between atoms: N_2  and  C_15 
REMARK    3  A    between atoms: C_3  and  C_8 
REMARK    4  A    between atoms: C_15  and  C_17 
REMARK    5  A    between atoms: O_16  and  C_17 
ROOT
HETATM    1  N   UNL     1      54.976   1.447  13.064  1.00  0.00    -0.064 N 
HETATM    2  N   UNL     1      53.130   3.619  14.201  1.00  0.00    -0.066 N 
HETATM    3  C   UNL     1      55.206   2.891  12.853  1.00  0.00     0.263 C 
HETATM    4  C   UNL     1      53.535   1.233  13.321  1.00  0.00     0.263 C 
HETATM    5  C   UNL     1      54.566   3.835  13.906  1.00  0.00     0.262 C 
HETATM    6  C   UNL     1      52.883   2.172  14.371  1.00  0.00     0.262 C 
HETATM    7  H   UNL     1      55.262   0.951  12.220  1.00  0.00     0.280 HD
HETATM    8  H   UNL     1      52.885   4.081  15.077  1.00  0.00     0.280 HD
ENDROOT
BRANCH   1   9
HETATM    9  C   UNL     1      55.803   0.881  14.144  1.00  0.00     0.273 C 
BRANCH   9  10
HETATM   10  C   UNL     1      57.268   0.676  13.785  1.00  0.00    -0.032 A 
HETATM   11  C   UNL     1      57.674  -0.474  13.089  1.00  0.00     0.012 A 
HETATM   12  C   UNL     1      58.991  -0.608  12.633  1.00  0.00     0.043 A 
HETATM   13  C   UNL     1      59.908   0.406  12.879  1.00  0.00     0.116 A 
HETATM   14  C   UNL     1      59.539   1.545  13.582  1.00  0.00     0.043 A 
HETATM   15  F   UNL     1      61.162   0.290  12.415  1.00  0.00    -0.206 F 
HETATM   16  C   UNL     1      58.218   1.678  14.035  1.00  0.00     0.012 A 
ENDBRANCH   9  10
ENDBRANCH   1   9
BRANCH   2  17
HETATM   17  C   UNL     1      52.263   4.248  13.180  1.00  0.00     0.260 C 
BRANCH  17  18
HETATM   18  C   UNL     1      51.466   5.443  13.736  1.00  0.00     0.192 C 
BRANCH  18  19
HETATM   19  O   UNL     1      52.266   6.624  13.713  1.00  0.00    -0.399 OA
HETATM   20  H   UNL     1      52.003   7.179  12.962  1.00  0.00     0.209 HD
ENDBRANCH  18  19
ENDBRANCH  17  18
ENDBRANCH   2  17
TORSDOF 5
ENDMDL
