MODEL 1
REMARK VINA RESULT:      -4.7      0.000      0.000
REMARK  1 active torsions:
REMARK  status: ('A' for Active; 'I' for Inactive)
REMARK       I    between atoms: C_1  and  N_2 
REMARK    1  A    between atoms: C_1  and  C_3 
ROOT
HETATM    1  C   UNL     1      63.866   9.061   5.069  1.00  0.00     0.260 C 
HETATM    2  N   UNL     1      62.620   9.082   4.411  1.00  0.00    -0.346 N 
HETATM    3  O   UNL     1      64.308  10.087   5.588  1.00  0.00    -0.267 OA
HETATM    4  N   UNL     1      60.945   8.977   1.863  1.00  0.00    -0.074 N 
HETATM    5  C   UNL     1      61.910  10.349   4.301  1.00  0.00     0.128 C 
HETATM    6  C   UNL     1      61.871   7.902   3.967  1.00  0.00     0.153 C 
HETATM    7  C   UNL     1      62.043  11.018   2.938  1.00  0.00     0.047 C 
HETATM    8  C   UNL     1      61.804  10.147   1.700  1.00  0.00     0.234 C 
HETATM    9  C   UNL     1      61.669   7.839   2.444  1.00  0.00     0.252 C 
HETATM   10  H   UNL     1      60.169   9.222   2.479  1.00  0.00     0.277 HD
HETATM   11  H   UNL     1      60.612   8.700   0.940  1.00  0.00     0.277 HD
ENDROOT
BRANCH   1  12
HETATM   12  C   UNL     1      64.607   7.805   5.123  1.00  0.00     0.072 A 
HETATM   13  S   UNL     1      64.485   6.827   6.532  1.00  0.00    -0.097 SA
HETATM   14  C   UNL     1      65.486   5.614   5.861  1.00  0.00     0.050 A 
HETATM   15  C   UNL     1      65.947   5.956   4.612  1.00  0.00     0.009 A 
HETATM   16  C   UNL     1      65.482   7.243   4.211  1.00  0.00     0.025 A 
ENDBRANCH   1  12
TORSDOF 1
ENDMDL
MODEL 2
REMARK VINA RESULT:      -4.6      2.543      5.339
REMARK  1 active torsions:
REMARK  status: ('A' for Active; 'I' for Inactive)
REMARK       I    between atoms: C_1  and  N_2 
REMARK    1  A    between atoms: C_1  and  C_3 
ROOT
HETATM    1  C   UNL     1      63.803   7.665   5.967  1.00  0.00     0.260 C 
HETATM    2  N   UNL     1      65.192   7.437   6.000  1.00  0.00    -0.346 N 
HETATM    3  O   UNL     1      63.090   7.270   6.891  1.00  0.00    -0.267 OA
HETATM    4  N   UNL     1      67.690   6.016   4.973  1.00  0.00    -0.074 N 
HETATM    5  C   UNL     1      65.748   6.671   7.108  1.00  0.00     0.128 C 
HETATM    6  C   UNL     1      66.179   8.051   5.105  1.00  0.00     0.153 C 
HETATM    7  C   UNL     1      66.054   5.218   6.765  1.00  0.00     0.047 C 
HETATM    8  C   UNL     1      66.828   4.947   5.470  1.00  0.00     0.234 C 
HETATM    9  C   UNL     1      66.934   7.034   4.232  1.00  0.00     0.252 C 
HETATM   10  H   UNL     1      68.151   6.463   5.767  1.00  0.00     0.277 HD
HETATM   11  H   UNL     1      68.369   5.602   4.335  1.00  0.00     0.277 HD
ENDROOT
BRANCH   1  12
HETATM   12  C   UNL     1      63.238   8.376   4.824  1.00  0.00     0.072 A 
HETATM   13  S   UNL     1      63.069   7.545   3.329  1.00  0.00    -0.097 SA
HETATM   14  C   UNL     1      62.339   8.898   2.580  1.00  0.00     0.050 A 
HETATM   15  C   UNL     1      62.264   9.979   3.426  1.00  0.00     0.009 A 
HETATM   16  C   UNL     1      62.832   9.692   4.702  1.00  0.00     0.025 A 
ENDBRANCH   1  12
TORSDOF 1
ENDMDL
MODEL 3
REMARK VINA RESULT:      -4.5      2.875      5.592
REMARK  1 active torsions:
REMARK  status: ('A' for Active; 'I' for Inactive)
REMARK       I    between atoms: C_1  and  N_2 
REMARK    1  A    between atoms: C_1  and  C_3 
ROOT
HETATM    1  C   UNL     1      65.198   7.918   5.698  1.00  0.00     0.260 C 
HETATM    2  N   UNL     1      65.925   6.804   6.161  1.00  0.00    -0.346 N 
HETATM    3  O   UNL     1      65.634   9.057   5.872  1.00  0.00    -0.267 OA
HETATM    4  N   UNL     1      66.288   4.466   8.087  1.00  0.00    -0.074 N 
HETATM    5  C   UNL     1      67.157   7.035   6.904  1.00  0.00     0.128 C 
HETATM    6  C   UNL     1      65.653   5.405   5.816  1.00  0.00     0.153 C 
HETATM    7  C   UNL     1      67.006   6.895   8.414  1.00  0.00     0.047 C 
HETATM    8  C   UNL     1      66.276   5.653   8.937  1.00  0.00     0.234 C 
HETATM    9  C   UNL     1      65.274   4.536   7.027  1.00  0.00     0.252 C 
HETATM   10  H   UNL     1      67.209   4.380   7.655  1.00  0.00     0.277 HD
HETATM   11  H   UNL     1      66.076   3.658   8.672  1.00  0.00     0.277 HD
ENDROOT
BRANCH   1  12
HETATM   12  C   UNL     1      63.931   7.689   5.010  1.00  0.00     0.072 A 
HETATM   13  S   UNL     1      62.535   7.316   5.942  1.00  0.00    -0.097 SA
HETATM   14  C   UNL     1      61.537   7.264   4.553  1.00  0.00     0.050 A 
HETATM   15  C   UNL     1      62.250   7.477   3.397  1.00  0.00     0.009 A 
HETATM   16  C   UNL     1      63.638   7.668   3.659  1.00  0.00     0.025 A 
ENDBRANCH   1  12
TORSDOF 1
ENDMDL
MODEL 4
REMARK VINA RESULT:      -3.9      2.873      5.736
REMARK  1 active torsions:
REMARK  status: ('A' for Active; 'I' for Inactive)
REMARK       I    between atoms: C_1  and  N_2 
REMARK    1  A    between atoms: C_1  and  C_3 
ROOT
HETATM    1  C   UNL     1      64.701   6.720   4.110  1.00  0.00     0.260 C 
HETATM    2  N   UNL     1      65.086   5.999   5.257  1.00  0.00    -0.346 N 
HETATM    3  O   UNL     1      65.023   6.318   2.991  1.00  0.00    -0.267 OA
HETATM    4  N   UNL     1      66.769   5.702   7.785  1.00  0.00    -0.074 N 
HETATM    5  C   UNL     1      65.923   4.817   5.092  1.00  0.00     0.128 C 
HETATM    6  C   UNL     1      64.578   6.222   6.615  1.00  0.00     0.153 C 
HETATM    7  C   UNL     1      67.397   5.054   5.395  1.00  0.00     0.047 C 
HETATM    8  C   UNL     1      67.739   5.788   6.696  1.00  0.00     0.234 C 
HETATM    9  C   UNL     1      65.664   6.654   7.615  1.00  0.00     0.252 C 
HETATM   10  H   UNL     1      66.387   4.756   7.811  1.00  0.00     0.277 HD
HETATM   11  H   UNL     1      67.251   5.932   8.654  1.00  0.00     0.277 HD
ENDROOT
BRANCH   1  12
HETATM   12  C   UNL     1      63.918   7.939   4.281  1.00  0.00     0.072 A 
HETATM   13  S   UNL     1      62.475   8.135   3.368  1.00  0.00    -0.097 SA
HETATM   14  C   UNL     1      62.126   9.636   4.109  1.00  0.00     0.050 A 
HETATM   15  C   UNL     1      63.104  10.012   5.000  1.00  0.00     0.009 A 
HETATM   16  C   UNL     1      64.162   9.058   5.057  1.00  0.00     0.025 A 
ENDBRANCH   1  12
TORSDOF 1
ENDMDL
MODEL 5
REMARK VINA RESULT:      -3.8      2.957      5.140
REMARK  1 active torsions:
REMARK  status: ('A' for Active; 'I' for Inactive)
REMARK       I    between atoms: C_1  and  N_2 
REMARK    1  A    between atoms: C_1  and  C_3 
ROOT
HETATM    1  C   UNL     1      61.920   6.482   3.943  1.00  0.00     0.260 C 
HETATM    2  N   UNL     1      62.599   7.151   4.980  1.00  0.00    -0.346 N 
HETATM    3  O   UNL     1      61.547   5.318   4.099  1.00  0.00    -0.267 OA
HETATM    4  N   UNL     1      65.139   8.360   6.162  1.00  0.00    -0.074 N 
HETATM    5  C   UNL     1      62.908   6.418   6.200  1.00  0.00     0.128 C 
HETATM    6  C   UNL     1      62.882   8.590   5.024  1.00  0.00     0.153 C 
HETATM    7  C   UNL     1      64.350   5.934   6.285  1.00  0.00     0.047 C 
HETATM    8  C   UNL     1      65.453   6.948   5.963  1.00  0.00     0.234 C 
HETATM    9  C   UNL     1      64.384   8.921   5.034  1.00  0.00     0.252 C 
HETATM   10  H   UNL     1      64.581   8.457   7.011  1.00  0.00     0.277 HD
HETATM   11  H   UNL     1      66.018   8.871   6.236  1.00  0.00     0.277 HD
ENDROOT
BRANCH   1  12
HETATM   12  C   UNL     1      61.668   7.197   2.696  1.00  0.00     0.072 A 
HETATM   13  S   UNL     1      60.052   7.624   2.294  1.00  0.00    -0.097 SA
HETATM   14  C   UNL     1      60.545   8.421   0.863  1.00  0.00     0.050 A 
HETATM   15  C   UNL     1      61.902   8.330   0.662  1.00  0.00     0.009 A 
HETATM   16  C   UNL     1      62.540   7.577   1.692  1.00  0.00     0.025 A 
ENDBRANCH   1  12
TORSDOF 1
ENDMDL
MODEL 6
REMARK VINA RESULT:      -3.8      4.126      5.876
REMARK  1 active torsions:
REMARK  status: ('A' for Active; 'I' for Inactive)
REMARK       I    between atoms: C_1  and  N_2 
REMARK    1  A    between atoms: C_1  and  C_3 
ROOT
HETATM    1  C   UNL     1      58.832   7.596   2.002  1.00  0.00     0.260 C 
HETATM    2  N   UNL     1      60.231   7.626   2.169  1.00  0.00    -0.346 N 
HETATM    3  O   UNL     1      58.326   8.017   0.961  1.00  0.00    -0.267 OA
HETATM    4  N   UNL     1      62.738   8.757   3.489  1.00  0.00    -0.074 N 
HETATM    5  C   UNL     1      61.047   8.223   1.121  1.00  0.00     0.128 C 
HETATM    6  C   UNL     1      60.976   6.948   3.235  1.00  0.00     0.153 C 
HETATM    7  C   UNL     1      61.513   9.641   1.430  1.00  0.00     0.047 C 
HETATM    8  C   UNL     1      62.125   9.896   2.812  1.00  0.00     0.234 C 
HETATM    9  C   UNL     1      61.741   7.912   4.158  1.00  0.00     0.252 C 
HETATM   10  H   UNL     1      63.237   8.194   2.800  1.00  0.00     0.277 HD
HETATM   11  H   UNL     1      63.372   9.119   4.201  1.00  0.00     0.277 HD
ENDROOT
BRANCH   1  12
HETATM   12  C   UNL     1      58.011   7.056   3.080  1.00  0.00     0.072 A 
HETATM   13  S   UNL     1      57.385   5.462   2.930  1.00  0.00    -0.097 SA
HETATM   14  C   UNL     1      56.658   5.527   4.478  1.00  0.00     0.050 A 
HETATM   15  C   UNL     1      56.842   6.747   5.084  1.00  0.00     0.009 A 
HETATM   16  C   UNL     1      57.576   7.645   4.254  1.00  0.00     0.025 A 
ENDBRANCH   1  12
TORSDOF 1
ENDMDL
MODEL 7
REMARK VINA RESULT:      -3.6      2.406      3.665
REMARK  1 active torsions:
REMARK  status: ('A' for Active; 'I' for Inactive)
REMARK       I    between atoms: C_1  and  N_2 
REMARK    1  A    between atoms: C_1  and  C_3 
ROOT
HETATM    1  C   UNL     1      65.209   5.803   5.077  1.00  0.00     0.260 C 
HETATM    2  N   UNL     1      64.764   6.957   4.403  1.00  0.00    -0.346 N 
HETATM    3  O   UNL     1      65.022   4.690   4.586  1.00  0.00    -0.267 OA
HETATM    4  N   UNL     1      62.870   9.336   4.146  1.00  0.00    -0.074 N 
HETATM    5  C   UNL     1      64.025   6.797   3.158  1.00  0.00     0.128 C 
HETATM    6  C   UNL     1      65.125   8.337   4.745  1.00  0.00     0.153 C 
HETATM    7  C   UNL     1      62.516   6.949   3.309  1.00  0.00     0.047 C 
HETATM    8  C   UNL     1      62.005   8.161   4.096  1.00  0.00     0.234 C 
HETATM    9  C   UNL     1      63.923   9.202   5.161  1.00  0.00     0.252 C 
HETATM   10  H   UNL     1      63.308   9.461   3.233  1.00  0.00     0.277 HD
HETATM   11  H   UNL     1      62.295  10.140   4.395  1.00  0.00     0.277 HD
ENDROOT
BRANCH   1  12
HETATM   12  C   UNL     1      65.893   5.962   6.357  1.00  0.00     0.072 A 
HETATM   13  S   UNL     1      67.571   5.600   6.453  1.00  0.00    -0.097 SA
HETATM   14  C   UNL     1      67.646   6.058   8.099  1.00  0.00     0.050 A 
HETATM   15  C   UNL     1      66.417   6.434   8.587  1.00  0.00     0.009 A 
HETATM   16  C   UNL     1      65.398   6.326   7.596  1.00  0.00     0.025 A 
ENDBRANCH   1  12
TORSDOF 1
ENDMDL
MODEL 8
REMARK VINA RESULT:      -3.6      3.143      4.386
REMARK  1 active torsions:
REMARK  status: ('A' for Active; 'I' for Inactive)
REMARK       I    between atoms: C_1  and  N_2 
REMARK    1  A    between atoms: C_1  and  C_3 
ROOT
HETATM    1  C   UNL     1      60.527   7.318   3.859  1.00  0.00     0.260 C 
HETATM    2  N   UNL     1      61.820   7.876   3.871  1.00  0.00    -0.346 N 
HETATM    3  O   UNL     1      59.632   7.848   3.199  1.00  0.00    -0.267 OA
HETATM    4  N   UNL     1      64.073   9.363   5.295  1.00  0.00    -0.074 N 
HETATM    5  C   UNL     1      62.052   9.119   3.148  1.00  0.00     0.128 C 
HETATM    6  C   UNL     1      63.023   7.229   4.407  1.00  0.00     0.153 C 
HETATM    7  C   UNL     1      62.085  10.357   4.037  1.00  0.00     0.047 C 
HETATM    8  C   UNL     1      62.947  10.293   5.302  1.00  0.00     0.234 C 
HETATM    9  C   UNL     1      63.653   7.987   5.589  1.00  0.00     0.252 C 
HETATM   10  H   UNL     1      64.511   9.383   4.374  1.00  0.00     0.277 HD
HETATM   11  H   UNL     1      64.726   9.654   6.022  1.00  0.00     0.277 HD
ENDROOT
BRANCH   1  12
HETATM   12  C   UNL     1      60.280   6.108   4.637  1.00  0.00     0.072 A 
HETATM   13  S   UNL     1      60.304   4.587   3.836  1.00  0.00    -0.097 SA
HETATM   14  C   UNL     1      60.026   3.737   5.295  1.00  0.00     0.050 A 
HETATM   15  C   UNL     1      59.871   4.586   6.365  1.00  0.00     0.009 A 
HETATM   16  C   UNL     1      59.964   5.954   5.974  1.00  0.00     0.025 A 
ENDBRANCH   1  12
TORSDOF 1
ENDMDL
MODEL 9
REMARK VINA RESULT:      -3.6      2.119      2.844
REMARK  1 active torsions:
REMARK  status: ('A' for Active; 'I' for Inactive)
REMARK       I    between atoms: C_1  and  N_2 
REMARK    1  A    between atoms: C_1  and  C_3 
ROOT
HETATM    1  C   UNL     1      64.477   6.572   3.562  1.00  0.00     0.260 C 
HETATM    2  N   UNL     1      63.510   7.474   3.079  1.00  0.00    -0.346 N 
HETATM    3  O   UNL     1      64.817   5.605   2.878  1.00  0.00    -0.267 OA
HETATM    4  N   UNL     1      60.707   8.678   3.158  1.00  0.00    -0.074 N 
HETATM    5  C   UNL     1      62.877   7.199   1.796  1.00  0.00     0.128 C 
HETATM    6  C   UNL     1      63.191   8.780   3.668  1.00  0.00     0.153 C 
HETATM    7  C   UNL     1      61.484   6.591   1.908  1.00  0.00     0.047 C 
HETATM    8  C   UNL     1      60.498   7.261   2.871  1.00  0.00     0.234 C 
HETATM    9  C   UNL     1      61.743   8.887   4.177  1.00  0.00     0.252 C 
HETATM   10  H   UNL     1      60.991   9.150   2.299  1.00  0.00     0.277 HD
HETATM   11  H   UNL     1      59.831   9.058   3.518  1.00  0.00     0.277 HD
ENDROOT
BRANCH   1  12
HETATM   12  C   UNL     1      65.063   6.814   4.877  1.00  0.00     0.072 A 
HETATM   13  S   UNL     1      64.296   6.148   6.263  1.00  0.00    -0.097 SA
HETATM   14  C   UNL     1      65.506   6.754   7.310  1.00  0.00     0.050 A 
HETATM   15  C   UNL     1      66.452   7.487   6.635  1.00  0.00     0.009 A 
HETATM   16  C   UNL     1      66.166   7.565   5.240  1.00  0.00     0.025 A 
ENDBRANCH   1  12
TORSDOF 1
ENDMDL
