MODEL 1
REMARK VINA RESULT:      -5.7      0.000      0.000
REMARK  1 active torsions:
REMARK  status: ('A' for Active; 'I' for Inactive)
REMARK    1  A    between atoms: N_1  and  C_2 
ROOT
HETATM    1  C   UNL     1      62.869   8.483   3.369  1.00  0.00     0.051 A 
HETATM    2  N   UNL     1      61.936  11.795   4.399  1.00  0.00    -0.191 NA
HETATM    3  C   UNL     1      62.089  10.840   3.755  1.00  0.00     0.102 C 
HETATM    4  C   UNL     1      62.227   9.670   2.933  1.00  0.00     0.071 A 
HETATM    5  C   UNL     1      62.998   7.460   2.402  1.00  0.00     0.031 A 
HETATM    6  C   UNL     1      61.729   9.786   1.616  1.00  0.00     0.025 A 
HETATM    7  C   UNL     1      62.520   7.589   1.092  1.00  0.00     0.002 A 
HETATM    8  C   UNL     1      61.878   8.753   0.699  1.00  0.00     0.002 A 
ENDROOT
BRANCH   1   9
HETATM    9  N   UNL     1      63.354   8.265   4.654  1.00  0.00    -0.380 N 
HETATM   10  C   UNL     1      62.563   7.635   5.718  1.00  0.00     0.123 C 
HETATM   11  C   UNL     1      63.308   6.420   6.271  1.00  0.00     0.020 C 
HETATM   12  C   UNL     1      64.735   6.759   6.688  1.00  0.00     0.003 C 
HETATM   13  C   UNL     1      65.485   7.451   5.552  1.00  0.00     0.020 C 
HETATM   14  C   UNL     1      64.711   8.670   5.048  1.00  0.00     0.123 C 
ENDBRANCH   1   9
TORSDOF 1
ENDMDL
MODEL 2
REMARK VINA RESULT:      -5.7      1.093      1.964
REMARK  1 active torsions:
REMARK  status: ('A' for Active; 'I' for Inactive)
REMARK    1  A    between atoms: N_1  and  C_2 
ROOT
HETATM    1  C   UNL     1      62.845   8.877   3.453  1.00  0.00     0.051 A 
HETATM    2  N   UNL     1      63.134  11.041   6.304  1.00  0.00    -0.191 NA
HETATM    3  C   UNL     1      62.897  10.643   5.239  1.00  0.00     0.102 C 
HETATM    4  C   UNL     1      62.555  10.184   3.921  1.00  0.00     0.071 A 
HETATM    5  C   UNL     1      62.522   8.621   2.101  1.00  0.00     0.031 A 
HETATM    6  C   UNL     1      61.954  11.143   3.076  1.00  0.00     0.025 A 
HETATM    7  C   UNL     1      61.944   9.582   1.262  1.00  0.00     0.002 A 
HETATM    8  C   UNL     1      61.653  10.845   1.753  1.00  0.00     0.002 A 
ENDROOT
BRANCH   1   9
HETATM    9  N   UNL     1      63.398   7.859   4.221  1.00  0.00    -0.380 N 
HETATM   10  C   UNL     1      64.844   7.637   4.344  1.00  0.00     0.123 C 
HETATM   11  C   UNL     1      65.252   7.657   5.817  1.00  0.00     0.020 C 
HETATM   12  C   UNL     1      64.412   6.703   6.661  1.00  0.00     0.003 C 
HETATM   13  C   UNL     1      62.921   6.959   6.451  1.00  0.00     0.020 C 
HETATM   14  C   UNL     1      62.561   6.909   4.966  1.00  0.00     0.123 C 
ENDBRANCH   1   9
TORSDOF 1
ENDMDL
MODEL 3
REMARK VINA RESULT:      -5.3      1.222      2.603
REMARK  1 active torsions:
REMARK  status: ('A' for Active; 'I' for Inactive)
REMARK    1  A    between atoms: N_1  and  C_2 
ROOT
HETATM    1  C   UNL     1      62.874   9.207   4.042  1.00  0.00     0.051 A 
HETATM    2  N   UNL     1      63.276   6.289   1.989  1.00  0.00    -0.191 NA
HETATM    3  C   UNL     1      63.012   7.364   2.341  1.00  0.00     0.102 C 
HETATM    4  C   UNL     1      62.701   8.713   2.724  1.00  0.00     0.071 A 
HETATM    5  C   UNL     1      62.432  10.532   4.267  1.00  0.00     0.031 A 
HETATM    6  C   UNL     1      62.145   9.524   1.710  1.00  0.00     0.025 A 
HETATM    7  C   UNL     1      61.864  11.324   3.262  1.00  0.00     0.002 A 
HETATM    8  C   UNL     1      61.725  10.821   1.978  1.00  0.00     0.002 A 
ENDROOT
BRANCH   1   9
HETATM    9  N   UNL     1      63.446   8.497   5.092  1.00  0.00    -0.380 N 
HETATM   10  C   UNL     1      62.664   7.716   6.057  1.00  0.00     0.123 C 
HETATM   11  C   UNL     1      63.160   6.270   6.082  1.00  0.00     0.020 C 
HETATM   12  C   UNL     1      64.667   6.182   6.301  1.00  0.00     0.003 C 
HETATM   13  C   UNL     1      65.416   7.052   5.294  1.00  0.00     0.020 C 
HETATM   14  C   UNL     1      64.897   8.490   5.321  1.00  0.00     0.123 C 
ENDBRANCH   1   9
TORSDOF 1
ENDMDL
MODEL 4
REMARK VINA RESULT:      -5.2      1.231      1.407
REMARK  1 active torsions:
REMARK  status: ('A' for Active; 'I' for Inactive)
REMARK    1  A    between atoms: N_1  and  C_2 
ROOT
HETATM    1  C   UNL     1      63.426   8.360   4.066  1.00  0.00     0.051 A 
HETATM    2  N   UNL     1      63.134  11.226   6.210  1.00  0.00    -0.191 NA
HETATM    3  C   UNL     1      63.014  10.505   5.306  1.00  0.00     0.102 C 
HETATM    4  C   UNL     1      62.811   9.632   4.183  1.00  0.00     0.071 A 
HETATM    5  C   UNL     1      63.190   7.670   2.854  1.00  0.00     0.031 A 
HETATM    6  C   UNL     1      61.994  10.144   3.151  1.00  0.00     0.025 A 
HETATM    7  C   UNL     1      62.394   8.192   1.826  1.00  0.00     0.002 A 
HETATM    8  C   UNL     1      61.790   9.430   1.977  1.00  0.00     0.002 A 
ENDROOT
BRANCH   1   9
HETATM    9  N   UNL     1      64.212   7.760   5.043  1.00  0.00    -0.380 N 
HETATM   10  C   UNL     1      63.658   7.008   6.175  1.00  0.00     0.123 C 
HETATM   11  C   UNL     1      64.248   5.598   6.203  1.00  0.00     0.020 C 
HETATM   12  C   UNL     1      65.773   5.611   6.164  1.00  0.00     0.003 C 
HETATM   13  C   UNL     1      66.282   6.447   4.992  1.00  0.00     0.020 C 
HETATM   14  C   UNL     1      65.679   7.852   5.020  1.00  0.00     0.123 C 
ENDBRANCH   1   9
TORSDOF 1
ENDMDL
MODEL 5
REMARK VINA RESULT:      -5.1      1.492      3.018
REMARK  1 active torsions:
REMARK  status: ('A' for Active; 'I' for Inactive)
REMARK    1  A    between atoms: N_1  and  C_2 
ROOT
HETATM    1  C   UNL     1      62.567   9.033   3.496  1.00  0.00     0.051 A 
HETATM    2  N   UNL     1      62.469   7.090   0.478  1.00  0.00    -0.191 NA
HETATM    3  C   UNL     1      62.391   7.977   1.223  1.00  0.00     0.102 C 
HETATM    4  C   UNL     1      62.314   9.111   2.103  1.00  0.00     0.071 A 
HETATM    5  C   UNL     1      62.357  10.224   4.228  1.00  0.00     0.031 A 
HETATM    6  C   UNL     1      61.908  10.323   1.503  1.00  0.00     0.025 A 
HETATM    7  C   UNL     1      61.935  11.418   3.631  1.00  0.00     0.002 A 
HETATM    8  C   UNL     1      61.715  11.470   2.264  1.00  0.00     0.002 A 
ENDROOT
BRANCH   1   9
HETATM    9  N   UNL     1      63.006   7.896   4.165  1.00  0.00    -0.380 N 
HETATM   10  C   UNL     1      64.418   7.504   4.247  1.00  0.00     0.123 C 
HETATM   11  C   UNL     1      64.832   7.349   5.710  1.00  0.00     0.020 C 
HETATM   12  C   UNL     1      63.894   6.424   6.480  1.00  0.00     0.003 C 
HETATM   13  C   UNL     1      62.440   6.862   6.314  1.00  0.00     0.020 C 
HETATM   14  C   UNL     1      62.070   6.982   4.836  1.00  0.00     0.123 C 
ENDBRANCH   1   9
TORSDOF 1
ENDMDL
MODEL 6
REMARK VINA RESULT:      -4.9      2.055      3.410
REMARK  1 active torsions:
REMARK  status: ('A' for Active; 'I' for Inactive)
REMARK    1  A    between atoms: N_1  and  C_2 
ROOT
HETATM    1  C   UNL     1      62.242   8.797   2.795  1.00  0.00     0.051 A 
HETATM    2  N   UNL     1      63.052   8.223   6.246  1.00  0.00    -0.191 NA
HETATM    3  C   UNL     1      62.767   8.751   5.251  1.00  0.00     0.102 C 
HETATM    4  C   UNL     1      62.381   9.441   4.051  1.00  0.00     0.071 A 
HETATM    5  C   UNL     1      61.945   9.641   1.700  1.00  0.00     0.031 A 
HETATM    6  C   UNL     1      62.199  10.835   4.179  1.00  0.00     0.025 A 
HETATM    7  C   UNL     1      61.785  11.026   1.829  1.00  0.00     0.002 A 
HETATM    8  C   UNL     1      61.907  11.625   3.073  1.00  0.00     0.002 A 
ENDROOT
BRANCH   1   9
HETATM    9  N   UNL     1      62.364   7.429   2.582  1.00  0.00    -0.380 N 
HETATM   10  C   UNL     1      63.640   6.771   2.274  1.00  0.00     0.123 C 
HETATM   11  C   UNL     1      63.912   5.661   3.289  1.00  0.00     0.020 C 
HETATM   12  C   UNL     1      62.739   4.693   3.413  1.00  0.00     0.003 C 
HETATM   13  C   UNL     1      61.439   5.446   3.686  1.00  0.00     0.020 C 
HETATM   14  C   UNL     1      61.203   6.530   2.635  1.00  0.00     0.123 C 
ENDBRANCH   1   9
TORSDOF 1
ENDMDL
MODEL 7
REMARK VINA RESULT:      -4.9      1.778      3.297
REMARK  1 active torsions:
REMARK  status: ('A' for Active; 'I' for Inactive)
REMARK    1  A    between atoms: N_1  and  C_2 
ROOT
HETATM    1  C   UNL     1      63.764   8.612   4.485  1.00  0.00     0.051 A 
HETATM    2  N   UNL     1      63.337   6.334   1.743  1.00  0.00    -0.191 NA
HETATM    3  C   UNL     1      63.227   7.257   2.440  1.00  0.00     0.102 C 
HETATM    4  C   UNL     1      63.083   8.431   3.255  1.00  0.00     0.071 A 
HETATM    5  C   UNL     1      63.438   9.786   5.204  1.00  0.00     0.031 A 
HETATM    6  C   UNL     1      62.162   9.393   2.784  1.00  0.00     0.025 A 
HETATM    7  C   UNL     1      62.509  10.726   4.741  1.00  0.00     0.002 A 
HETATM    8  C   UNL     1      61.873  10.532   3.525  1.00  0.00     0.002 A 
ENDROOT
BRANCH   1   9
HETATM    9  N   UNL     1      64.713   7.741   5.008  1.00  0.00    -0.380 N 
HETATM   10  C   UNL     1      66.150   7.855   4.733  1.00  0.00     0.123 C 
HETATM   11  C   UNL     1      66.926   7.954   6.046  1.00  0.00     0.020 C 
HETATM   12  C   UNL     1      66.575   6.824   7.009  1.00  0.00     0.003 C 
HETATM   13  C   UNL     1      65.064   6.733   7.214  1.00  0.00     0.020 C 
HETATM   14  C   UNL     1      64.336   6.616   5.875  1.00  0.00     0.123 C 
ENDBRANCH   1   9
TORSDOF 1
ENDMDL
MODEL 8
REMARK VINA RESULT:      -4.8      1.571      4.265
REMARK  1 active torsions:
REMARK  status: ('A' for Active; 'I' for Inactive)
REMARK    1  A    between atoms: N_1  and  C_2 
ROOT
HETATM    1  C   UNL     1      63.287   7.612   3.427  1.00  0.00     0.051 A 
HETATM    2  N   UNL     1      61.693  10.765   4.074  1.00  0.00    -0.191 NA
HETATM    3  C   UNL     1      62.439   9.874   4.115  1.00  0.00     0.102 C 
HETATM    4  C   UNL     1      63.404   8.812   4.174  1.00  0.00     0.071 A 
HETATM    5  C   UNL     1      64.277   6.633   3.673  1.00  0.00     0.031 A 
HETATM    6  C   UNL     1      64.470   9.003   5.081  1.00  0.00     0.025 A 
HETATM    7  C   UNL     1      65.321   6.822   4.587  1.00  0.00     0.002 A 
HETATM    8  C   UNL     1      65.421   8.012   5.289  1.00  0.00     0.002 A 
ENDROOT
BRANCH   1   9
HETATM    9  N   UNL     1      62.296   7.351   2.487  1.00  0.00    -0.380 N 
HETATM   10  C   UNL     1      61.030   6.684   2.813  1.00  0.00     0.123 C 
HETATM   11  C   UNL     1      59.853   7.562   2.388  1.00  0.00     0.020 C 
HETATM   12  C   UNL     1      59.957   7.999   0.930  1.00  0.00     0.003 C 
HETATM   13  C   UNL     1      61.313   8.643   0.649  1.00  0.00     0.020 C 
HETATM   14  C   UNL     1      62.455   7.719   1.073  1.00  0.00     0.123 C 
ENDBRANCH   1   9
TORSDOF 1
ENDMDL
MODEL 9
REMARK VINA RESULT:      -4.7      1.323      4.910
REMARK  1 active torsions:
REMARK  status: ('A' for Active; 'I' for Inactive)
REMARK    1  A    between atoms: N_1  and  C_2 
ROOT
HETATM    1  C   UNL     1      63.511   8.048   4.785  1.00  0.00     0.051 A 
HETATM    2  N   UNL     1      60.904   6.186   6.406  1.00  0.00    -0.191 NA
HETATM    3  C   UNL     1      61.946   6.624   6.138  1.00  0.00     0.102 C 
HETATM    4  C   UNL     1      63.247   7.168   5.865  1.00  0.00     0.071 A 
HETATM    5  C   UNL     1      64.865   8.416   4.606  1.00  0.00     0.031 A 
HETATM    6  C   UNL     1      64.286   6.723   6.713  1.00  0.00     0.025 A 
HETATM    7  C   UNL     1      65.893   7.956   5.439  1.00  0.00     0.002 A 
HETATM    8  C   UNL     1      65.602   7.112   6.498  1.00  0.00     0.002 A 
ENDROOT
BRANCH   1   9
HETATM    9  N   UNL     1      62.550   8.567   3.925  1.00  0.00    -0.380 N 
HETATM   10  C   UNL     1      61.863   9.843   4.159  1.00  0.00     0.123 C 
HETATM   11  C   UNL     1      62.048  10.763   2.953  1.00  0.00     0.020 C 
HETATM   12  C   UNL     1      61.653  10.085   1.644  1.00  0.00     0.003 C 
HETATM   13  C   UNL     1      62.367   8.745   1.487  1.00  0.00     0.020 C 
HETATM   14  C   UNL     1      62.135   7.855   2.708  1.00  0.00     0.123 C 
ENDBRANCH   1   9
TORSDOF 1
ENDMDL
