MODEL 1
REMARK VINA RESULT:      -5.4      0.000      0.000
REMARK  2 active torsions:
REMARK  status: ('A' for Active; 'I' for Inactive)
REMARK    1  A    between atoms: C_1  and  C_5 
REMARK    2  A    between atoms: C_2  and  O_10 
ROOT
HETATM    1  C   UNL     1      63.354   9.349   4.569  1.00  0.00     0.048 A 
HETATM    2  C   UNL     1      62.991  10.654   4.945  1.00  0.00     0.118 A 
HETATM    3  C   UNL     1      62.178  11.421   4.106  1.00  0.00     0.153 A 
HETATM    4  C   UNL     1      61.722  10.916   2.896  1.00  0.00     0.087 A 
HETATM    5  C   UNL     1      62.894   8.843   3.347  1.00  0.00     0.060 A 
HETATM    6  C   UNL     1      62.088   9.630   2.528  1.00  0.00     0.120 A 
HETATM    7  F   UNL     1      61.824  12.665   4.458  1.00  0.00    -0.203 F 
HETATM    8  F   UNL     1      61.657   9.132   1.364  1.00  0.00    -0.206 F 
ENDROOT
BRANCH   1   9
HETATM    9  C   UNL     1      64.213   8.524   5.467  1.00  0.00     0.158 C 
HETATM   10  O   UNL     1      65.325   8.948   5.781  1.00  0.00    -0.293 OA
HETATM   11  C   UNL     1      63.706   7.196   5.967  1.00  0.00     0.097 C 
ENDBRANCH   1   9
BRANCH   2  12
HETATM   12  O   UNL     1      63.403  11.231   6.118  1.00  0.00    -0.357 OA
HETATM   13  H   UNL     1      63.845  12.058   6.104  1.00  0.00     0.218 HD
ENDBRANCH   2  12
TORSDOF 2
ENDMDL
MODEL 2
REMARK VINA RESULT:      -4.9      2.346      3.745
REMARK  2 active torsions:
REMARK  status: ('A' for Active; 'I' for Inactive)
REMARK    1  A    between atoms: C_1  and  C_5 
REMARK    2  A    between atoms: C_2  and  O_10 
ROOT
HETATM    1  C   UNL     1      62.087   9.765   3.993  1.00  0.00     0.048 A 
HETATM    2  C   UNL     1      63.058   9.394   4.939  1.00  0.00     0.118 A 
HETATM    3  C   UNL     1      63.163   8.060   5.344  1.00  0.00     0.153 A 
HETATM    4  C   UNL     1      62.318   7.087   4.828  1.00  0.00     0.087 A 
HETATM    5  C   UNL     1      61.233   8.782   3.476  1.00  0.00     0.060 A 
HETATM    6  C   UNL     1      61.358   7.461   3.899  1.00  0.00     0.120 A 
HETATM    7  F   UNL     1      64.088   7.696   6.243  1.00  0.00    -0.203 F 
HETATM    8  F   UNL     1      60.534   6.534   3.396  1.00  0.00    -0.206 F 
ENDROOT
BRANCH   1   9
HETATM    9  C   UNL     1      61.978  11.185   3.551  1.00  0.00     0.158 C 
HETATM   10  O   UNL     1      62.027  12.077   4.397  1.00  0.00    -0.293 OA
HETATM   11  C   UNL     1      61.811  11.497   2.086  1.00  0.00     0.097 C 
ENDBRANCH   1   9
BRANCH   2  12
HETATM   12  O   UNL     1      63.927  10.291   5.502  1.00  0.00    -0.357 OA
HETATM   13  H   UNL     1      63.794  10.584   6.383  1.00  0.00     0.218 HD
ENDBRANCH   2  12
TORSDOF 2
ENDMDL
MODEL 3
REMARK VINA RESULT:      -4.9      2.790      3.647
REMARK  2 active torsions:
REMARK  status: ('A' for Active; 'I' for Inactive)
REMARK    1  A    between atoms: C_1  and  C_5 
REMARK    2  A    between atoms: C_2  and  O_10 
ROOT
HETATM    1  C   UNL     1      62.235   9.247   2.749  1.00  0.00     0.048 A 
HETATM    2  C   UNL     1      61.962  10.586   3.077  1.00  0.00     0.118 A 
HETATM    3  C   UNL     1      62.306  11.079   4.340  1.00  0.00     0.153 A 
HETATM    4  C   UNL     1      62.912  10.264   5.285  1.00  0.00     0.087 A 
HETATM    5  C   UNL     1      62.845   8.425   3.706  1.00  0.00     0.060 A 
HETATM    6  C   UNL     1      63.174   8.942   4.957  1.00  0.00     0.120 A 
HETATM    7  F   UNL     1      62.053  12.356   4.660  1.00  0.00    -0.203 F 
HETATM    8  F   UNL     1      63.756   8.143   5.859  1.00  0.00    -0.206 F 
ENDROOT
BRANCH   1   9
HETATM    9  C   UNL     1      61.880   8.720   1.400  1.00  0.00     0.158 C 
HETATM   10  O   UNL     1      62.428   9.203   0.410  1.00  0.00    -0.293 OA
HETATM   11  C   UNL     1      60.861   7.616   1.277  1.00  0.00     0.097 C 
ENDBRANCH   1   9
BRANCH   2  12
HETATM   12  O   UNL     1      61.361  11.457   2.206  1.00  0.00    -0.357 OA
HETATM   13  H   UNL     1      61.489  12.380   2.303  1.00  0.00     0.218 HD
ENDBRANCH   2  12
TORSDOF 2
ENDMDL
MODEL 4
REMARK VINA RESULT:      -4.7      1.435      2.925
REMARK  2 active torsions:
REMARK  status: ('A' for Active; 'I' for Inactive)
REMARK    1  A    between atoms: C_1  and  C_5 
REMARK    2  A    between atoms: C_2  and  O_10 
ROOT
HETATM    1  C   UNL     1      63.134   9.222   4.524  1.00  0.00     0.048 A 
HETATM    2  C   UNL     1      62.786   8.825   3.221  1.00  0.00     0.118 A 
HETATM    3  C   UNL     1      62.128   9.719   2.372  1.00  0.00     0.153 A 
HETATM    4  C   UNL     1      61.805  11.001   2.795  1.00  0.00     0.087 A 
HETATM    5  C   UNL     1      62.805  10.515   4.949  1.00  0.00     0.060 A 
HETATM    6  C   UNL     1      62.147  11.385   4.083  1.00  0.00     0.120 A 
HETATM    7  F   UNL     1      61.795   9.351   1.126  1.00  0.00    -0.203 F 
HETATM    8  F   UNL     1      61.839  12.617   4.506  1.00  0.00    -0.206 F 
ENDROOT
BRANCH   1   9
HETATM    9  C   UNL     1      63.846   8.273   5.429  1.00  0.00     0.158 C 
HETATM   10  O   UNL     1      63.208   7.705   6.314  1.00  0.00    -0.293 OA
HETATM   11  C   UNL     1      65.322   8.033   5.242  1.00  0.00     0.097 C 
ENDBRANCH   1   9
BRANCH   2  12
HETATM   12  O   UNL     1      63.061   7.577   2.726  1.00  0.00    -0.357 OA
HETATM   13  H   UNL     1      63.331   6.892   3.306  1.00  0.00     0.218 HD
ENDBRANCH   2  12
TORSDOF 2
ENDMDL
MODEL 5
REMARK VINA RESULT:      -4.5      1.285      1.401
REMARK  2 active torsions:
REMARK  status: ('A' for Active; 'I' for Inactive)
REMARK    1  A    between atoms: C_1  and  C_5 
REMARK    2  A    between atoms: C_2  and  O_10 
ROOT
HETATM    1  C   UNL     1      63.014   8.309   3.708  1.00  0.00     0.048 A 
HETATM    2  C   UNL     1      62.792   9.520   4.387  1.00  0.00     0.118 A 
HETATM    3  C   UNL     1      62.236  10.609   3.709  1.00  0.00     0.153 A 
HETATM    4  C   UNL     1      61.899  10.518   2.366  1.00  0.00     0.087 A 
HETATM    5  C   UNL     1      62.676   8.221   2.351  1.00  0.00     0.060 A 
HETATM    6  C   UNL     1      62.126   9.323   1.700  1.00  0.00     0.120 A 
HETATM    7  F   UNL     1      62.017  11.766   4.349  1.00  0.00    -0.203 F 
HETATM    8  F   UNL     1      61.808   9.222   0.404  1.00  0.00    -0.206 F 
ENDROOT
BRANCH   1   9
HETATM    9  C   UNL     1      63.598   7.143   4.431  1.00  0.00     0.158 C 
HETATM   10  O   UNL     1      64.679   7.278   5.002  1.00  0.00    -0.293 OA
HETATM   11  C   UNL     1      62.857   5.831   4.446  1.00  0.00     0.097 C 
ENDBRANCH   1   9
BRANCH   2  12
HETATM   12  O   UNL     1      63.102   9.697   5.711  1.00  0.00    -0.357 OA
HETATM   13  H   UNL     1      63.856   9.276   6.076  1.00  0.00     0.218 HD
ENDBRANCH   2  12
TORSDOF 2
ENDMDL
MODEL 6
REMARK VINA RESULT:      -4.4      2.633      4.057
REMARK  2 active torsions:
REMARK  status: ('A' for Active; 'I' for Inactive)
REMARK    1  A    between atoms: C_1  and  C_5 
REMARK    2  A    between atoms: C_2  and  O_10 
ROOT
HETATM    1  C   UNL     1      62.323   9.063   3.065  1.00  0.00     0.048 A 
HETATM    2  C   UNL     1      63.296   8.435   3.863  1.00  0.00     0.118 A 
HETATM    3  C   UNL     1      63.820   9.100   4.975  1.00  0.00     0.153 A 
HETATM    4  C   UNL     1      63.398  10.379   5.309  1.00  0.00     0.087 A 
HETATM    5  C   UNL     1      61.901  10.356   3.402  1.00  0.00     0.060 A 
HETATM    6  C   UNL     1      62.443  10.995   4.515  1.00  0.00     0.120 A 
HETATM    7  F   UNL     1      64.745   8.508   5.744  1.00  0.00    -0.203 F 
HETATM    8  F   UNL     1      62.028  12.230   4.822  1.00  0.00    -0.206 F 
ENDROOT
BRANCH   1   9
HETATM    9  C   UNL     1      61.754   8.353   1.883  1.00  0.00     0.158 C 
HETATM   10  O   UNL     1      60.955   7.436   2.068  1.00  0.00    -0.293 OA
HETATM   11  C   UNL     1      62.167   8.770   0.495  1.00  0.00     0.097 C 
ENDBRANCH   1   9
BRANCH   2  12
HETATM   12  O   UNL     1      63.772   7.177   3.601  1.00  0.00    -0.357 OA
HETATM   13  H   UNL     1      63.194   6.440   3.639  1.00  0.00     0.218 HD
ENDBRANCH   2  12
TORSDOF 2
ENDMDL
MODEL 7
REMARK VINA RESULT:      -4.4      2.566      3.998
REMARK  2 active torsions:
REMARK  status: ('A' for Active; 'I' for Inactive)
REMARK    1  A    between atoms: C_1  and  C_5 
REMARK    2  A    between atoms: C_2  and  O_10 
ROOT
HETATM    1  C   UNL     1      63.019   8.731   4.763  1.00  0.00     0.048 A 
HETATM    2  C   UNL     1      62.888   7.794   5.804  1.00  0.00     0.118 A 
HETATM    3  C   UNL     1      63.131   6.440   5.557  1.00  0.00     0.153 A 
HETATM    4  C   UNL     1      63.500   5.998   4.294  1.00  0.00     0.087 A 
HETATM    5  C   UNL     1      63.387   8.282   3.489  1.00  0.00     0.060 A 
HETATM    6  C   UNL     1      63.621   6.926   3.271  1.00  0.00     0.120 A 
HETATM    7  F   UNL     1      63.014   5.539   6.543  1.00  0.00    -0.203 F 
HETATM    8  F   UNL     1      63.972   6.514   2.047  1.00  0.00    -0.206 F 
ENDROOT
BRANCH   1   9
HETATM    9  C   UNL     1      62.769  10.178   5.025  1.00  0.00     0.158 C 
HETATM   10  O   UNL     1      63.152  10.664   6.088  1.00  0.00    -0.293 OA
HETATM   11  C   UNL     1      62.057  11.009   3.990  1.00  0.00     0.097 C 
ENDBRANCH   1   9
BRANCH   2  12
HETATM   12  O   UNL     1      62.523   8.144   7.078  1.00  0.00    -0.357 OA
HETATM   13  H   UNL     1      62.617   9.031   7.364  1.00  0.00     0.218 HD
ENDBRANCH   2  12
TORSDOF 2
ENDMDL
MODEL 8
REMARK VINA RESULT:      -4.1      2.898      4.003
REMARK  2 active torsions:
REMARK  status: ('A' for Active; 'I' for Inactive)
REMARK    1  A    between atoms: C_1  and  C_5 
REMARK    2  A    between atoms: C_2  and  O_10 
ROOT
HETATM    1  C   UNL     1      63.348   8.435   3.948  1.00  0.00     0.048 A 
HETATM    2  C   UNL     1      64.199   8.881   4.974  1.00  0.00     0.118 A 
HETATM    3  C   UNL     1      65.389   8.197   5.240  1.00  0.00     0.153 A 
HETATM    4  C   UNL     1      65.747   7.073   4.508  1.00  0.00     0.087 A 
HETATM    5  C   UNL     1      63.710   7.299   3.213  1.00  0.00     0.060 A 
HETATM    6  C   UNL     1      64.899   6.634   3.502  1.00  0.00     0.120 A 
HETATM    7  F   UNL     1      66.209   8.617   6.213  1.00  0.00    -0.203 F 
HETATM    8  F   UNL     1      65.230   5.551   2.790  1.00  0.00    -0.206 F 
ENDROOT
BRANCH   1   9
HETATM    9  C   UNL     1      62.083   9.169   3.654  1.00  0.00     0.158 C 
HETATM   10  O   UNL     1      62.108  10.397   3.597  1.00  0.00    -0.293 OA
HETATM   11  C   UNL     1      60.808   8.395   3.437  1.00  0.00     0.097 C 
ENDBRANCH   1   9
BRANCH   2  12
HETATM   12  O   UNL     1      63.919   9.977   5.748  1.00  0.00    -0.357 OA
HETATM   13  H   UNL     1      64.027   9.934   6.678  1.00  0.00     0.218 HD
ENDBRANCH   2  12
TORSDOF 2
ENDMDL
MODEL 9
REMARK VINA RESULT:      -4.0      3.366      4.676
REMARK  2 active torsions:
REMARK  status: ('A' for Active; 'I' for Inactive)
REMARK    1  A    between atoms: C_1  and  C_5 
REMARK    2  A    between atoms: C_2  and  O_10 
ROOT
HETATM    1  C   UNL     1      62.018   8.998   3.059  1.00  0.00     0.048 A 
HETATM    2  C   UNL     1      60.931   8.139   3.299  1.00  0.00     0.118 A 
HETATM    3  C   UNL     1      60.963   7.263   4.387  1.00  0.00     0.153 A 
HETATM    4  C   UNL     1      62.056   7.222   5.241  1.00  0.00     0.087 A 
HETATM    5  C   UNL     1      63.121   8.953   3.920  1.00  0.00     0.060 A 
HETATM    6  C   UNL     1      63.127   8.068   4.996  1.00  0.00     0.120 A 
HETATM    7  F   UNL     1      59.930   6.443   4.627  1.00  0.00    -0.203 F 
HETATM    8  F   UNL     1      64.189   8.038   5.809  1.00  0.00    -0.206 F 
ENDROOT
BRANCH   1   9
HETATM    9  C   UNL     1      61.984   9.941   1.904  1.00  0.00     0.158 C 
HETATM   10  O   UNL     1      62.107   9.492   0.765  1.00  0.00    -0.293 OA
HETATM   11  C   UNL     1      61.802  11.416   2.153  1.00  0.00     0.097 C 
ENDBRANCH   1   9
BRANCH   2  12
HETATM   12  O   UNL     1      59.816   8.111   2.502  1.00  0.00    -0.357 OA
HETATM   13  H   UNL     1      59.068   8.629   2.725  1.00  0.00     0.218 HD
ENDBRANCH   2  12
TORSDOF 2
ENDMDL
