MODEL 1
REMARK VINA RESULT:      -4.4      0.000      0.000
REMARK  4 active torsions:
REMARK  status: ('A' for Active; 'I' for Inactive)
REMARK    1  A    between atoms: C_1  and  C_2 
REMARK    2  A    between atoms: C_1  and  N_3 
REMARK    3  A    between atoms: C_1  and  C_7 
REMARK    4  A    between atoms: N_4  and  C_7 
ROOT
HETATM    1  C   UNL     1      63.337   8.024   5.828  1.00  0.00     0.315 C 
ENDROOT
BRANCH   1   2
HETATM    2  C   UNL     1      62.867   8.908   4.698  1.00  0.00     0.026 A 
HETATM    3  S   UNL     1      62.564   8.231   3.148  1.00  0.00    -0.103 SA
HETATM    4  C   UNL     1      62.001   9.723   2.531  1.00  0.00     0.050 A 
HETATM    5  C   UNL     1      62.044  10.723   3.475  1.00  0.00     0.008 A 
HETATM    6  C   UNL     1      62.540  10.255   4.725  1.00  0.00     0.018 A 
ENDBRANCH   1   2
BRANCH   1   7
HETATM    7  N   UNL     1      64.540   7.217   5.385  1.00  0.00    -0.047 N 
HETATM    8  C   UNL     1      65.784   7.972   5.149  1.00  0.00     0.263 C 
HETATM    9  C   UNL     1      66.589   8.299   6.422  1.00  0.00     0.195 C 
HETATM   10  O   UNL     1      66.838   7.135   7.222  1.00  0.00    -0.388 OA
HETATM   11  C   UNL     1      65.620   6.463   7.543  1.00  0.00     0.195 C 
HETATM   12  C   UNL     1      64.880   6.059   6.262  1.00  0.00     0.263 C 
HETATM   13  H   UNL     1      64.193   6.881   4.485  1.00  0.00     0.282 HD
ENDBRANCH   1   7
BRANCH   1  14
HETATM   14  C   UNL     1      62.265   7.006   6.185  1.00  0.00    -0.038 C 
BRANCH  14  15
HETATM   15  N   UNL     1      61.376   6.163   6.482  1.00  0.00    -0.368 N 
ATOM     16  HN2 UNL     1      62.117   6.826   6.254  1.00  0.00     0.165 HD
ATOM     17  HN1 UNL     1      60.657   5.482   6.722  1.00  0.00     0.165 HD
ENDBRANCH  14  15
ENDBRANCH   1  14
TORSDOF 4
ENDMDL
MODEL 2
REMARK VINA RESULT:      -4.2      2.708      4.938
REMARK  4 active torsions:
REMARK  status: ('A' for Active; 'I' for Inactive)
REMARK    1  A    between atoms: C_1  and  C_2 
REMARK    2  A    between atoms: C_1  and  N_3 
REMARK    3  A    between atoms: C_1  and  C_7 
REMARK    4  A    between atoms: N_4  and  C_7 
ROOT
HETATM    1  C   UNL     1      64.122   8.114   4.177  1.00  0.00     0.315 C 
ENDROOT
BRANCH   1   2
HETATM    2  C   UNL     1      64.909   7.701   5.399  1.00  0.00     0.026 A 
HETATM    3  S   UNL     1      64.396   6.354   6.334  1.00  0.00    -0.103 SA
HETATM    4  C   UNL     1      65.758   6.460   7.361  1.00  0.00     0.050 A 
HETATM    5  C   UNL     1      66.590   7.499   7.011  1.00  0.00     0.008 A 
HETATM    6  C   UNL     1      66.103   8.213   5.879  1.00  0.00     0.018 A 
ENDBRANCH   1   2
BRANCH   1   7
HETATM    7  N   UNL     1      62.708   8.483   4.576  1.00  0.00    -0.047 N 
HETATM    8  C   UNL     1      62.569   9.566   5.567  1.00  0.00     0.263 C 
HETATM    9  C   UNL     1      62.678  10.989   4.985  1.00  0.00     0.195 C 
HETATM   10  O   UNL     1      61.794  11.192   3.876  1.00  0.00    -0.388 OA
HETATM   11  C   UNL     1      62.004  10.206   2.864  1.00  0.00     0.195 C 
HETATM   12  C   UNL     1      61.795   8.800   3.439  1.00  0.00     0.263 C 
HETATM   13  H   UNL     1      62.425   7.607   5.015  1.00  0.00     0.282 HD
ENDBRANCH   1   7
BRANCH   1  14
HETATM   14  C   UNL     1      63.989   6.946   3.213  1.00  0.00    -0.038 C 
BRANCH  14  15
HETATM   15  N   UNL     1      63.877   5.977   2.414  1.00  0.00    -0.368 N 
ATOM     16  HN2 UNL     1      63.998   6.752   3.066  1.00  0.00     0.165 HD
ATOM     17  HN1 UNL     1      63.787   5.194   1.767  1.00  0.00     0.165 HD
ENDBRANCH  14  15
ENDBRANCH   1  14
TORSDOF 4
ENDMDL
MODEL 3
REMARK VINA RESULT:      -4.1      3.006      5.013
REMARK  4 active torsions:
REMARK  status: ('A' for Active; 'I' for Inactive)
REMARK    1  A    between atoms: C_1  and  C_2 
REMARK    2  A    between atoms: C_1  and  N_3 
REMARK    3  A    between atoms: C_1  and  C_7 
REMARK    4  A    between atoms: N_4  and  C_7 
ROOT
HETATM    1  C   UNL     1      63.228   8.627   5.077  1.00  0.00     0.315 C 
ENDROOT
BRANCH   1   2
HETATM    2  C   UNL     1      64.476   7.942   5.583  1.00  0.00     0.026 A 
HETATM    3  S   UNL     1      64.354   6.447   6.421  1.00  0.00    -0.103 SA
HETATM    4  C   UNL     1      66.052   6.292   6.532  1.00  0.00     0.050 A 
HETATM    5  C   UNL     1      66.708   7.353   5.951  1.00  0.00     0.008 A 
HETATM    6  C   UNL     1      65.801   8.303   5.402  1.00  0.00     0.018 A 
ENDBRANCH   1   2
BRANCH   1   7
HETATM    7  N   UNL     1      63.221   8.630   3.562  1.00  0.00    -0.047 N 
HETATM    8  C   UNL     1      63.422   7.325   2.905  1.00  0.00     0.263 C 
HETATM    9  C   UNL     1      62.159   6.447   2.817  1.00  0.00     0.195 C 
HETATM   10  O   UNL     1      61.049   7.147   2.240  1.00  0.00    -0.388 OA
HETATM   11  C   UNL     1      60.783   8.359   2.946  1.00  0.00     0.195 C 
HETATM   12  C   UNL     1      62.023   9.263   2.939  1.00  0.00     0.263 C 
HETATM   13  H   UNL     1      64.046   9.206   3.393  1.00  0.00     0.282 HD
ENDBRANCH   1   7
BRANCH   1  14
HETATM   14  C   UNL     1      63.221  10.089   5.494  1.00  0.00    -0.038 C 
BRANCH  14  15
HETATM   15  N   UNL     1      63.215  11.301   5.840  1.00  0.00    -0.368 N 
ATOM     16  HN2 UNL     1      63.222  10.330   5.530  1.00  0.00     0.165 HD
ATOM     17  HN1 UNL     1      63.210  12.282   6.120  1.00  0.00     0.165 HD
ENDBRANCH  14  15
ENDBRANCH   1  14
TORSDOF 4
ENDMDL
MODEL 4
REMARK VINA RESULT:      -4.1      1.746      3.089
REMARK  4 active torsions:
REMARK  status: ('A' for Active; 'I' for Inactive)
REMARK    1  A    between atoms: C_1  and  C_2 
REMARK    2  A    between atoms: C_1  and  N_3 
REMARK    3  A    between atoms: C_1  and  C_7 
REMARK    4  A    between atoms: N_4  and  C_7 
ROOT
HETATM    1  C   UNL     1      64.078   7.735   4.894  1.00  0.00     0.315 C 
ENDROOT
BRANCH   1   2
HETATM    2  C   UNL     1      63.362   9.014   4.530  1.00  0.00     0.026 A 
HETATM    3  S   UNL     1      62.441   9.099   3.082  1.00  0.00    -0.103 SA
HETATM    4  C   UNL     1      61.902  10.682   3.437  1.00  0.00     0.050 A 
HETATM    5  C   UNL     1      62.411  11.147   4.627  1.00  0.00     0.008 A 
HETATM    6  C   UNL     1      63.250  10.187   5.259  1.00  0.00     0.018 A 
ENDBRANCH   1   2
BRANCH   1   7
HETATM    7  N   UNL     1      63.654   7.283   6.276  1.00  0.00    -0.047 N 
HETATM    8  C   UNL     1      62.243   6.884   6.430  1.00  0.00     0.263 C 
HETATM    9  C   UNL     1      61.926   5.450   5.964  1.00  0.00     0.195 C 
HETATM   10  O   UNL     1      62.801   4.480   6.554  1.00  0.00    -0.388 OA
HETATM   11  C   UNL     1      64.169   4.807   6.311  1.00  0.00     0.195 C 
HETATM   12  C   UNL     1      64.491   6.200   6.869  1.00  0.00     0.263 C 
HETATM   13  H   UNL     1      63.800   8.154   6.788  1.00  0.00     0.282 HD
ENDBRANCH   1   7
BRANCH   1  14
HETATM   14  C   UNL     1      65.578   7.974   4.978  1.00  0.00    -0.038 C 
BRANCH  14  15
HETATM   15  N   UNL     1      66.821   8.171   5.048  1.00  0.00    -0.368 N 
ATOM     16  HN2 UNL     1      65.811   8.042   4.983  1.00  0.00     0.165 HD
ATOM     17  HN1 UNL     1      67.826   8.331   5.104  1.00  0.00     0.165 HD
ENDBRANCH  14  15
ENDBRANCH   1  14
TORSDOF 4
ENDMDL
MODEL 5
REMARK VINA RESULT:      -4.0      3.001      4.414
REMARK  4 active torsions:
REMARK  status: ('A' for Active; 'I' for Inactive)
REMARK    1  A    between atoms: C_1  and  C_2 
REMARK    2  A    between atoms: C_1  and  N_3 
REMARK    3  A    between atoms: C_1  and  C_7 
REMARK    4  A    between atoms: N_4  and  C_7 
ROOT
HETATM    1  C   UNL     1      62.289   9.174   2.422  1.00  0.00     0.315 C 
ENDROOT
BRANCH   1   2
HETATM    2  C   UNL     1      61.481   8.255   1.538  1.00  0.00     0.026 A 
HETATM    3  S   UNL     1      62.183   6.805   0.939  1.00  0.00    -0.103 SA
HETATM    4  C   UNL     1      60.720   6.320   0.201  1.00  0.00     0.050 A 
HETATM    5  C   UNL     1      59.713   7.238   0.396  1.00  0.00     0.008 A 
HETATM    6  C   UNL     1      60.149   8.352   1.168  1.00  0.00     0.018 A 
ENDBRANCH   1   2
BRANCH   1   7
HETATM    7  N   UNL     1      61.942   8.927   3.876  1.00  0.00    -0.047 N 
HETATM    8  C   UNL     1      61.917   7.518   4.312  1.00  0.00     0.263 C 
HETATM    9  C   UNL     1      63.300   6.920   4.636  1.00  0.00     0.195 C 
HETATM   10  O   UNL     1      64.040   7.730   5.559  1.00  0.00    -0.388 OA
HETATM   11  C   UNL     1      64.159   9.072   5.084  1.00  0.00     0.195 C 
HETATM   12  C   UNL     1      62.770   9.683   4.860  1.00  0.00     0.263 C 
HETATM   13  H   UNL     1      60.985   9.282   3.882  1.00  0.00     0.282 HD
ENDBRANCH   1   7
BRANCH   1  14
HETATM   14  C   UNL     1      61.924  10.625   2.151  1.00  0.00    -0.038 C 
BRANCH  14  15
HETATM   15  N   UNL     1      61.623  11.828   1.926  1.00  0.00    -0.368 N 
ATOM     16  HN2 UNL     1      61.875  10.852   2.078  1.00  0.00     0.165 HD
ATOM     17  HN1 UNL     1      61.378  12.802   1.745  1.00  0.00     0.165 HD
ENDBRANCH  14  15
ENDBRANCH   1  14
TORSDOF 4
ENDMDL
MODEL 6
REMARK VINA RESULT:      -4.0      3.626      5.564
REMARK  4 active torsions:
REMARK  status: ('A' for Active; 'I' for Inactive)
REMARK    1  A    between atoms: C_1  and  C_2 
REMARK    2  A    between atoms: C_1  and  N_3 
REMARK    3  A    between atoms: C_1  and  C_7 
REMARK    4  A    between atoms: N_4  and  C_7 
ROOT
HETATM    1  C   UNL     1      61.982   8.667   3.392  1.00  0.00     0.315 C 
ENDROOT
BRANCH   1   2
HETATM    2  C   UNL     1      62.962   8.223   4.452  1.00  0.00     0.026 A 
HETATM    3  S   UNL     1      62.500   7.034   5.603  1.00  0.00    -0.103 SA
HETATM    4  C   UNL     1      64.061   7.002   6.299  1.00  0.00     0.050 A 
HETATM    5  C   UNL     1      64.922   7.879   5.679  1.00  0.00     0.008 A 
HETATM    6  C   UNL     1      64.291   8.581   4.614  1.00  0.00     0.018 A 
ENDBRANCH   1   2
BRANCH   1   7
HETATM    7  N   UNL     1      62.490   8.267   2.022  1.00  0.00    -0.047 N 
HETATM    8  C   UNL     1      62.632   6.820   1.773  1.00  0.00     0.263 C 
HETATM    9  C   UNL     1      61.322   6.101   1.397  1.00  0.00     0.195 C 
HETATM   10  O   UNL     1      60.641   6.744   0.312  1.00  0.00    -0.388 OA
HETATM   11  C   UNL     1      60.404   8.122   0.598  1.00  0.00     0.195 C 
HETATM   12  C   UNL     1      61.730   8.844   0.875  1.00  0.00     0.263 C 
HETATM   13  H   UNL     1      63.422   8.679   2.063  1.00  0.00     0.282 HD
ENDBRANCH   1   7
BRANCH   1  14
HETATM   14  C   UNL     1      61.879  10.184   3.369  1.00  0.00    -0.038 C 
BRANCH  14  15
HETATM   15  N   UNL     1      61.793  11.441   3.349  1.00  0.00    -0.368 N 
ATOM     16  HN2 UNL     1      61.832  10.422   3.355  1.00  0.00     0.165 HD
ATOM     17  HN1 UNL     1      61.723  12.458   3.333  1.00  0.00     0.165 HD
ENDBRANCH  14  15
ENDBRANCH   1  14
TORSDOF 4
ENDMDL
MODEL 7
REMARK VINA RESULT:      -3.9      1.951      2.729
REMARK  4 active torsions:
REMARK  status: ('A' for Active; 'I' for Inactive)
REMARK    1  A    between atoms: C_1  and  C_2 
REMARK    2  A    between atoms: C_1  and  N_3 
REMARK    3  A    between atoms: C_1  and  C_7 
REMARK    4  A    between atoms: N_4  and  C_7 
ROOT
HETATM    1  C   UNL     1      63.644   8.609   3.950  1.00  0.00     0.315 C 
ENDROOT
BRANCH   1   2
HETATM    2  C   UNL     1      62.489   8.418   2.996  1.00  0.00     0.026 A 
HETATM    3  S   UNL     1      61.018   7.730   3.557  1.00  0.00    -0.103 SA
HETATM    4  C   UNL     1      60.256   7.955   2.044  1.00  0.00     0.050 A 
HETATM    5  C   UNL     1      61.096   8.536   1.122  1.00  0.00     0.008 A 
HETATM    6  C   UNL     1      62.383   8.805   1.670  1.00  0.00     0.018 A 
ENDBRANCH   1   2
BRANCH   1   7
HETATM    7  N   UNL     1      63.896   7.327   4.717  1.00  0.00    -0.047 N 
HETATM    8  C   UNL     1      64.405   6.185   3.934  1.00  0.00     0.263 C 
HETATM    9  C   UNL     1      65.922   6.214   3.667  1.00  0.00     0.195 C 
HETATM   10  O   UNL     1      66.683   6.393   4.868  1.00  0.00    -0.388 OA
HETATM   11  C   UNL     1      66.264   7.562   5.573  1.00  0.00     0.195 C 
HETATM   12  C   UNL     1      64.771   7.471   5.916  1.00  0.00     0.263 C 
HETATM   13  H   UNL     1      62.940   7.116   5.008  1.00  0.00     0.282 HD
ENDBRANCH   1   7
BRANCH   1  14
HETATM   14  C   UNL     1      63.299   9.656   4.997  1.00  0.00    -0.038 C 
BRANCH  14  15
HETATM   15  N   UNL     1      63.012  10.524   5.865  1.00  0.00    -0.368 N 
ATOM     16  HN2 UNL     1      63.227   9.838   5.141  1.00  0.00     0.165 HD
ATOM     17  HN1 UNL     1      62.780  11.226   6.568  1.00  0.00     0.165 HD
ENDBRANCH  14  15
ENDBRANCH   1  14
TORSDOF 4
ENDMDL
MODEL 8
REMARK VINA RESULT:      -3.7      2.880      3.897
REMARK  4 active torsions:
REMARK  status: ('A' for Active; 'I' for Inactive)
REMARK    1  A    between atoms: C_1  and  C_2 
REMARK    2  A    between atoms: C_1  and  N_3 
REMARK    3  A    between atoms: C_1  and  C_7 
REMARK    4  A    between atoms: N_4  and  C_7 
ROOT
HETATM    1  C   UNL     1      62.128   8.121   3.545  1.00  0.00     0.315 C 
ENDROOT
BRANCH   1   2
HETATM    2  C   UNL     1      60.917   7.222   3.467  1.00  0.00     0.026 A 
HETATM    3  S   UNL     1      61.111   5.550   3.124  1.00  0.00    -0.103 SA
HETATM    4  C   UNL     1      59.440   5.246   3.319  1.00  0.00     0.050 A 
HETATM    5  C   UNL     1      58.740   6.388   3.634  1.00  0.00     0.008 A 
HETATM    6  C   UNL     1      59.589   7.527   3.721  1.00  0.00     0.018 A 
ENDBRANCH   1   2
BRANCH   1   7
HETATM    7  N   UNL     1      62.366   8.539   4.982  1.00  0.00    -0.047 N 
HETATM    8  C   UNL     1      62.464   7.451   5.973  1.00  0.00     0.263 C 
HETATM    9  C   UNL     1      63.842   6.766   6.041  1.00  0.00     0.195 C 
HETATM   10  O   UNL     1      64.911   7.707   6.205  1.00  0.00    -0.388 OA
HETATM   11  C   UNL     1      64.882   8.700   5.180  1.00  0.00     0.195 C 
HETATM   12  C   UNL     1      63.538   9.439   5.191  1.00  0.00     0.263 C 
HETATM   13  H   UNL     1      61.500   9.052   5.152  1.00  0.00     0.282 HD
ENDBRANCH   1   7
BRANCH   1  14
HETATM   14  C   UNL     1      61.883   9.409   2.775  1.00  0.00    -0.038 C 
BRANCH  14  15
HETATM   15  N   UNL     1      61.681  10.476   2.136  1.00  0.00    -0.368 N 
ATOM     16  HN2 UNL     1      61.842   9.596   2.625  1.00  0.00     0.165 HD
ATOM     17  HN1 UNL     1      61.517  11.340   1.619  1.00  0.00     0.165 HD
ENDBRANCH  14  15
ENDBRANCH   1  14
TORSDOF 4
ENDMDL
MODEL 9
REMARK VINA RESULT:      -3.6      2.600      3.844
REMARK  4 active torsions:
REMARK  status: ('A' for Active; 'I' for Inactive)
REMARK    1  A    between atoms: C_1  and  C_2 
REMARK    2  A    between atoms: C_1  and  N_3 
REMARK    3  A    between atoms: C_1  and  C_7 
REMARK    4  A    between atoms: N_4  and  C_7 
ROOT
HETATM    1  C   UNL     1      63.048   7.228   4.132  1.00  0.00     0.315 C 
ENDROOT
BRANCH   1   2
HETATM    2  C   UNL     1      62.709   7.974   2.863  1.00  0.00     0.026 A 
HETATM    3  S   UNL     1      62.682   7.141   1.360  1.00  0.00    -0.103 SA
HETATM    4  C   UNL     1      62.140   8.529   0.523  1.00  0.00     0.050 A 
HETATM    5  C   UNL     1      61.985   9.611   1.359  1.00  0.00     0.008 A 
HETATM    6  C   UNL     1      62.310   9.292   2.708  1.00  0.00     0.018 A 
ENDBRANCH   1   2
BRANCH   1   7
HETATM    7  N   UNL     1      61.815   7.108   5.004  1.00  0.00    -0.047 N 
HETATM    8  C   UNL     1      60.665   6.397   4.416  1.00  0.00     0.263 C 
HETATM    9  C   UNL     1      60.753   4.860   4.490  1.00  0.00     0.195 C 
HETATM   10  O   UNL     1      61.021   4.394   5.818  1.00  0.00    -0.388 OA
HETATM   11  C   UNL     1      62.200   5.001   6.348  1.00  0.00     0.195 C 
HETATM   12  C   UNL     1      62.054   6.528   6.357  1.00  0.00     0.263 C 
HETATM   13  H   UNL     1      61.573   8.097   5.087  1.00  0.00     0.282 HD
ENDBRANCH   1   7
BRANCH   1  14
HETATM   14  C   UNL     1      64.060   8.012   4.952  1.00  0.00    -0.038 C 
BRANCH  14  15
HETATM   15  N   UNL     1      64.900   8.662   5.632  1.00  0.00    -0.368 N 
ATOM     16  HN2 UNL     1      64.241   8.112   5.082  1.00  0.00     0.165 HD
ATOM     17  HN1 UNL     1      65.578   9.189   6.182  1.00  0.00     0.165 HD
ENDBRANCH  14  15
ENDBRANCH   1  14
TORSDOF 4
ENDMDL
