MODEL 1
REMARK VINA RESULT:      -5.8      0.000      0.000
REMARK  3 active torsions:
REMARK  status: ('A' for Active; 'I' for Inactive)
REMARK    1  A    between atoms: C_1  and  C_2 
REMARK    2  A    between atoms: C_2  and  C_3 
REMARK    3  A    between atoms: C_2  and  O_10 
ROOT
HETATM    1  C   UNL     1      62.983   8.992   4.109  1.00  0.00    -0.013 A 
HETATM    2  C   UNL     1      62.594  10.334   4.299  1.00  0.00    -0.053 A 
HETATM    3  C   UNL     1      62.772   8.400   2.839  1.00  0.00     0.017 A 
HETATM    4  C   UNL     1      62.006  11.031   3.227  1.00  0.00     0.008 A 
HETATM    5  C   UNL     1      62.189   9.104   1.780  1.00  0.00    -0.061 A 
HETATM    6  C   UNL     1      61.804  10.426   1.986  1.00  0.00     0.007 A 
HETATM    7  C   UNL     1      62.755  11.101   5.585  1.00  0.00     0.049 C 
HETATM    8  C   UNL     1      61.973   8.455   0.445  1.00  0.00     0.048 C 
ENDROOT
BRANCH   1   9
HETATM    9  C   UNL     1      63.603   8.134   5.199  1.00  0.00     0.252 C 
BRANCH   9  10
HETATM   10  C   UNL     1      65.110   8.408   5.359  1.00  0.00     0.207 C 
HETATM   11  O   UNL     1      65.616   9.232   6.103  1.00  0.00    -0.646 OA
HETATM   12  O   UNL     1      65.885   7.639   4.565  1.00  0.00    -0.646 OA
ENDBRANCH   9  10
BRANCH   9  13
HETATM   13  O   UNL     1      62.866   8.333   6.406  1.00  0.00    -0.380 OA
HETATM   14  H   UNL     1      63.046   7.603   7.019  1.00  0.00     0.211 HD
ENDBRANCH   9  13
ENDBRANCH   1   9
TORSDOF 3
ENDMDL
MODEL 2
REMARK VINA RESULT:      -5.8      0.831      1.976
REMARK  3 active torsions:
REMARK  status: ('A' for Active; 'I' for Inactive)
REMARK    1  A    between atoms: C_1  and  C_2 
REMARK    2  A    between atoms: C_2  and  C_3 
REMARK    3  A    between atoms: C_2  and  O_10 
ROOT
HETATM    1  C   UNL     1      63.171   9.004   4.085  1.00  0.00    -0.013 A 
HETATM    2  C   UNL     1      62.647  10.299   4.281  1.00  0.00    -0.053 A 
HETATM    3  C   UNL     1      62.962   8.371   2.835  1.00  0.00     0.017 A 
HETATM    4  C   UNL     1      61.931  10.909   3.233  1.00  0.00     0.008 A 
HETATM    5  C   UNL     1      62.250   8.989   1.800  1.00  0.00    -0.061 A 
HETATM    6  C   UNL     1      61.733  10.264   2.012  1.00  0.00     0.007 A 
HETATM    7  C   UNL     1      62.788  11.100   5.548  1.00  0.00     0.049 C 
HETATM    8  C   UNL     1      62.039   8.298   0.487  1.00  0.00     0.048 C 
ENDROOT
BRANCH   1   9
HETATM    9  C   UNL     1      63.938   8.238   5.151  1.00  0.00     0.252 C 
BRANCH   9  10
HETATM   10  C   UNL     1      63.028   7.270   5.929  1.00  0.00     0.207 C 
HETATM   11  O   UNL     1      62.730   6.136   5.593  1.00  0.00    -0.646 OA
HETATM   12  O   UNL     1      62.541   7.792   7.076  1.00  0.00    -0.646 OA
ENDBRANCH   9  10
BRANCH   9  13
HETATM   13  O   UNL     1      65.048   7.588   4.530  1.00  0.00    -0.380 OA
HETATM   14  H   UNL     1      65.875   7.959   4.877  1.00  0.00     0.211 HD
ENDBRANCH   9  13
ENDBRANCH   1   9
TORSDOF 3
ENDMDL
MODEL 3
REMARK VINA RESULT:      -5.8      0.944      2.580
REMARK  3 active torsions:
REMARK  status: ('A' for Active; 'I' for Inactive)
REMARK    1  A    between atoms: C_1  and  C_2 
REMARK    2  A    between atoms: C_2  and  C_3 
REMARK    3  A    between atoms: C_2  and  O_10 
ROOT
HETATM    1  C   UNL     1      62.979   8.469   3.713  1.00  0.00    -0.013 A 
HETATM    2  C   UNL     1      62.877   7.588   2.616  1.00  0.00    -0.053 A 
HETATM    3  C   UNL     1      62.574   9.816   3.539  1.00  0.00     0.017 A 
HETATM    4  C   UNL     1      62.385   8.080   1.392  1.00  0.00     0.008 A 
HETATM    5  C   UNL     1      62.085  10.292   2.318  1.00  0.00    -0.061 A 
HETATM    6  C   UNL     1      61.997   9.411   1.243  1.00  0.00     0.007 A 
HETATM    7  C   UNL     1      63.262   6.133   2.645  1.00  0.00     0.049 C 
HETATM    8  C   UNL     1      61.666  11.723   2.156  1.00  0.00     0.048 C 
ENDROOT
BRANCH   1   9
HETATM    9  C   UNL     1      63.517   8.059   5.074  1.00  0.00     0.252 C 
BRANCH   9  10
HETATM   10  C   UNL     1      65.040   8.266   5.176  1.00  0.00     0.207 C 
HETATM   11  O   UNL     1      65.897   7.556   4.676  1.00  0.00    -0.646 OA
HETATM   12  O   UNL     1      65.389   9.343   5.911  1.00  0.00    -0.646 OA
ENDBRANCH   9  10
BRANCH   9  13
HETATM   13  O   UNL     1      62.787   8.761   6.080  1.00  0.00    -0.380 OA
HETATM   14  H   UNL     1      62.471   9.605   5.721  1.00  0.00     0.211 HD
ENDBRANCH   9  13
ENDBRANCH   1   9
TORSDOF 3
ENDMDL
MODEL 4
REMARK VINA RESULT:      -5.0      2.343      4.580
REMARK  3 active torsions:
REMARK  status: ('A' for Active; 'I' for Inactive)
REMARK    1  A    between atoms: C_1  and  C_2 
REMARK    2  A    between atoms: C_2  and  C_3 
REMARK    3  A    between atoms: C_2  and  O_10 
ROOT
HETATM    1  C   UNL     1      63.625   8.231   5.102  1.00  0.00    -0.013 A 
HETATM    2  C   UNL     1      63.278   7.188   5.986  1.00  0.00    -0.053 A 
HETATM    3  C   UNL     1      64.994   8.432   4.798  1.00  0.00     0.017 A 
HETATM    4  C   UNL     1      64.301   6.394   6.538  1.00  0.00     0.008 A 
HETATM    5  C   UNL     1      66.003   7.635   5.351  1.00  0.00    -0.061 A 
HETATM    6  C   UNL     1      65.644   6.614   6.227  1.00  0.00     0.007 A 
HETATM    7  C   UNL     1      61.872   6.848   6.402  1.00  0.00     0.049 C 
HETATM    8  C   UNL     1      67.445   7.869   5.016  1.00  0.00     0.048 C 
ENDROOT
BRANCH   1   9
HETATM    9  C   UNL     1      62.610   9.166   4.466  1.00  0.00     0.252 C 
BRANCH   9  10
HETATM   10  C   UNL     1      62.677  10.582   5.068  1.00  0.00     0.207 C 
HETATM   11  O   UNL     1      63.221  10.893   6.115  1.00  0.00    -0.646 OA
HETATM   12  O   UNL     1      62.046  11.515   4.323  1.00  0.00    -0.646 OA
ENDBRANCH   9  10
BRANCH   9  13
HETATM   13  O   UNL     1      62.802   9.149   3.051  1.00  0.00    -0.380 OA
HETATM   14  H   UNL     1      63.032   8.250   2.767  1.00  0.00     0.211 HD
ENDBRANCH   9  13
ENDBRANCH   1   9
TORSDOF 3
ENDMDL
MODEL 5
REMARK VINA RESULT:      -5.0      1.471      3.058
REMARK  3 active torsions:
REMARK  status: ('A' for Active; 'I' for Inactive)
REMARK    1  A    between atoms: C_1  and  C_2 
REMARK    2  A    between atoms: C_2  and  C_3 
REMARK    3  A    between atoms: C_2  and  O_10 
ROOT
HETATM    1  C   UNL     1      64.131   7.918   4.526  1.00  0.00    -0.013 A 
HETATM    2  C   UNL     1      63.562   7.498   3.306  1.00  0.00    -0.053 A 
HETATM    3  C   UNL     1      63.743   9.173   5.057  1.00  0.00     0.017 A 
HETATM    4  C   UNL     1      62.638   8.340   2.660  1.00  0.00     0.008 A 
HETATM    5  C   UNL     1      62.822  10.001   4.407  1.00  0.00    -0.061 A 
HETATM    6  C   UNL     1      62.274   9.574   3.200  1.00  0.00     0.007 A 
HETATM    7  C   UNL     1      63.870   6.194   2.619  1.00  0.00     0.049 C 
HETATM    8  C   UNL     1      62.428  11.326   4.987  1.00  0.00     0.048 C 
ENDROOT
BRANCH   1   9
HETATM    9  C   UNL     1      65.157   7.105   5.300  1.00  0.00     0.252 C 
BRANCH   9  10
HETATM   10  C   UNL     1      66.589   7.349   4.788  1.00  0.00     0.207 C 
HETATM   11  O   UNL     1      67.261   8.348   4.984  1.00  0.00    -0.646 OA
HETATM   12  O   UNL     1      67.080   6.329   4.053  1.00  0.00    -0.646 OA
ENDBRANCH   9  10
BRANCH   9  13
HETATM   13  O   UNL     1      65.002   7.387   6.691  1.00  0.00    -0.380 OA
HETATM   14  H   UNL     1      65.855   7.277   7.140  1.00  0.00     0.211 HD
ENDBRANCH   9  13
ENDBRANCH   1   9
TORSDOF 3
ENDMDL
MODEL 6
REMARK VINA RESULT:      -4.9      2.769      3.874
REMARK  3 active torsions:
REMARK  status: ('A' for Active; 'I' for Inactive)
REMARK    1  A    between atoms: C_1  and  C_2 
REMARK    2  A    between atoms: C_2  and  C_3 
REMARK    3  A    between atoms: C_2  and  O_10 
ROOT
HETATM    1  C   UNL     1      62.613   8.408   3.465  1.00  0.00    -0.013 A 
HETATM    2  C   UNL     1      63.763   8.350   4.279  1.00  0.00    -0.053 A 
HETATM    3  C   UNL     1      62.466   7.449   2.432  1.00  0.00     0.017 A 
HETATM    4  C   UNL     1      64.723   7.350   4.032  1.00  0.00     0.008 A 
HETATM    5  C   UNL     1      63.426   6.458   2.197  1.00  0.00    -0.061 A 
HETATM    6  C   UNL     1      64.559   6.419   3.006  1.00  0.00     0.007 A 
HETATM    7  C   UNL     1      64.059   9.293   5.415  1.00  0.00     0.049 C 
HETATM    8  C   UNL     1      63.250   5.455   1.096  1.00  0.00     0.048 C 
ENDROOT
BRANCH   1   9
HETATM    9  C   UNL     1      61.524   9.456   3.622  1.00  0.00     0.252 C 
BRANCH   9  10
HETATM   10  C   UNL     1      61.867  10.758   2.874  1.00  0.00     0.207 C 
HETATM   11  O   UNL     1      62.048  10.871   1.673  1.00  0.00    -0.646 OA
HETATM   12  O   UNL     1      61.974  11.833   3.684  1.00  0.00    -0.646 OA
ENDBRANCH   9  10
BRANCH   9  13
HETATM   13  O   UNL     1      60.282   8.884   3.210  1.00  0.00    -0.380 OA
HETATM   14  H   UNL     1      60.036   9.236   2.341  1.00  0.00     0.211 HD
ENDBRANCH   9  13
ENDBRANCH   1   9
TORSDOF 3
ENDMDL
MODEL 7
REMARK VINA RESULT:      -4.9      2.980      4.303
REMARK  3 active torsions:
REMARK  status: ('A' for Active; 'I' for Inactive)
REMARK    1  A    between atoms: C_1  and  C_2 
REMARK    2  A    between atoms: C_2  and  C_3 
REMARK    3  A    between atoms: C_2  and  O_10 
ROOT
HETATM    1  C   UNL     1      61.313   8.727   2.740  1.00  0.00    -0.013 A 
HETATM    2  C   UNL     1      61.303   8.339   1.384  1.00  0.00    -0.053 A 
HETATM    3  C   UNL     1      60.267   8.274   3.581  1.00  0.00     0.017 A 
HETATM    4  C   UNL     1      60.254   7.526   0.917  1.00  0.00     0.008 A 
HETATM    5  C   UNL     1      59.230   7.465   3.106  1.00  0.00    -0.061 A 
HETATM    6  C   UNL     1      59.231   7.096   1.762  1.00  0.00     0.007 A 
HETATM    7  C   UNL     1      62.344   8.734   0.371  1.00  0.00     0.049 C 
HETATM    8  C   UNL     1      58.131   7.000   4.014  1.00  0.00     0.048 C 
ENDROOT
BRANCH   1   9
HETATM    9  C   UNL     1      62.380   9.621   3.351  1.00  0.00     0.252 C 
BRANCH   9  10
HETATM   10  C   UNL     1      62.020  11.113   3.224  1.00  0.00     0.207 C 
HETATM   11  O   UNL     1      61.910  11.740   2.183  1.00  0.00    -0.646 OA
HETATM   12  O   UNL     1      61.835  11.726   4.413  1.00  0.00    -0.646 OA
ENDBRANCH   9  10
BRANCH   9  13
HETATM   13  O   UNL     1      62.598   9.210   4.701  1.00  0.00    -0.380 OA
HETATM   14  H   UNL     1      63.510   8.897   4.800  1.00  0.00     0.211 HD
ENDBRANCH   9  13
ENDBRANCH   1   9
TORSDOF 3
ENDMDL
MODEL 8
REMARK VINA RESULT:      -4.9      1.904      3.614
REMARK  3 active torsions:
REMARK  status: ('A' for Active; 'I' for Inactive)
REMARK    1  A    between atoms: C_1  and  C_2 
REMARK    2  A    between atoms: C_2  and  C_3 
REMARK    3  A    between atoms: C_2  and  O_10 
ROOT
HETATM    1  C   UNL     1      65.027   8.091   4.930  1.00  0.00    -0.013 A 
HETATM    2  C   UNL     1      64.938   7.022   4.015  1.00  0.00    -0.053 A 
HETATM    3  C   UNL     1      64.038   9.105   4.885  1.00  0.00     0.017 A 
HETATM    4  C   UNL     1      63.877   7.005   3.089  1.00  0.00     0.008 A 
HETATM    5  C   UNL     1      62.987   9.076   3.961  1.00  0.00    -0.061 A 
HETATM    6  C   UNL     1      62.917   8.017   3.060  1.00  0.00     0.007 A 
HETATM    7  C   UNL     1      65.906   5.871   3.941  1.00  0.00     0.049 C 
HETATM    8  C   UNL     1      61.954  10.162   3.930  1.00  0.00     0.048 C 
ENDROOT
BRANCH   1   9
HETATM    9  C   UNL     1      66.139   8.228   5.957  1.00  0.00     0.252 C 
BRANCH   9  10
HETATM   10  C   UNL     1      66.050   7.146   7.049  1.00  0.00     0.207 C 
HETATM   11  O   UNL     1      65.059   6.865   7.703  1.00  0.00    -0.646 OA
HETATM   12  O   UNL     1      67.214   6.496   7.260  1.00  0.00    -0.646 OA
ENDBRANCH   9  10
BRANCH   9  13
HETATM   13  O   UNL     1      67.391   8.230   5.270  1.00  0.00    -0.380 OA
HETATM   14  H   UNL     1      67.794   7.349   5.331  1.00  0.00     0.211 HD
ENDBRANCH   9  13
ENDBRANCH   1   9
TORSDOF 3
ENDMDL
MODEL 9
REMARK VINA RESULT:      -4.9      1.628      3.292
REMARK  3 active torsions:
REMARK  status: ('A' for Active; 'I' for Inactive)
REMARK    1  A    between atoms: C_1  and  C_2 
REMARK    2  A    between atoms: C_2  and  C_3 
REMARK    3  A    between atoms: C_2  and  O_10 
ROOT
HETATM    1  C   UNL     1      62.383   8.370   3.025  1.00  0.00    -0.013 A 
HETATM    2  C   UNL     1      61.961   9.022   1.848  1.00  0.00    -0.053 A 
HETATM    3  C   UNL     1      62.584   9.145   4.193  1.00  0.00     0.017 A 
HETATM    4  C   UNL     1      61.763  10.415   1.875  1.00  0.00     0.008 A 
HETATM    5  C   UNL     1      62.382  10.530   4.209  1.00  0.00    -0.061 A 
HETATM    6  C   UNL     1      61.972  11.160   3.036  1.00  0.00     0.007 A 
HETATM    7  C   UNL     1      61.701   8.337   0.532  1.00  0.00     0.049 C 
HETATM    8  C   UNL     1      62.605  11.331   5.457  1.00  0.00     0.048 C 
ENDROOT
BRANCH   1   9
HETATM    9  C   UNL     1      62.652   6.876   3.108  1.00  0.00     0.252 C 
BRANCH   9  10
HETATM   10  C   UNL     1      63.947   6.567   3.882  1.00  0.00     0.207 C 
HETATM   11  O   UNL     1      65.085   6.732   3.475  1.00  0.00    -0.646 OA
HETATM   12  O   UNL     1      63.729   6.059   5.114  1.00  0.00    -0.646 OA
ENDBRANCH   9  10
BRANCH   9  13
HETATM   13  O   UNL     1      61.501   6.239   3.663  1.00  0.00    -0.380 OA
HETATM   14  H   UNL     1      60.999   5.804   2.956  1.00  0.00     0.211 HD
ENDBRANCH   9  13
ENDBRANCH   1   9
TORSDOF 3
ENDMDL
