MODEL 1
REMARK VINA RESULT:      -5.5      0.000      0.000
REMARK  4 active torsions:
REMARK  status: ('A' for Active; 'I' for Inactive)
REMARK    1  A    between atoms: N_1  and  C_5 
REMARK    2  A    between atoms: N_2  and  C_6 
REMARK    3  A    between atoms: C_5  and  C_6 
REMARK    4  A    between atoms: C_5  and  C_7 
ROOT
HETATM    1  C   UNL     1      63.515   7.316   5.194  1.00  0.00     0.308 C 
ENDROOT
BRANCH   1   2
HETATM    2  N   UNL     1      64.629   7.693   6.130  1.00  0.00    -0.048 N 
HETATM    3  C   UNL     1      65.852   8.160   5.428  1.00  0.00     0.263 C 
HETATM    4  C   UNL     1      66.839   7.075   4.940  1.00  0.00     0.195 C 
HETATM    5  O   UNL     1      67.173   6.153   5.978  1.00  0.00    -0.388 OA
HETATM    6  C   UNL     1      66.014   5.559   6.570  1.00  0.00     0.195 C 
HETATM    7  C   UNL     1      65.044   6.629   7.093  1.00  0.00     0.263 C 
HETATM    8  H   UNL     1      64.209   8.456   6.661  1.00  0.00     0.282 HD
ENDBRANCH   1   2
BRANCH   1   9
HETATM    9  C   UNL     1      62.390   6.676   5.991  1.00  0.00    -0.039 C 
BRANCH   9  10
HETATM   10  N   UNL     1      61.457   6.144   6.652  1.00  0.00    -0.368 N 
ATOM     11  HN2 UNL     1      62.213   6.571   6.118  1.00  0.00     0.165 HD
ATOM     12  HN1 UNL     1      60.702   5.715   7.187  1.00  0.00     0.165 HD
ENDBRANCH   9  10
ENDBRANCH   1   9
BRANCH   1  13
HETATM   13  C   UNL     1      62.970   8.503   4.366  1.00  0.00    -0.015 A 
HETATM   14  C   UNL     1      62.703   8.381   2.990  1.00  0.00     0.012 A 
HETATM   15  C   UNL     1      62.271   9.478   2.235  1.00  0.00     0.024 A 
HETATM   16  C   UNL     1      62.062  10.708   2.853  1.00  0.00     0.034 A 
HETATM   17  C   UNL     1      62.267  10.845   4.221  1.00  0.00     0.024 A 
HETATM   18 CL   UNL     1      61.545  12.062   1.925  1.00  0.00    -0.084 Cl
HETATM   19  C   UNL     1      62.706   9.752   4.969  1.00  0.00     0.012 A 
ENDBRANCH   1  13
TORSDOF 4
ENDMDL
MODEL 2
REMARK VINA RESULT:      -5.1      2.070      2.841
REMARK  4 active torsions:
REMARK  status: ('A' for Active; 'I' for Inactive)
REMARK    1  A    between atoms: N_1  and  C_5 
REMARK    2  A    between atoms: N_2  and  C_6 
REMARK    3  A    between atoms: C_5  and  C_6 
REMARK    4  A    between atoms: C_5  and  C_7 
ROOT
HETATM    1  C   UNL     1      63.301   8.653   4.937  1.00  0.00     0.308 C 
ENDROOT
BRANCH   1   2
HETATM    2  N   UNL     1      64.721   8.264   4.630  1.00  0.00    -0.048 N 
HETATM    3  C   UNL     1      64.839   6.923   4.004  1.00  0.00     0.263 C 
HETATM    4  C   UNL     1      64.877   5.705   4.956  1.00  0.00     0.195 C 
HETATM    5  O   UNL     1      65.847   5.867   5.992  1.00  0.00    -0.388 OA
HETATM    6  C   UNL     1      65.660   7.082   6.724  1.00  0.00     0.195 C 
HETATM    7  C   UNL     1      65.659   8.302   5.792  1.00  0.00     0.263 C 
HETATM    8  H   UNL     1      64.999   8.992   3.972  1.00  0.00     0.282 HD
ENDBRANCH   1   2
BRANCH   1   9
HETATM    9  C   UNL     1      63.274  10.088   5.438  1.00  0.00    -0.039 C 
BRANCH   9  10
HETATM   10  N   UNL     1      63.251  11.279   5.853  1.00  0.00    -0.368 N 
ATOM     11  HN2 UNL     1      63.267  10.315   5.520  1.00  0.00     0.165 HD
ATOM     12  HN1 UNL     1      63.234  12.241   6.189  1.00  0.00     0.165 HD
ENDBRANCH   9  10
ENDBRANCH   1   9
BRANCH   1  13
HETATM   13  C   UNL     1      62.339   8.491   3.738  1.00  0.00    -0.015 A 
HETATM   14  C   UNL     1      62.437   9.310   2.598  1.00  0.00     0.012 A 
HETATM   15  C   UNL     1      61.522   9.199   1.544  1.00  0.00     0.024 A 
HETATM   16  C   UNL     1      60.515   8.239   1.596  1.00  0.00     0.034 A 
HETATM   17  C   UNL     1      60.425   7.381   2.686  1.00  0.00     0.024 A 
HETATM   18 CL   UNL     1      59.380   8.111   0.309  1.00  0.00    -0.084 Cl
HETATM   19  C   UNL     1      61.333   7.500   3.738  1.00  0.00     0.012 A 
ENDBRANCH   1  13
TORSDOF 4
ENDMDL
MODEL 3
REMARK VINA RESULT:      -4.7      2.032      3.124
REMARK  4 active torsions:
REMARK  status: ('A' for Active; 'I' for Inactive)
REMARK    1  A    between atoms: N_1  and  C_5 
REMARK    2  A    between atoms: N_2  and  C_6 
REMARK    3  A    between atoms: C_5  and  C_6 
REMARK    4  A    between atoms: C_5  and  C_7 
ROOT
HETATM    1  C   UNL     1      63.380   7.489   4.896  1.00  0.00     0.308 C 
ENDROOT
BRANCH   1   2
HETATM    2  N   UNL     1      62.706   6.191   4.548  1.00  0.00    -0.048 N 
HETATM    3  C   UNL     1      61.338   6.071   5.113  1.00  0.00     0.263 C 
HETATM    4  C   UNL     1      61.221   5.561   6.568  1.00  0.00     0.195 C 
HETATM    5  O   UNL     1      61.959   4.356   6.771  1.00  0.00    -0.388 OA
HETATM    6  C   UNL     1      63.330   4.488   6.385  1.00  0.00     0.195 C 
HETATM    7  C   UNL     1      63.457   4.958   4.928  1.00  0.00     0.263 C 
HETATM    8  H   UNL     1      62.670   6.240   3.530  1.00  0.00     0.282 HD
ENDBRANCH   1   2
BRANCH   1   9
HETATM    9  C   UNL     1      64.878   7.349   4.673  1.00  0.00    -0.039 C 
BRANCH   9  10
HETATM   10  N   UNL     1      66.120   7.232   4.488  1.00  0.00    -0.368 N 
ATOM     11  HN2 UNL     1      65.115   7.324   4.640  1.00  0.00     0.165 HD
ATOM     12  HN1 UNL     1      67.124   7.137   4.337  1.00  0.00     0.165 HD
ENDBRANCH   9  10
ENDBRANCH   1   9
BRANCH   1  13
HETATM   13  C   UNL     1      62.838   8.703   4.107  1.00  0.00    -0.015 A 
HETATM   14  C   UNL     1      62.543   8.618   2.734  1.00  0.00     0.012 A 
HETATM   15  C   UNL     1      62.114   9.738   2.013  1.00  0.00     0.024 A 
HETATM   16  C   UNL     1      61.934  10.956   2.663  1.00  0.00     0.034 A 
HETATM   17  C   UNL     1      62.167  11.057   4.030  1.00  0.00     0.024 A 
HETATM   18 CL   UNL     1      61.420  12.339   1.777  1.00  0.00    -0.084 Cl
HETATM   19  C   UNL     1      62.604   9.941   4.743  1.00  0.00     0.012 A 
ENDBRANCH   1  13
TORSDOF 4
ENDMDL
MODEL 4
REMARK VINA RESULT:      -4.6      4.050      5.992
REMARK  4 active torsions:
REMARK  status: ('A' for Active; 'I' for Inactive)
REMARK    1  A    between atoms: N_1  and  C_5 
REMARK    2  A    between atoms: N_2  and  C_6 
REMARK    3  A    between atoms: C_5  and  C_6 
REMARK    4  A    between atoms: C_5  and  C_7 
ROOT
HETATM    1  C   UNL     1      61.827   8.965   2.140  1.00  0.00     0.308 C 
ENDROOT
BRANCH   1   2
HETATM    2  N   UNL     1      60.452   8.396   2.359  1.00  0.00    -0.048 N 
HETATM    3  C   UNL     1      60.468   7.038   2.960  1.00  0.00     0.263 C 
HETATM    4  C   UNL     1      60.637   5.844   1.993  1.00  0.00     0.195 C 
HETATM    5  O   UNL     1      59.714   5.904   0.905  1.00  0.00    -0.388 OA
HETATM    6  C   UNL     1      59.787   7.147   0.200  1.00  0.00     0.195 C 
HETATM    7  C   UNL     1      59.583   8.339   1.146  1.00  0.00     0.263 C 
HETATM    8  H   UNL     1      60.048   9.070   3.009  1.00  0.00     0.282 HD
ENDBRANCH   1   2
BRANCH   1   9
HETATM    9  C   UNL     1      61.728  10.477   2.026  1.00  0.00    -0.039 C 
BRANCH   9  10
HETATM   10  N   UNL     1      61.646  11.732   1.931  1.00  0.00    -0.368 N 
ATOM     11  HN2 UNL     1      61.714  10.717   2.004  1.00  0.00     0.165 HD
ATOM     12  HN1 UNL     1      61.579  12.747   1.854  1.00  0.00     0.165 HD
ENDBRANCH   9  10
ENDBRANCH   1   9
BRANCH   1  13
HETATM   13  C   UNL     1      62.841   8.581   3.242  1.00  0.00    -0.015 A 
HETATM   14  C   UNL     1      62.936   9.308   4.443  1.00  0.00     0.012 A 
HETATM   15  C   UNL     1      63.901   8.993   5.407  1.00  0.00     0.024 A 
HETATM   16  C   UNL     1      64.763   7.920   5.203  1.00  0.00     0.034 A 
HETATM   17  C   UNL     1      64.659   7.151   4.049  1.00  0.00     0.024 A 
HETATM   18 CL   UNL     1      65.960   7.540   6.380  1.00  0.00    -0.084 Cl
HETATM   19  C   UNL     1      63.702   7.473   3.086  1.00  0.00     0.012 A 
ENDBRANCH   1  13
TORSDOF 4
ENDMDL
MODEL 5
REMARK VINA RESULT:      -4.5      1.991      3.201
REMARK  4 active torsions:
REMARK  status: ('A' for Active; 'I' for Inactive)
REMARK    1  A    between atoms: N_1  and  C_5 
REMARK    2  A    between atoms: N_2  and  C_6 
REMARK    3  A    between atoms: C_5  and  C_6 
REMARK    4  A    between atoms: C_5  and  C_7 
ROOT
HETATM    1  C   UNL     1      64.872   6.863   6.015  1.00  0.00     0.308 C 
ENDROOT
BRANCH   1   2
HETATM    2  N   UNL     1      65.439   5.534   5.599  1.00  0.00    -0.048 N 
HETATM    3  C   UNL     1      64.455   4.425   5.683  1.00  0.00     0.263 C 
HETATM    4  C   UNL     1      64.280   3.743   7.060  1.00  0.00     0.195 C 
HETATM    5  O   UNL     1      65.532   3.351   7.624  1.00  0.00    -0.388 OA
HETATM    6  C   UNL     1      66.454   4.442   7.707  1.00  0.00     0.195 C 
HETATM    7  C   UNL     1      66.664   5.102   6.337  1.00  0.00     0.263 C 
HETATM    8  H   UNL     1      65.697   5.710   4.629  1.00  0.00     0.282 HD
ENDBRANCH   1   2
BRANCH   1   9
HETATM    9  C   UNL     1      65.998   7.747   6.527  1.00  0.00    -0.039 C 
BRANCH   9  10
HETATM   10  N   UNL     1      66.932   8.480   6.952  1.00  0.00    -0.368 N 
ATOM     11  HN2 UNL     1      66.179   7.884   6.608  1.00  0.00     0.165 HD
ATOM     12  HN1 UNL     1      67.687   9.073   7.295  1.00  0.00     0.165 HD
ENDBRANCH   9  10
ENDBRANCH   1   9
BRANCH   1  13
HETATM   13  C   UNL     1      64.098   7.588   4.890  1.00  0.00    -0.015 A 
HETATM   14  C   UNL     1      63.536   8.863   5.085  1.00  0.00     0.012 A 
HETATM   15  C   UNL     1      62.781   9.484   4.083  1.00  0.00     0.024 A 
HETATM   16  C   UNL     1      62.609   8.856   2.853  1.00  0.00     0.034 A 
HETATM   17  C   UNL     1      63.196   7.619   2.613  1.00  0.00     0.024 A 
HETATM   18 CL   UNL     1      61.670   9.611   1.624  1.00  0.00    -0.084 Cl
HETATM   19  C   UNL     1      63.939   6.998   3.617  1.00  0.00     0.012 A 
ENDBRANCH   1  13
TORSDOF 4
ENDMDL
MODEL 6
REMARK VINA RESULT:      -4.4      1.808      2.797
REMARK  4 active torsions:
REMARK  status: ('A' for Active; 'I' for Inactive)
REMARK    1  A    between atoms: N_1  and  C_5 
REMARK    2  A    between atoms: N_2  and  C_6 
REMARK    3  A    between atoms: C_5  and  C_6 
REMARK    4  A    between atoms: C_5  and  C_7 
ROOT
HETATM    1  C   UNL     1      65.761   7.919   5.643  1.00  0.00     0.308 C 
ENDROOT
BRANCH   1   2
HETATM    2  N   UNL     1      65.387   7.261   6.943  1.00  0.00    -0.048 N 
HETATM    3  C   UNL     1      66.539   7.090   7.866  1.00  0.00     0.263 C 
HETATM    4  C   UNL     1      67.419   5.835   7.664  1.00  0.00     0.195 C 
HETATM    5  O   UNL     1      66.639   4.641   7.603  1.00  0.00    -0.388 OA
HETATM    6  C   UNL     1      65.616   4.712   6.605  1.00  0.00     0.195 C 
HETATM    7  C   UNL     1      64.712   5.935   6.819  1.00  0.00     0.263 C 
HETATM    8  H   UNL     1      64.716   7.925   7.328  1.00  0.00     0.282 HD
ENDBRANCH   1   2
BRANCH   1   9
HETATM    9  C   UNL     1      66.822   7.080   4.948  1.00  0.00    -0.039 C 
BRANCH   9  10
HETATM   10  N   UNL     1      67.703   6.385   4.372  1.00  0.00    -0.368 N 
ATOM     11  HN2 UNL     1      66.989   6.948   4.835  1.00  0.00     0.165 HD
ATOM     12  HN1 UNL     1      68.415   5.823   3.906  1.00  0.00     0.165 HD
ENDBRANCH   9  10
ENDBRANCH   1   9
BRANCH   1  13
HETATM   13  C   UNL     1      64.562   8.149   4.695  1.00  0.00    -0.015 A 
HETATM   14  C   UNL     1      64.287   7.274   3.628  1.00  0.00     0.012 A 
HETATM   15  C   UNL     1      63.237   7.525   2.736  1.00  0.00     0.024 A 
HETATM   16  C   UNL     1      62.420   8.636   2.920  1.00  0.00     0.034 A 
HETATM   17  C   UNL     1      62.635   9.490   3.997  1.00  0.00     0.024 A 
HETATM   18 CL   UNL     1      61.138   8.956   1.817  1.00  0.00    -0.084 Cl
HETATM   19  C   UNL     1      63.687   9.242   4.878  1.00  0.00     0.012 A 
ENDBRANCH   1  13
TORSDOF 4
ENDMDL
MODEL 7
REMARK VINA RESULT:      -4.4      3.816      5.424
REMARK  4 active torsions:
REMARK  status: ('A' for Active; 'I' for Inactive)
REMARK    1  A    between atoms: N_1  and  C_5 
REMARK    2  A    between atoms: N_2  and  C_6 
REMARK    3  A    between atoms: C_5  and  C_6 
REMARK    4  A    between atoms: C_5  and  C_7 
ROOT
HETATM    1  C   UNL     1      62.067   8.149   3.276  1.00  0.00     0.308 C 
ENDROOT
BRANCH   1   2
HETATM    2  N   UNL     1      60.987   7.606   4.171  1.00  0.00    -0.048 N 
HETATM    3  C   UNL     1      61.251   6.220   4.634  1.00  0.00     0.263 C 
HETATM    4  C   UNL     1      60.828   5.072   3.689  1.00  0.00     0.195 C 
HETATM    5  O   UNL     1      59.474   5.210   3.255  1.00  0.00    -0.388 OA
HETATM    6  C   UNL     1      59.226   6.484   2.654  1.00  0.00     0.195 C 
HETATM    7  C   UNL     1      59.608   7.632   3.599  1.00  0.00     0.263 C 
HETATM    8  H   UNL     1      61.019   8.257   4.956  1.00  0.00     0.282 HD
ENDBRANCH   1   2
BRANCH   1   9
HETATM    9  C   UNL     1      61.848   9.640   3.080  1.00  0.00    -0.039 C 
BRANCH   9  10
HETATM   10  N   UNL     1      61.667  10.878   2.917  1.00  0.00    -0.368 N 
ATOM     11  HN2 UNL     1      61.811   9.877   3.051  1.00  0.00     0.165 HD
ATOM     12  HN1 UNL     1      61.521  11.878   2.785  1.00  0.00     0.165 HD
ENDBRANCH   9  10
ENDBRANCH   1   9
BRANCH   1  13
HETATM   13  C   UNL     1      63.498   7.886   3.798  1.00  0.00    -0.015 A 
HETATM   14  C   UNL     1      64.300   6.859   3.266  1.00  0.00     0.012 A 
HETATM   15  C   UNL     1      65.570   6.587   3.789  1.00  0.00     0.024 A 
HETATM   16  C   UNL     1      66.076   7.363   4.827  1.00  0.00     0.034 A 
HETATM   17  C   UNL     1      65.327   8.418   5.338  1.00  0.00     0.024 A 
HETATM   18 CL   UNL     1      67.630   7.021   5.482  1.00  0.00    -0.084 Cl
HETATM   19  C   UNL     1      64.058   8.680   4.822  1.00  0.00     0.012 A 
ENDBRANCH   1  13
TORSDOF 4
ENDMDL
MODEL 8
REMARK VINA RESULT:      -3.9      2.843      4.023
REMARK  4 active torsions:
REMARK  status: ('A' for Active; 'I' for Inactive)
REMARK    1  A    between atoms: N_1  and  C_5 
REMARK    2  A    between atoms: N_2  and  C_6 
REMARK    3  A    between atoms: C_5  and  C_6 
REMARK    4  A    between atoms: C_5  and  C_7 
ROOT
HETATM    1  C   UNL     1      63.156   7.745   5.786  1.00  0.00     0.308 C 
ENDROOT
BRANCH   1   2
HETATM    2  N   UNL     1      64.383   7.161   5.142  1.00  0.00    -0.048 N 
HETATM    3  C   UNL     1      64.807   5.874   5.749  1.00  0.00     0.263 C 
HETATM    4  C   UNL     1      65.697   5.952   7.011  1.00  0.00     0.195 C 
HETATM    5  O   UNL     1      66.819   6.814   6.820  1.00  0.00    -0.388 OA
HETATM    6  C   UNL     1      66.430   8.122   6.387  1.00  0.00     0.195 C 
HETATM    7  C   UNL     1      65.577   8.057   5.112  1.00  0.00     0.263 C 
HETATM    8  H   UNL     1      64.069   7.017   4.183  1.00  0.00     0.282 HD
ENDBRANCH   1   2
BRANCH   1   9
HETATM    9  C   UNL     1      62.972   9.175   5.303  1.00  0.00    -0.039 C 
BRANCH   9  10
HETATM   10  N   UNL     1      62.820  10.361   4.902  1.00  0.00    -0.368 N 
ATOM     11  HN2 UNL     1      62.946   9.401   5.224  1.00  0.00     0.165 HD
ATOM     12  HN1 UNL     1      62.697  11.320   4.578  1.00  0.00     0.165 HD
ENDBRANCH   9  10
ENDBRANCH   1   9
BRANCH   1  13
HETATM   13  C   UNL     1      61.869   6.928   5.526  1.00  0.00    -0.015 A 
HETATM   14  C   UNL     1      61.288   6.854   4.247  1.00  0.00     0.012 A 
HETATM   15  C   UNL     1      60.088   6.165   4.034  1.00  0.00     0.024 A 
HETATM   16  C   UNL     1      59.469   5.504   5.091  1.00  0.00     0.034 A 
HETATM   17  C   UNL     1      60.047   5.517   6.356  1.00  0.00     0.024 A 
HETATM   18 CL   UNL     1      57.986   4.669   4.836  1.00  0.00    -0.084 Cl
HETATM   19  C   UNL     1      61.238   6.212   6.566  1.00  0.00     0.012 A 
ENDBRANCH   1  13
TORSDOF 4
ENDMDL
MODEL 9
REMARK VINA RESULT:      -3.9      3.112      4.203
REMARK  4 active torsions:
REMARK  status: ('A' for Active; 'I' for Inactive)
REMARK    1  A    between atoms: N_1  and  C_5 
REMARK    2  A    between atoms: N_2  and  C_6 
REMARK    3  A    between atoms: C_5  and  C_6 
REMARK    4  A    between atoms: C_5  and  C_7 
ROOT
HETATM    1  C   UNL     1      62.987   5.812   5.919  1.00  0.00     0.308 C 
ENDROOT
BRANCH   1   2
HETATM    2  N   UNL     1      63.593   7.023   6.573  1.00  0.00    -0.048 N 
HETATM    3  C   UNL     1      63.270   8.292   5.871  1.00  0.00     0.263 C 
HETATM    4  C   UNL     1      64.169   8.681   4.674  1.00  0.00     0.195 C 
HETATM    5  O   UNL     1      65.556   8.628   5.010  1.00  0.00    -0.388 OA
HETATM    6  C   UNL     1      65.937   7.356   5.542  1.00  0.00     0.195 C 
HETATM    7  C   UNL     1      65.075   6.977   6.755  1.00  0.00     0.263 C 
HETATM    8  H   UNL     1      63.158   7.004   7.495  1.00  0.00     0.282 HD
ENDBRANCH   1   2
BRANCH   1   9
HETATM    9  C   UNL     1      63.443   4.566   6.660  1.00  0.00    -0.039 C 
BRANCH   9  10
HETATM   10  N   UNL     1      63.822   3.531   7.275  1.00  0.00    -0.368 N 
ATOM     11  HN2 UNL     1      63.519   4.369   6.778  1.00  0.00     0.165 HD
ATOM     12  HN1 UNL     1      64.128   2.695   7.772  1.00  0.00     0.165 HD
ENDBRANCH   9  10
ENDBRANCH   1   9
BRANCH   1  13
HETATM   13  C   UNL     1      61.443   5.852   5.848  1.00  0.00    -0.015 A 
HETATM   14  C   UNL     1      60.765   5.989   4.623  1.00  0.00     0.012 A 
HETATM   15  C   UNL     1      59.369   6.089   4.574  1.00  0.00     0.024 A 
HETATM   16  C   UNL     1      58.625   6.014   5.748  1.00  0.00     0.034 A 
HETATM   17  C   UNL     1      59.265   5.826   6.968  1.00  0.00     0.024 A 
HETATM   18 CL   UNL     1      56.911   6.151   5.692  1.00  0.00    -0.084 Cl
HETATM   19  C   UNL     1      60.656   5.736   7.014  1.00  0.00     0.012 A 
ENDBRANCH   1  13
TORSDOF 4
ENDMDL
