MODEL 1
REMARK VINA RESULT:      -6.7      0.000      0.000
REMARK  3 active torsions:
REMARK  status: ('A' for Active; 'I' for Inactive)
REMARK    1  A    between atoms: C_1  and  O_4 
REMARK    2  A    between atoms: C_3  and  O_4 
REMARK    3  A    between atoms: C_9  and  N_12 
ROOT
HETATM    1  O   UNL     1      65.420   8.637   6.104  1.00  0.00    -0.291 OA
ENDROOT
BRANCH   1   2
HETATM    2  C   UNL     1      66.054   7.542   6.690  1.00  0.00     0.174 A 
HETATM    3  N   UNL     1      65.408   6.885   7.685  1.00  0.00    -0.345 N 
HETATM    4  C   UNL     1      66.036   5.825   8.223  1.00  0.00     0.090 A 
ATOM      5  HN  UNL     1      64.488   7.182   8.011  1.00  0.00     0.167 HD
HETATM    6  C   UNL     1      67.292   5.397   7.838  1.00  0.00     0.019 A 
HETATM    7  C   UNL     1      67.954   6.110   6.838  1.00  0.00     0.035 A 
HETATM    8  C   UNL     1      67.330   7.192   6.210  1.00  0.00     0.077 A 
BRANCH   8   9
HETATM    9  N   UNL     1      68.075   7.984   5.319  1.00  0.00    -0.396 N 
HETATM   10  H   UNL     1      67.717   8.850   5.015  1.00  0.00     0.156 HD
HETATM   11  H   UNL     1      68.952   7.675   4.999  1.00  0.00     0.156 HD
ENDBRANCH   8   9
ENDBRANCH   1   2
BRANCH   1  12
HETATM   12  C   UNL     1      64.557   8.396   5.057  1.00  0.00     0.084 A 
HETATM   13  C   UNL     1      63.646   9.391   4.717  1.00  0.00    -0.017 A 
HETATM   14  C   UNL     1      62.811   9.255   3.598  1.00  0.00    -0.043 A 
HETATM   15  C   UNL     1      63.414  10.685   5.424  1.00  0.00     0.042 C 
HETATM   16  C   UNL     1      62.860   8.125   2.788  1.00  0.00    -0.055 A 
HETATM   17  C   UNL     1      61.946  10.463   3.414  1.00  0.00     0.040 C 
HETATM   18  C   UNL     1      63.754   7.108   3.145  1.00  0.00     0.010 A 
HETATM   19  C   UNL     1      61.999   7.997   1.567  1.00  0.00     0.049 C 
HETATM   20  C   UNL     1      64.607   7.252   4.250  1.00  0.00     0.038 A 
HETATM   21  C   UNL     1      62.247  11.318   4.650  1.00  0.00     0.009 C 
ENDBRANCH   1  12
TORSDOF 3
ENDMDL
MODEL 2
REMARK VINA RESULT:      -6.5      1.424      3.085
REMARK  3 active torsions:
REMARK  status: ('A' for Active; 'I' for Inactive)
REMARK    1  A    between atoms: C_1  and  O_4 
REMARK    2  A    between atoms: C_3  and  O_4 
REMARK    3  A    between atoms: C_9  and  N_12 
ROOT
HETATM    1  O   UNL     1      63.334   7.861   6.031  1.00  0.00    -0.291 OA
ENDROOT
BRANCH   1   2
HETATM    2  C   UNL     1      64.670   7.479   6.145  1.00  0.00     0.174 A 
HETATM    3  N   UNL     1      65.617   8.449   6.112  1.00  0.00    -0.345 N 
HETATM    4  C   UNL     1      66.896   8.054   6.238  1.00  0.00     0.090 A 
ATOM      5  HN  UNL     1      65.371   9.432   5.997  1.00  0.00     0.167 HD
HETATM    6  C   UNL     1      67.286   6.735   6.371  1.00  0.00     0.019 A 
HETATM    7  C   UNL     1      66.298   5.751   6.365  1.00  0.00     0.035 A 
HETATM    8  C   UNL     1      64.948   6.106   6.284  1.00  0.00     0.077 A 
BRANCH   8   9
HETATM    9  N   UNL     1      63.986   5.094   6.126  1.00  0.00    -0.396 N 
HETATM   10  H   UNL     1      64.210   4.162   6.352  1.00  0.00     0.156 HD
HETATM   11  H   UNL     1      63.088   5.315   5.789  1.00  0.00     0.156 HD
ENDBRANCH   8   9
ENDBRANCH   1   2
BRANCH   1  12
HETATM   12  C   UNL     1      63.019   8.835   5.109  1.00  0.00     0.084 A 
HETATM   13  C   UNL     1      62.818   8.446   3.789  1.00  0.00    -0.017 A 
HETATM   14  C   UNL     1      62.393   9.369   2.820  1.00  0.00    -0.043 A 
HETATM   15  C   UNL     1      63.000   7.083   3.209  1.00  0.00     0.042 C 
HETATM   16  C   UNL     1      62.157  10.702   3.141  1.00  0.00    -0.055 A 
HETATM   17  C   UNL     1      62.213   8.714   1.486  1.00  0.00     0.040 C 
HETATM   18  C   UNL     1      62.388  11.103   4.462  1.00  0.00     0.010 A 
HETATM   19  C   UNL     1      61.661  11.679   2.116  1.00  0.00     0.049 C 
HETATM   20  C   UNL     1      62.790  10.177   5.438  1.00  0.00     0.038 A 
HETATM   21  C   UNL     1      62.718   7.284   1.712  1.00  0.00     0.009 C 
ENDBRANCH   1  12
TORSDOF 3
ENDMDL
MODEL 3
REMARK VINA RESULT:      -6.4      1.124      1.901
REMARK  3 active torsions:
REMARK  status: ('A' for Active; 'I' for Inactive)
REMARK    1  A    between atoms: C_1  and  O_4 
REMARK    2  A    between atoms: C_3  and  O_4 
REMARK    3  A    between atoms: C_9  and  N_12 
ROOT
HETATM    1  O   UNL     1      64.208   8.037   5.902  1.00  0.00    -0.291 OA
ENDROOT
BRANCH   1   2
HETATM    2  C   UNL     1      65.475   7.456   5.923  1.00  0.00     0.174 A 
HETATM    3  N   UNL     1      66.511   8.160   5.402  1.00  0.00    -0.345 N 
HETATM    4  C   UNL     1      67.724   7.582   5.449  1.00  0.00     0.090 A 
ATOM      5  HN  UNL     1      66.376   9.085   4.995  1.00  0.00     0.167 HD
HETATM    6  C   UNL     1      67.958   6.322   5.966  1.00  0.00     0.019 A 
HETATM    7  C   UNL     1      66.872   5.601   6.463  1.00  0.00     0.035 A 
HETATM    8  C   UNL     1      65.595   6.170   6.483  1.00  0.00     0.077 A 
BRANCH   8   9
HETATM    9  N   UNL     1      64.498   5.369   6.844  1.00  0.00    -0.396 N 
HETATM   10  H   UNL     1      63.655   5.790   7.129  1.00  0.00     0.156 HD
HETATM   11  H   UNL     1      64.572   4.389   6.813  1.00  0.00     0.156 HD
ENDBRANCH   8   9
ENDBRANCH   1   2
BRANCH   1  12
HETATM   12  C   UNL     1      63.577   8.161   4.682  1.00  0.00     0.084 A 
HETATM   13  C   UNL     1      62.994   9.385   4.369  1.00  0.00    -0.017 A 
HETATM   14  C   UNL     1      62.428   9.612   3.106  1.00  0.00    -0.043 A 
HETATM   15  C   UNL     1      62.877  10.584   5.250  1.00  0.00     0.042 C 
HETATM   16  C   UNL     1      62.428   8.630   2.121  1.00  0.00    -0.055 A 
HETATM   17  C   UNL     1      61.895  11.007   2.991  1.00  0.00     0.040 C 
HETATM   18  C   UNL     1      62.987   7.387   2.444  1.00  0.00     0.010 A 
HETATM   19  C   UNL     1      61.862   8.886   0.756  1.00  0.00     0.049 C 
HETATM   20  C   UNL     1      63.575   7.164   3.699  1.00  0.00     0.038 A 
HETATM   21  C   UNL     1      62.074  11.582   4.400  1.00  0.00     0.009 C 
ENDBRANCH   1  12
TORSDOF 3
ENDMDL
MODEL 4
REMARK VINA RESULT:      -5.8      2.690      5.945
REMARK  3 active torsions:
REMARK  status: ('A' for Active; 'I' for Inactive)
REMARK    1  A    between atoms: C_1  and  O_4 
REMARK    2  A    between atoms: C_3  and  O_4 
REMARK    3  A    between atoms: C_9  and  N_12 
ROOT
HETATM    1  O   UNL     1      62.659   8.660   5.333  1.00  0.00    -0.291 OA
ENDROOT
BRANCH   1   2
HETATM    2  C   UNL     1      62.357   9.259   4.111  1.00  0.00     0.174 A 
HETATM    3  N   UNL     1      62.222   8.461   3.023  1.00  0.00    -0.345 N 
HETATM    4  C   UNL     1      61.916   9.063   1.861  1.00  0.00     0.090 A 
ATOM      5  HN  UNL     1      62.346   7.451   3.083  1.00  0.00     0.167 HD
HETATM    6  C   UNL     1      61.761  10.429   1.717  1.00  0.00     0.019 A 
HETATM    7  C   UNL     1      61.941  11.235   2.842  1.00  0.00     0.035 A 
HETATM    8  C   UNL     1      62.214  10.660   4.087  1.00  0.00     0.077 A 
BRANCH   8   9
HETATM    9  N   UNL     1      62.542  11.497   5.167  1.00  0.00    -0.396 N 
HETATM   10  H   UNL     1      62.417  12.471   5.090  1.00  0.00     0.156 HD
HETATM   11  H   UNL     1      62.895  11.111   6.000  1.00  0.00     0.156 HD
ENDBRANCH   8   9
ENDBRANCH   1   2
BRANCH   1  12
HETATM   12  C   UNL     1      63.863   7.998   5.444  1.00  0.00     0.084 A 
HETATM   13  C   UNL     1      63.838   6.646   5.771  1.00  0.00    -0.017 A 
HETATM   14  C   UNL     1      65.018   5.888   5.799  1.00  0.00    -0.043 A 
HETATM   15  C   UNL     1      62.645   5.822   6.122  1.00  0.00     0.042 C 
HETATM   16  C   UNL     1      66.253   6.454   5.501  1.00  0.00    -0.055 A 
HETATM   17  C   UNL     1      64.738   4.457   6.141  1.00  0.00     0.040 C 
HETATM   18  C   UNL     1      66.286   7.821   5.201  1.00  0.00     0.010 A 
HETATM   19  C   UNL     1      67.509   5.634   5.487  1.00  0.00     0.049 C 
HETATM   20  C   UNL     1      65.104   8.577   5.151  1.00  0.00     0.038 A 
HETATM   21  C   UNL     1      63.240   4.447   6.465  1.00  0.00     0.009 C 
ENDBRANCH   1  12
TORSDOF 3
ENDMDL
MODEL 5
REMARK VINA RESULT:      -5.8      2.202      2.659
REMARK  3 active torsions:
REMARK  status: ('A' for Active; 'I' for Inactive)
REMARK    1  A    between atoms: C_1  and  O_4 
REMARK    2  A    between atoms: C_3  and  O_4 
REMARK    3  A    between atoms: C_9  and  N_12 
ROOT
HETATM    1  O   UNL     1      64.176   7.324   7.000  1.00  0.00    -0.291 OA
ENDROOT
BRANCH   1   2
HETATM    2  C   UNL     1      65.286   6.480   6.967  1.00  0.00     0.174 A 
HETATM    3  N   UNL     1      65.072   5.141   6.978  1.00  0.00    -0.345 N 
HETATM    4  C   UNL     1      66.158   4.350   6.930  1.00  0.00     0.090 A 
ATOM      5  HN  UNL     1      64.130   4.751   7.020  1.00  0.00     0.167 HD
HETATM    6  C   UNL     1      67.455   4.825   6.898  1.00  0.00     0.019 A 
HETATM    7  C   UNL     1      67.654   6.205   6.925  1.00  0.00     0.035 A 
HETATM    8  C   UNL     1      66.560   7.076   6.927  1.00  0.00     0.077 A 
BRANCH   8   9
HETATM    9  N   UNL     1      66.785   8.452   7.109  1.00  0.00    -0.396 N 
HETATM   10  H   UNL     1      67.690   8.822   6.991  1.00  0.00     0.156 HD
HETATM   11  H   UNL     1      66.039   9.045   7.353  1.00  0.00     0.156 HD
ENDBRANCH   8   9
ENDBRANCH   1   2
BRANCH   1  12
HETATM   12  C   UNL     1      63.526   7.579   5.812  1.00  0.00     0.084 A 
HETATM   13  C   UNL     1      62.267   7.019   5.622  1.00  0.00    -0.017 A 
HETATM   14  C   UNL     1      61.506   7.322   4.483  1.00  0.00    -0.043 A 
HETATM   15  C   UNL     1      61.552   6.071   6.526  1.00  0.00     0.042 C 
HETATM   16  C   UNL     1      61.977   8.190   3.504  1.00  0.00    -0.055 A 
HETATM   17  C   UNL     1      60.177   6.632   4.516  1.00  0.00     0.040 C 
HETATM   18  C   UNL     1      63.256   8.732   3.677  1.00  0.00     0.010 A 
HETATM   19  C   UNL     1      61.147   8.549   2.308  1.00  0.00     0.049 C 
HETATM   20  C   UNL     1      64.010   8.448   4.827  1.00  0.00     0.038 A 
HETATM   21  C   UNL     1      60.262   5.741   5.760  1.00  0.00     0.009 C 
ENDBRANCH   1  12
TORSDOF 3
ENDMDL
MODEL 6
REMARK VINA RESULT:      -5.4      1.506      2.914
REMARK  3 active torsions:
REMARK  status: ('A' for Active; 'I' for Inactive)
REMARK    1  A    between atoms: C_1  and  O_4 
REMARK    2  A    between atoms: C_3  and  O_4 
REMARK    3  A    between atoms: C_9  and  N_12 
ROOT
HETATM    1  O   UNL     1      66.339   7.189   5.023  1.00  0.00    -0.291 OA
ENDROOT
BRANCH   1   2
HETATM    2  C   UNL     1      66.336   6.576   6.276  1.00  0.00     0.174 A 
HETATM    3  N   UNL     1      65.876   5.304   6.366  1.00  0.00    -0.345 N 
HETATM    4  C   UNL     1      65.898   4.733   7.582  1.00  0.00     0.090 A 
ATOM      5  HN  UNL     1      65.529   4.803   5.548  1.00  0.00     0.167 HD
HETATM    6  C   UNL     1      66.333   5.374   8.727  1.00  0.00     0.019 A 
HETATM    7  C   UNL     1      66.768   6.695   8.618  1.00  0.00     0.035 A 
HETATM    8  C   UNL     1      66.811   7.325   7.370  1.00  0.00     0.077 A 
BRANCH   8   9
HETATM    9  N   UNL     1      67.105   8.698   7.309  1.00  0.00    -0.396 N 
HETATM   10  H   UNL     1      66.484   9.352   7.704  1.00  0.00     0.156 HD
HETATM   11  H   UNL     1      67.931   9.006   6.873  1.00  0.00     0.156 HD
ENDBRANCH   8   9
ENDBRANCH   1   2
BRANCH   1  12
HETATM   12  C   UNL     1      65.138   7.651   4.531  1.00  0.00     0.084 A 
HETATM   13  C   UNL     1      64.518   6.917   3.525  1.00  0.00    -0.017 A 
HETATM   14  C   UNL     1      63.246   7.272   3.051  1.00  0.00    -0.043 A 
HETATM   15  C   UNL     1      65.050   5.712   2.824  1.00  0.00     0.042 C 
HETATM   16  C   UNL     1      62.557   8.366   3.566  1.00  0.00    -0.055 A 
HETATM   17  C   UNL     1      62.770   6.320   1.999  1.00  0.00     0.040 C 
HETATM   18  C   UNL     1      63.191   9.124   4.557  1.00  0.00     0.010 A 
HETATM   19  C   UNL     1      61.179   8.721   3.092  1.00  0.00     0.049 C 
HETATM   20  C   UNL     1      64.454   8.758   5.049  1.00  0.00     0.038 A 
HETATM   21  C   UNL     1      63.975   5.399   1.771  1.00  0.00     0.009 C 
ENDBRANCH   1  12
TORSDOF 3
ENDMDL
MODEL 7
REMARK VINA RESULT:      -5.1      5.164      7.045
REMARK  3 active torsions:
REMARK  status: ('A' for Active; 'I' for Inactive)
REMARK    1  A    between atoms: C_1  and  O_4 
REMARK    2  A    between atoms: C_3  and  O_4 
REMARK    3  A    between atoms: C_9  and  N_12 
ROOT
HETATM    1  O   UNL     1      60.675   6.704   3.546  1.00  0.00    -0.291 OA
ENDROOT
BRANCH   1   2
HETATM    2  C   UNL     1      61.117   7.932   3.053  1.00  0.00     0.174 A 
HETATM    3  N   UNL     1      61.444   8.900   3.945  1.00  0.00    -0.345 N 
HETATM    4  C   UNL     1      61.879  10.068   3.443  1.00  0.00     0.090 A 
ATOM      5  HN  UNL     1      61.363   8.748   4.950  1.00  0.00     0.167 HD
HETATM    6  C   UNL     1      61.984  10.334   2.091  1.00  0.00     0.019 A 
HETATM    7  C   UNL     1      61.607   9.337   1.190  1.00  0.00     0.035 A 
HETATM    8  C   UNL     1      61.191   8.087   1.655  1.00  0.00     0.077 A 
BRANCH   8   9
HETATM    9  N   UNL     1      60.673   7.156   0.737  1.00  0.00    -0.396 N 
HETATM   10  H   UNL     1      60.437   7.444  -0.174  1.00  0.00     0.156 HD
HETATM   11  H   UNL     1      60.545   6.218   1.005  1.00  0.00     0.156 HD
ENDBRANCH   8   9
ENDBRANCH   1   2
BRANCH   1  12
HETATM   12  C   UNL     1      59.487   6.681   4.244  1.00  0.00     0.084 A 
HETATM   13  C   UNL     1      59.504   6.190   5.546  1.00  0.00    -0.017 A 
HETATM   14  C   UNL     1      58.355   6.234   6.349  1.00  0.00    -0.043 A 
HETATM   15  C   UNL     1      60.658   5.578   6.268  1.00  0.00     0.042 C 
HETATM   16  C   UNL     1      57.159   6.768   5.879  1.00  0.00    -0.055 A 
HETATM   17  C   UNL     1      58.623   5.683   7.715  1.00  0.00     0.040 C 
HETATM   18  C   UNL     1      57.131   7.235   4.560  1.00  0.00     0.010 A 
HETATM   19  C   UNL     1      55.942   6.856   6.751  1.00  0.00     0.049 C 
HETATM   20  C   UNL     1      58.286   7.214   3.762  1.00  0.00     0.038 A 
HETATM   21  C   UNL     1      60.058   5.154   7.618  1.00  0.00     0.009 C 
ENDBRANCH   1  12
TORSDOF 3
ENDMDL
MODEL 8
REMARK VINA RESULT:      -4.9      5.151      6.995
REMARK  3 active torsions:
REMARK  status: ('A' for Active; 'I' for Inactive)
REMARK    1  A    between atoms: C_1  and  O_4 
REMARK    2  A    between atoms: C_3  and  O_4 
REMARK    3  A    between atoms: C_9  and  N_12 
ROOT
HETATM    1  O   UNL     1      60.610   6.420   3.798  1.00  0.00    -0.291 OA
ENDROOT
BRANCH   1   2
HETATM    2  C   UNL     1      61.029   7.537   3.076  1.00  0.00     0.174 A 
HETATM    3  N   UNL     1      60.624   7.655   1.787  1.00  0.00    -0.345 N 
HETATM    4  C   UNL     1      61.031   8.748   1.120  1.00  0.00     0.090 A 
ATOM      5  HN  UNL     1      60.038   6.947   1.345  1.00  0.00     0.167 HD
HETATM    6  C   UNL     1      61.845   9.724   1.662  1.00  0.00     0.019 A 
HETATM    7  C   UNL     1      62.280   9.564   2.978  1.00  0.00     0.035 A 
HETATM    8  C   UNL     1      61.851   8.470   3.736  1.00  0.00     0.077 A 
BRANCH   8   9
HETATM    9  N   UNL     1      62.422   8.252   5.001  1.00  0.00    -0.396 N 
HETATM   10  H   UNL     1      63.283   7.781   5.077  1.00  0.00     0.156 HD
HETATM   11  H   UNL     1      61.963   8.570   5.811  1.00  0.00     0.156 HD
ENDBRANCH   8   9
ENDBRANCH   1   2
BRANCH   1  12
HETATM   12  C   UNL     1      59.425   6.512   4.497  1.00  0.00     0.084 A 
HETATM   13  C   UNL     1      59.398   6.034   5.803  1.00  0.00    -0.017 A 
HETATM   14  C   UNL     1      58.258   6.191   6.606  1.00  0.00    -0.043 A 
HETATM   15  C   UNL     1      60.490   5.325   6.531  1.00  0.00     0.042 C 
HETATM   16  C   UNL     1      57.116   6.829   6.130  1.00  0.00    -0.055 A 
HETATM   17  C   UNL     1      58.475   5.631   7.977  1.00  0.00     0.040 C 
HETATM   18  C   UNL     1      57.130   7.284   4.807  1.00  0.00     0.010 A 
HETATM   19  C   UNL     1      55.913   7.036   7.001  1.00  0.00     0.049 C 
HETATM   20  C   UNL     1      58.278   7.149   4.009  1.00  0.00     0.038 A 
HETATM   21  C   UNL     1      59.856   4.971   7.885  1.00  0.00     0.009 C 
ENDBRANCH   1  12
TORSDOF 3
ENDMDL
MODEL 9
REMARK VINA RESULT:      -4.8      4.719      6.348
REMARK  3 active torsions:
REMARK  status: ('A' for Active; 'I' for Inactive)
REMARK    1  A    between atoms: C_1  and  O_4 
REMARK    2  A    between atoms: C_3  and  O_4 
REMARK    3  A    between atoms: C_9  and  N_12 
ROOT
HETATM    1  O   UNL     1      59.721   5.740   4.878  1.00  0.00    -0.291 OA
ENDROOT
BRANCH   1   2
HETATM    2  C   UNL     1      58.763   6.147   5.806  1.00  0.00     0.174 A 
HETATM    3  N   UNL     1      57.699   6.857   5.357  1.00  0.00    -0.345 N 
HETATM    4  C   UNL     1      56.784   7.225   6.270  1.00  0.00     0.090 A 
ATOM      5  HN  UNL     1      57.598   7.101   4.372  1.00  0.00     0.167 HD
HETATM    6  C   UNL     1      56.884   6.943   7.619  1.00  0.00     0.019 A 
HETATM    7  C   UNL     1      58.006   6.242   8.065  1.00  0.00     0.035 A 
HETATM    8  C   UNL     1      58.967   5.794   7.153  1.00  0.00     0.077 A 
BRANCH   8   9
HETATM    9  N   UNL     1      60.158   5.229   7.642  1.00  0.00    -0.396 N 
HETATM   10  H   UNL     1      61.027   5.607   7.376  1.00  0.00     0.156 HD
HETATM   11  H   UNL     1      60.123   4.456   8.250  1.00  0.00     0.156 HD
ENDBRANCH   8   9
ENDBRANCH   1   2
BRANCH   1  12
HETATM   12  C   UNL     1      60.197   6.680   3.990  1.00  0.00     0.084 A 
HETATM   13  C   UNL     1      61.385   7.333   4.304  1.00  0.00    -0.017 A 
HETATM   14  C   UNL     1      61.981   8.224   3.398  1.00  0.00    -0.043 A 
HETATM   15  C   UNL     1      62.180   7.212   5.561  1.00  0.00     0.042 C 
HETATM   16  C   UNL     1      61.411   8.487   2.156  1.00  0.00    -0.055 A 
HETATM   17  C   UNL     1      63.263   8.774   3.939  1.00  0.00     0.040 C 
HETATM   18  C   UNL     1      60.200   7.855   1.850  1.00  0.00     0.010 A 
HETATM   19  C   UNL     1      62.069   9.405   1.170  1.00  0.00     0.049 C 
HETATM   20  C   UNL     1      59.614   6.945   2.745  1.00  0.00     0.038 A 
HETATM   21  C   UNL     1      63.323   8.221   5.367  1.00  0.00     0.009 C 
ENDBRANCH   1  12
TORSDOF 3
ENDMDL
