MODEL 1
REMARK VINA RESULT:      -5.1      0.000      0.000
REMARK  1 active torsions:
REMARK  status: ('A' for Active; 'I' for Inactive)
REMARK    1  A    between atoms: C_1  and  C_4 
ROOT
HETATM    1  C   UNL     1      62.692   9.095   4.146  1.00  0.00     0.012 A 
HETATM    2  C   UNL     1      62.070  11.407   3.853  1.00  0.00     0.155 A 
HETATM    3  C   UNL     1      62.491  10.371   4.684  1.00  0.00     0.060 A 
HETATM    4  C   UNL     1      61.839  11.186   2.500  1.00  0.00     0.154 A 
HETATM    5  C   UNL     1      62.457   8.876   2.777  1.00  0.00     0.018 A 
HETATM    6  C   UNL     1      62.028   9.921   1.955  1.00  0.00     0.046 A 
HETATM    7  F   UNL     1      61.888  12.627   4.376  1.00  0.00    -0.203 F 
HETATM    8  F   UNL     1      61.436  12.190   1.712  1.00  0.00    -0.203 F 
ENDROOT
BRANCH   1   9
HETATM    9  C   UNL     1      63.155   7.948   4.983  1.00  0.00     0.155 C 
HETATM   10  O   UNL     1      63.158   8.048   6.208  1.00  0.00    -0.293 OA
HETATM   11  C   UNL     1      63.608   6.684   4.299  1.00  0.00     0.096 C 
ENDBRANCH   1   9
TORSDOF 1
ENDMDL
MODEL 2
REMARK VINA RESULT:      -5.1      1.037      2.093
REMARK  1 active torsions:
REMARK  status: ('A' for Active; 'I' for Inactive)
REMARK    1  A    between atoms: C_1  and  C_4 
ROOT
HETATM    1  C   UNL     1      62.871   9.144   4.519  1.00  0.00     0.012 A 
HETATM    2  C   UNL     1      62.141   9.771   2.307  1.00  0.00     0.155 A 
HETATM    3  C   UNL     1      62.643   8.808   3.179  1.00  0.00     0.060 A 
HETATM    4  C   UNL     1      61.872  11.061   2.747  1.00  0.00     0.154 A 
HETATM    5  C   UNL     1      62.597  10.451   4.960  1.00  0.00     0.018 A 
HETATM    6  C   UNL     1      62.100  11.410   4.073  1.00  0.00     0.046 A 
HETATM    7  F   UNL     1      61.918   9.437   1.029  1.00  0.00    -0.203 F 
HETATM    8  F   UNL     1      61.387  11.977   1.899  1.00  0.00    -0.203 F 
ENDROOT
BRANCH   1   9
HETATM    9  C   UNL     1      63.396   8.153   5.505  1.00  0.00     0.155 C 
HETATM   10  O   UNL     1      62.842   8.023   6.594  1.00  0.00    -0.293 OA
HETATM   11  C   UNL     1      64.601   7.327   5.134  1.00  0.00     0.096 C 
ENDBRANCH   1   9
TORSDOF 1
ENDMDL
MODEL 3
REMARK VINA RESULT:      -5.0      1.605      2.802
REMARK  1 active torsions:
REMARK  status: ('A' for Active; 'I' for Inactive)
REMARK    1  A    between atoms: C_1  and  C_4 
ROOT
HETATM    1  C   UNL     1      62.293   8.996   2.402  1.00  0.00     0.012 A 
HETATM    2  C   UNL     1      61.838  11.365   2.403  1.00  0.00     0.155 A 
HETATM    3  C   UNL     1      61.973  10.167   1.705  1.00  0.00     0.060 A 
HETATM    4  C   UNL     1      62.024  11.413   3.780  1.00  0.00     0.154 A 
HETATM    5  C   UNL     1      62.480   9.049   3.795  1.00  0.00     0.018 A 
HETATM    6  C   UNL     1      62.348  10.258   4.483  1.00  0.00     0.046 A 
HETATM    7  F   UNL     1      61.524  12.479   1.729  1.00  0.00    -0.203 F 
HETATM    8  F   UNL     1      61.889  12.570   4.440  1.00  0.00    -0.203 F 
ENDROOT
BRANCH   1   9
HETATM    9  C   UNL     1      62.438   7.680   1.711  1.00  0.00     0.155 C 
HETATM   10  O   UNL     1      62.654   6.666   2.370  1.00  0.00    -0.293 OA
HETATM   11  C   UNL     1      62.313   7.629   0.210  1.00  0.00     0.096 C 
ENDBRANCH   1   9
TORSDOF 1
ENDMDL
MODEL 4
REMARK VINA RESULT:      -4.7      1.953      2.758
REMARK  1 active torsions:
REMARK  status: ('A' for Active; 'I' for Inactive)
REMARK    1  A    between atoms: C_1  and  C_4 
ROOT
HETATM    1  C   UNL     1      62.391   8.805   2.324  1.00  0.00     0.012 A 
HETATM    2  C   UNL     1      62.604  10.098   4.349  1.00  0.00     0.155 A 
HETATM    3  C   UNL     1      62.752   8.889   3.673  1.00  0.00     0.060 A 
HETATM    4  C   UNL     1      62.096  11.219   3.702  1.00  0.00     0.154 A 
HETATM    5  C   UNL     1      61.877   9.941   1.673  1.00  0.00     0.018 A 
HETATM    6  C   UNL     1      61.727  11.146   2.363  1.00  0.00     0.046 A 
HETATM    7  F   UNL     1      62.960  10.171   5.638  1.00  0.00    -0.203 F 
HETATM    8  F   UNL     1      61.960  12.376   4.361  1.00  0.00    -0.203 F 
ENDROOT
BRANCH   1   9
HETATM    9  C   UNL     1      62.538   7.541   1.543  1.00  0.00     0.155 C 
HETATM   10  O   UNL     1      63.235   6.629   1.984  1.00  0.00    -0.293 OA
HETATM   11  C   UNL     1      61.821   7.412   0.224  1.00  0.00     0.096 C 
ENDBRANCH   1   9
TORSDOF 1
ENDMDL
MODEL 5
REMARK VINA RESULT:      -4.6      3.132      4.231
REMARK  1 active torsions:
REMARK  status: ('A' for Active; 'I' for Inactive)
REMARK    1  A    between atoms: C_1  and  C_4 
ROOT
HETATM    1  C   UNL     1      62.577   9.709   3.589  1.00  0.00     0.012 A 
HETATM    2  C   UNL     1      63.671   8.019   4.918  1.00  0.00     0.155 A 
HETATM    3  C   UNL     1      63.174   9.314   4.792  1.00  0.00     0.060 A 
HETATM    4  C   UNL     1      63.587   7.118   3.862  1.00  0.00     0.154 A 
HETATM    5  C   UNL     1      62.495   8.794   2.524  1.00  0.00     0.018 A 
HETATM    6  C   UNL     1      63.003   7.500   2.661  1.00  0.00     0.046 A 
HETATM    7  F   UNL     1      64.233   7.647   6.076  1.00  0.00    -0.203 F 
HETATM    8  F   UNL     1      64.066   5.875   3.997  1.00  0.00    -0.203 F 
ENDROOT
BRANCH   1   9
HETATM    9  C   UNL     1      62.015  11.080   3.398  1.00  0.00     0.155 C 
HETATM   10  O   UNL     1      61.787  11.787   4.376  1.00  0.00    -0.293 OA
HETATM   11  C   UNL     1      61.742  11.565   1.998  1.00  0.00     0.096 C 
ENDBRANCH   1   9
TORSDOF 1
ENDMDL
MODEL 6
REMARK VINA RESULT:      -4.6      1.637      1.828
REMARK  1 active torsions:
REMARK  status: ('A' for Active; 'I' for Inactive)
REMARK    1  A    between atoms: C_1  and  C_4 
ROOT
HETATM    1  C   UNL     1      63.674   8.678   4.451  1.00  0.00     0.012 A 
HETATM    2  C   UNL     1      62.155  10.205   3.365  1.00  0.00     0.155 A 
HETATM    3  C   UNL     1      62.988   9.898   4.439  1.00  0.00     0.060 A 
HETATM    4  C   UNL     1      61.991   9.312   2.313  1.00  0.00     0.154 A 
HETATM    5  C   UNL     1      63.505   7.778   3.384  1.00  0.00     0.018 A 
HETATM    6  C   UNL     1      62.661   8.095   2.317  1.00  0.00     0.046 A 
HETATM    7  F   UNL     1      61.509  11.379   3.358  1.00  0.00    -0.203 F 
HETATM    8  F   UNL     1      61.189   9.620   1.286  1.00  0.00    -0.203 F 
ENDROOT
BRANCH   1   9
HETATM    9  C   UNL     1      64.591   8.298   5.567  1.00  0.00     0.155 C 
HETATM   10  O   UNL     1      65.492   9.063   5.904  1.00  0.00    -0.293 OA
HETATM   11  C   UNL     1      64.383   6.976   6.261  1.00  0.00     0.096 C 
ENDBRANCH   1   9
TORSDOF 1
ENDMDL
MODEL 7
REMARK VINA RESULT:      -4.4      1.419      2.379
REMARK  1 active torsions:
REMARK  status: ('A' for Active; 'I' for Inactive)
REMARK    1  A    between atoms: C_1  and  C_4 
ROOT
HETATM    1  C   UNL     1      62.946   8.554   3.808  1.00  0.00     0.012 A 
HETATM    2  C   UNL     1      61.994  10.643   3.069  1.00  0.00     0.155 A 
HETATM    3  C   UNL     1      62.327   9.315   2.810  1.00  0.00     0.060 A 
HETATM    4  C   UNL     1      62.275  11.222   4.300  1.00  0.00     0.154 A 
HETATM    5  C   UNL     1      63.229   9.144   5.053  1.00  0.00     0.018 A 
HETATM    6  C   UNL     1      62.896  10.478   5.297  1.00  0.00     0.046 A 
HETATM    7  F   UNL     1      61.393  11.361   2.110  1.00  0.00    -0.203 F 
HETATM    8  F   UNL     1      61.948  12.498   4.537  1.00  0.00    -0.203 F 
ENDROOT
BRANCH   1   9
HETATM    9  C   UNL     1      63.315   7.123   3.596  1.00  0.00     0.155 C 
HETATM   10  O   UNL     1      63.631   6.734   2.473  1.00  0.00    -0.293 OA
HETATM   11  C   UNL     1      63.294   6.183   4.774  1.00  0.00     0.096 C 
ENDBRANCH   1   9
TORSDOF 1
ENDMDL
MODEL 8
REMARK VINA RESULT:      -4.3      2.123      2.889
REMARK  1 active torsions:
REMARK  status: ('A' for Active; 'I' for Inactive)
REMARK    1  A    between atoms: C_1  and  C_4 
ROOT
HETATM    1  C   UNL     1      63.782   8.564   4.653  1.00  0.00     0.012 A 
HETATM    2  C   UNL     1      62.785   8.241   2.480  1.00  0.00     0.155 A 
HETATM    3  C   UNL     1      63.658   7.813   3.478  1.00  0.00     0.060 A 
HETATM    4  C   UNL     1      62.044   9.407   2.633  1.00  0.00     0.154 A 
HETATM    5  C   UNL     1      63.030   9.742   4.803  1.00  0.00     0.018 A 
HETATM    6  C   UNL     1      62.163  10.165   3.792  1.00  0.00     0.046 A 
HETATM    7  F   UNL     1      62.667   7.511   1.363  1.00  0.00    -0.203 F 
HETATM    8  F   UNL     1      61.207   9.806   1.667  1.00  0.00    -0.203 F 
ENDROOT
BRANCH   1   9
HETATM    9  C   UNL     1      64.691   8.150   5.763  1.00  0.00     0.155 C 
HETATM   10  O   UNL     1      65.585   8.906   6.135  1.00  0.00    -0.293 OA
HETATM   11  C   UNL     1      64.484   6.803   6.408  1.00  0.00     0.096 C 
ENDBRANCH   1   9
TORSDOF 1
ENDMDL
MODEL 9
REMARK VINA RESULT:      -3.9      2.151      2.629
REMARK  1 active torsions:
REMARK  status: ('A' for Active; 'I' for Inactive)
REMARK    1  A    between atoms: C_1  and  C_4 
ROOT
HETATM    1  C   UNL     1      64.478   7.809   4.306  1.00  0.00     0.012 A 
HETATM    2  C   UNL     1      63.250   9.776   4.971  1.00  0.00     0.155 A 
HETATM    3  C   UNL     1      64.326   8.911   5.156  1.00  0.00     0.060 A 
HETATM    4  C   UNL     1      62.323   9.555   3.959  1.00  0.00     0.154 A 
HETATM    5  C   UNL     1      63.538   7.590   3.283  1.00  0.00     0.018 A 
HETATM    6  C   UNL     1      62.459   8.461   3.112  1.00  0.00     0.046 A 
HETATM    7  F   UNL     1      63.118  10.832   5.784  1.00  0.00    -0.203 F 
HETATM    8  F   UNL     1      61.295  10.395   3.790  1.00  0.00    -0.203 F 
ENDROOT
BRANCH   1   9
HETATM    9  C   UNL     1      65.617   6.854   4.446  1.00  0.00     0.155 C 
HETATM   10  O   UNL     1      65.418   5.646   4.334  1.00  0.00    -0.293 OA
HETATM   11  C   UNL     1      66.995   7.400   4.721  1.00  0.00     0.096 C 
ENDBRANCH   1   9
TORSDOF 1
ENDMDL
