MODEL 1
REMARK VINA RESULT:      -5.0      0.000      0.000
REMARK  2 active torsions:
REMARK  status: ('A' for Active; 'I' for Inactive)
REMARK    1  A    between atoms: C_1  and  C_3 
REMARK    2  A    between atoms: C_2  and  N_8 
ROOT
HETATM    1  C   UNL     1      62.440  10.026   3.598  1.00  0.00     0.067 A 
HETATM    2  C   UNL     1      61.969  10.425   2.327  1.00  0.00     0.044 A 
HETATM    3  C   UNL     1      62.854   8.696   3.807  1.00  0.00     0.022 A 
HETATM    4  C   UNL     1      61.994   9.492   1.279  1.00  0.00     0.053 A 
HETATM    5  C   UNL     1      62.405   8.177   1.500  1.00  0.00     0.036 A 
HETATM    6  C   UNL     1      62.831   7.773   2.760  1.00  0.00     0.025 A 
HETATM    7 CL   UNL     1      62.399   7.049   0.201  1.00  0.00    -0.084 Cl
ENDROOT
BRANCH   1   8
HETATM    8  C   UNL     1      62.450  10.990   4.734  1.00  0.00     0.211 C 
HETATM    9  O   UNL     1      62.060  12.144   4.706  1.00  0.00    -0.644 OA
HETATM   10  O   UNL     1      62.919  10.450   5.876  1.00  0.00    -0.644 OA
ENDBRANCH   1   8
BRANCH   2  11
HETATM   11  N   UNL     1      61.694  11.767   2.007  1.00  0.00    -0.398 N 
HETATM   12  H   UNL     1      60.774  12.044   1.792  1.00  0.00     0.156 HD
HETATM   13  H   UNL     1      62.422  12.430   1.996  1.00  0.00     0.156 HD
ENDBRANCH   2  11
TORSDOF 2
ENDMDL
MODEL 2
REMARK VINA RESULT:      -4.9      1.698      2.499
REMARK  2 active torsions:
REMARK  status: ('A' for Active; 'I' for Inactive)
REMARK    1  A    between atoms: C_1  and  C_3 
REMARK    2  A    between atoms: C_2  and  N_8 
ROOT
HETATM    1  C   UNL     1      62.202   9.856   2.584  1.00  0.00     0.067 A 
HETATM    2  C   UNL     1      62.844   8.953   3.462  1.00  0.00     0.044 A 
HETATM    3  C   UNL     1      61.898   9.457   1.268  1.00  0.00     0.022 A 
HETATM    4  C   UNL     1      63.100   7.648   3.013  1.00  0.00     0.053 A 
HETATM    5  C   UNL     1      62.796   7.267   1.706  1.00  0.00     0.036 A 
HETATM    6  C   UNL     1      62.199   8.167   0.829  1.00  0.00     0.025 A 
HETATM    7 CL   UNL     1      63.146   5.668   1.177  1.00  0.00    -0.084 Cl
ENDROOT
BRANCH   1   8
HETATM    8  C   UNL     1      61.893  11.244   3.026  1.00  0.00     0.211 C 
HETATM    9  O   UNL     1      61.714  11.615   4.173  1.00  0.00    -0.644 OA
HETATM   10  O   UNL     1      61.857  12.123   2.005  1.00  0.00    -0.644 OA
ENDBRANCH   1   8
BRANCH   2  11
HETATM   11  N   UNL     1      63.030   9.227   4.829  1.00  0.00    -0.398 N 
HETATM   12  H   UNL     1      62.713  10.078   5.208  1.00  0.00     0.156 HD
HETATM   13  H   UNL     1      63.480   8.568   5.407  1.00  0.00     0.156 HD
ENDBRANCH   2  11
TORSDOF 2
ENDMDL
MODEL 3
REMARK VINA RESULT:      -4.8      2.581      3.202
REMARK  2 active torsions:
REMARK  status: ('A' for Active; 'I' for Inactive)
REMARK    1  A    between atoms: C_1  and  C_3 
REMARK    2  A    between atoms: C_2  and  N_8 
ROOT
HETATM    1  C   UNL     1      63.967   8.412   4.842  1.00  0.00     0.067 A 
HETATM    2  C   UNL     1      63.158   9.571   4.823  1.00  0.00     0.044 A 
HETATM    3  C   UNL     1      63.912   7.501   3.770  1.00  0.00     0.022 A 
HETATM    4  C   UNL     1      62.366   9.817   3.691  1.00  0.00     0.053 A 
HETATM    5  C   UNL     1      62.319   8.905   2.636  1.00  0.00     0.036 A 
HETATM    6  C   UNL     1      63.085   7.745   2.672  1.00  0.00     0.025 A 
HETATM    7 CL   UNL     1      61.318   9.222   1.274  1.00  0.00    -0.084 Cl
ENDROOT
BRANCH   1   8
HETATM    8  C   UNL     1      64.838   8.122   6.015  1.00  0.00     0.211 C 
HETATM    9  O   UNL     1      64.703   7.207   6.807  1.00  0.00    -0.644 OA
HETATM   10  O   UNL     1      65.873   8.978   6.124  1.00  0.00    -0.644 OA
ENDBRANCH   1   8
BRANCH   2  11
HETATM   11  N   UNL     1      63.281  10.598   5.777  1.00  0.00    -0.398 N 
HETATM   12  H   UNL     1      62.968  11.506   5.565  1.00  0.00     0.156 HD
HETATM   13  H   UNL     1      63.682  10.408   6.656  1.00  0.00     0.156 HD
ENDBRANCH   2  11
TORSDOF 2
ENDMDL
MODEL 4
REMARK VINA RESULT:      -4.8      2.640      3.198
REMARK  2 active torsions:
REMARK  status: ('A' for Active; 'I' for Inactive)
REMARK    1  A    between atoms: C_1  and  C_3 
REMARK    2  A    between atoms: C_2  and  N_8 
ROOT
HETATM    1  C   UNL     1      62.086  10.052   3.950  1.00  0.00     0.067 A 
HETATM    2  C   UNL     1      62.963   9.793   5.027  1.00  0.00     0.044 A 
HETATM    3  C   UNL     1      61.352   8.997   3.374  1.00  0.00     0.022 A 
HETATM    4  C   UNL     1      63.026   8.490   5.543  1.00  0.00     0.053 A 
HETATM    5  C   UNL     1      62.295   7.453   4.962  1.00  0.00     0.036 A 
HETATM    6  C   UNL     1      61.461   7.699   3.878  1.00  0.00     0.025 A 
HETATM    7 CL   UNL     1      62.413   5.860   5.601  1.00  0.00    -0.084 Cl
ENDROOT
BRANCH   1   8
HETATM    8  C   UNL     1      61.973  11.425   3.385  1.00  0.00     0.211 C 
HETATM    9  O   UNL     1      62.010  11.726   2.205  1.00  0.00    -0.644 OA
HETATM   10  O   UNL     1      61.779  12.367   4.329  1.00  0.00    -0.644 OA
ENDBRANCH   1   8
BRANCH   2  11
HETATM   11  N   UNL     1      63.600  10.819   5.750  1.00  0.00    -0.398 N 
HETATM   12  H   UNL     1      64.353  10.606   6.347  1.00  0.00     0.156 HD
HETATM   13  H   UNL     1      63.292  11.749   5.659  1.00  0.00     0.156 HD
ENDBRANCH   2  11
TORSDOF 2
ENDMDL
MODEL 5
REMARK VINA RESULT:      -4.5      3.103      3.747
REMARK  2 active torsions:
REMARK  status: ('A' for Active; 'I' for Inactive)
REMARK    1  A    between atoms: C_1  and  C_3 
REMARK    2  A    between atoms: C_2  and  N_8 
ROOT
HETATM    1  C   UNL     1      62.602   8.537   5.238  1.00  0.00     0.067 A 
HETATM    2  C   UNL     1      62.157   8.113   3.966  1.00  0.00     0.044 A 
HETATM    3  C   UNL     1      62.805   9.908   5.490  1.00  0.00     0.022 A 
HETATM    4  C   UNL     1      61.861   9.087   3.000  1.00  0.00     0.053 A 
HETATM    5  C   UNL     1      62.070  10.442   3.261  1.00  0.00     0.036 A 
HETATM    6  C   UNL     1      62.544  10.857   4.500  1.00  0.00     0.025 A 
HETATM    7 CL   UNL     1      61.722  11.611   2.047  1.00  0.00    -0.084 Cl
ENDROOT
BRANCH   1   8
HETATM    8  C   UNL     1      62.908   7.538   6.300  1.00  0.00     0.211 C 
HETATM    9  O   UNL     1      63.989   7.355   6.829  1.00  0.00    -0.644 OA
HETATM   10  O   UNL     1      61.826   6.831   6.682  1.00  0.00    -0.644 OA
ENDBRANCH   1   8
BRANCH   2  11
HETATM   11  N   UNL     1      61.781   6.784   3.697  1.00  0.00    -0.398 N 
HETATM   12  H   UNL     1      61.403   6.547   2.820  1.00  0.00     0.156 HD
HETATM   13  H   UNL     1      61.893   6.092   4.388  1.00  0.00     0.156 HD
ENDBRANCH   2  11
TORSDOF 2
ENDMDL
MODEL 6
REMARK VINA RESULT:      -4.5      2.101      2.546
REMARK  2 active torsions:
REMARK  status: ('A' for Active; 'I' for Inactive)
REMARK    1  A    between atoms: C_1  and  C_3 
REMARK    2  A    between atoms: C_2  and  N_8 
ROOT
HETATM    1  C   UNL     1      62.284   9.862   3.740  1.00  0.00     0.067 A 
HETATM    2  C   UNL     1      61.545   8.888   3.029  1.00  0.00     0.044 A 
HETATM    3  C   UNL     1      63.256   9.460   4.675  1.00  0.00     0.022 A 
HETATM    4  C   UNL     1      61.856   7.534   3.229  1.00  0.00     0.053 A 
HETATM    5  C   UNL     1      62.820   7.149   4.161  1.00  0.00     0.036 A 
HETATM    6  C   UNL     1      63.520   8.106   4.888  1.00  0.00     0.025 A 
HETATM    7 CL   UNL     1      63.159   5.480   4.402  1.00  0.00    -0.084 Cl
ENDROOT
BRANCH   1   8
HETATM    8  C   UNL     1      62.002  11.311   3.543  1.00  0.00     0.211 C 
HETATM    9  O   UNL     1      61.815  12.136   4.420  1.00  0.00    -0.644 OA
HETATM   10  O   UNL     1      62.002  11.675   2.246  1.00  0.00    -0.644 OA
ENDBRANCH   1   8
BRANCH   2  11
HETATM   11  N   UNL     1      60.679   9.216   1.971  1.00  0.00    -0.398 N 
HETATM   12  H   UNL     1      59.751   8.889   1.975  1.00  0.00     0.156 HD
HETATM   13  H   UNL     1      61.002   9.771   1.224  1.00  0.00     0.156 HD
ENDBRANCH   2  11
TORSDOF 2
ENDMDL
MODEL 7
REMARK VINA RESULT:      -4.3      1.390      1.814
REMARK  2 active torsions:
REMARK  status: ('A' for Active; 'I' for Inactive)
REMARK    1  A    between atoms: C_1  and  C_3 
REMARK    2  A    between atoms: C_2  and  N_8 
ROOT
HETATM    1  C   UNL     1      63.180   8.858   4.033  1.00  0.00     0.067 A 
HETATM    2  C   UNL     1      62.262   9.709   3.378  1.00  0.00     0.044 A 
HETATM    3  C   UNL     1      63.446   7.577   3.510  1.00  0.00     0.022 A 
HETATM    4  C   UNL     1      61.689   9.276   2.172  1.00  0.00     0.053 A 
HETATM    5  C   UNL     1      61.959   8.003   1.666  1.00  0.00     0.036 A 
HETATM    6  C   UNL     1      62.832   7.151   2.332  1.00  0.00     0.025 A 
HETATM    7 CL   UNL     1      61.220   7.491   0.200  1.00  0.00    -0.084 Cl
ENDROOT
BRANCH   1   8
HETATM    8  C   UNL     1      63.828   9.286   5.304  1.00  0.00     0.211 C 
HETATM    9  O   UNL     1      65.016   9.220   5.568  1.00  0.00    -0.644 OA
HETATM   10  O   UNL     1      62.957   9.818   6.184  1.00  0.00    -0.644 OA
ENDBRANCH   1   8
BRANCH   2  11
HETATM   11  N   UNL     1      62.073  11.052   3.751  1.00  0.00    -0.398 N 
HETATM   12  H   UNL     1      62.038  11.755   3.063  1.00  0.00     0.156 HD
HETATM   13  H   UNL     1      61.977  11.290   4.702  1.00  0.00     0.156 HD
ENDBRANCH   2  11
TORSDOF 2
ENDMDL
MODEL 8
REMARK VINA RESULT:      -4.3      2.620      3.190
REMARK  2 active torsions:
REMARK  status: ('A' for Active; 'I' for Inactive)
REMARK    1  A    between atoms: C_1  and  C_3 
REMARK    2  A    between atoms: C_2  and  N_8 
ROOT
HETATM    1  C   UNL     1      62.451   7.680   4.939  1.00  0.00     0.067 A 
HETATM    2  C   UNL     1      62.620   9.056   4.662  1.00  0.00     0.044 A 
HETATM    3  C   UNL     1      62.189   6.780   3.888  1.00  0.00     0.022 A 
HETATM    4  C   UNL     1      62.591   9.479   3.324  1.00  0.00     0.053 A 
HETATM    5  C   UNL     1      62.327   8.577   2.292  1.00  0.00     0.036 A 
HETATM    6  C   UNL     1      62.122   7.230   2.568  1.00  0.00     0.025 A 
HETATM    7 CL   UNL     1      62.271   9.131   0.665  1.00  0.00    -0.084 Cl
ENDROOT
BRANCH   1   8
HETATM    8  C   UNL     1      62.496   7.184   6.343  1.00  0.00     0.211 C 
HETATM    9  O   UNL     1      61.588   6.642   6.947  1.00  0.00    -0.644 OA
HETATM   10  O   UNL     1      63.700   7.358   6.922  1.00  0.00    -0.644 OA
ENDBRANCH   1   8
BRANCH   2  11
HETATM   11  N   UNL     1      63.042   9.979   5.636  1.00  0.00    -0.398 N 
HETATM   12  H   UNL     1      63.501  10.806   5.364  1.00  0.00     0.156 HD
HETATM   13  H   UNL     1      62.880   9.797   6.590  1.00  0.00     0.156 HD
ENDBRANCH   2  11
TORSDOF 2
ENDMDL
MODEL 9
REMARK VINA RESULT:      -4.2      3.087      3.693
REMARK  2 active torsions:
REMARK  status: ('A' for Active; 'I' for Inactive)
REMARK    1  A    between atoms: C_1  and  C_3 
REMARK    2  A    between atoms: C_2  and  N_8 
ROOT
HETATM    1  C   UNL     1      63.051   8.723   3.982  1.00  0.00     0.067 A 
HETATM    2  C   UNL     1      63.951   9.197   4.963  1.00  0.00     0.044 A 
HETATM    3  C   UNL     1      63.362   7.562   3.247  1.00  0.00     0.022 A 
HETATM    4  C   UNL     1      65.109   8.450   5.228  1.00  0.00     0.053 A 
HETATM    5  C   UNL     1      65.407   7.303   4.491  1.00  0.00     0.036 A 
HETATM    6  C   UNL     1      64.541   6.858   3.499  1.00  0.00     0.025 A 
HETATM    7 CL   UNL     1      66.848   6.423   4.821  1.00  0.00    -0.084 Cl
ENDROOT
BRANCH   1   8
HETATM    8  C   UNL     1      61.800   9.473   3.683  1.00  0.00     0.211 C 
HETATM    9  O   UNL     1      61.607  10.661   3.869  1.00  0.00    -0.644 OA
HETATM   10  O   UNL     1      60.846   8.701   3.124  1.00  0.00    -0.644 OA
ENDBRANCH   1   8
BRANCH   2  11
HETATM   11  N   UNL     1      63.631  10.249   5.840  1.00  0.00    -0.398 N 
HETATM   12  H   UNL     1      63.536  10.075   6.804  1.00  0.00     0.156 HD
HETATM   13  H   UNL     1      63.500  11.160   5.489  1.00  0.00     0.156 HD
ENDBRANCH   2  11
TORSDOF 2
ENDMDL
