MODEL 1
REMARK VINA RESULT:      -3.8      0.000      0.000
REMARK  1 active torsions:
REMARK  status: ('A' for Active; 'I' for Inactive)
REMARK    1  A    between atoms: C_1  and  C_3 
ROOT
HETATM    1  C   UNL     1      62.125   9.885   4.023  1.00  0.00     0.026 A 
HETATM    2  N   UNL     1      61.926   7.684   4.389  1.00  0.00    -0.374 N 
HETATM    3  C   UNL     1      61.465   8.732   3.631  1.00  0.00     0.102 A 
HETATM    4  C   UNL     1      63.014   9.494   5.068  1.00  0.00     0.033 A 
HETATM    5  C   UNL     1      62.868   8.141   5.271  1.00  0.00     0.088 A 
HETATM    6  H   UNL     1      61.626   6.750   4.311  1.00  0.00     0.164 HD
ENDROOT
BRANCH   1   7
HETATM    7  C   UNL     1      61.956  11.235   3.482  1.00  0.00     0.157 C 
HETATM    8  O   UNL     1      61.941  12.217   4.225  1.00  0.00    -0.293 OA
HETATM    9  C   UNL     1      61.802  11.408   1.992  1.00  0.00     0.097 C 
ENDBRANCH   1   7
TORSDOF 1
ENDMDL
MODEL 2
REMARK VINA RESULT:      -3.8      1.679      1.909
REMARK  1 active torsions:
REMARK  status: ('A' for Active; 'I' for Inactive)
REMARK    1  A    between atoms: C_1  and  C_3 
ROOT
HETATM    1  C   UNL     1      62.409  10.206   3.680  1.00  0.00     0.026 A 
HETATM    2  N   UNL     1      62.986  10.145   5.844  1.00  0.00    -0.374 N 
HETATM    3  C   UNL     1      62.551  10.963   4.831  1.00  0.00     0.102 A 
HETATM    4  C   UNL     1      62.788   8.877   4.035  1.00  0.00     0.033 A 
HETATM    5  C   UNL     1      63.138   8.871   5.366  1.00  0.00     0.088 A 
HETATM    6  H   UNL     1      63.163  10.431   6.769  1.00  0.00     0.164 HD
ENDROOT
BRANCH   1   7
HETATM    7  C   UNL     1      61.963  10.661   2.363  1.00  0.00     0.157 C 
HETATM    8  O   UNL     1      61.872  11.861   2.105  1.00  0.00    -0.293 OA
HETATM    9  C   UNL     1      61.615   9.631   1.317  1.00  0.00     0.097 C 
ENDBRANCH   1   7
TORSDOF 1
ENDMDL
MODEL 3
REMARK VINA RESULT:      -3.8      1.546      2.666
REMARK  1 active torsions:
REMARK  status: ('A' for Active; 'I' for Inactive)
REMARK    1  A    between atoms: C_1  and  C_3 
ROOT
HETATM    1  C   UNL     1      62.245   9.971   3.044  1.00  0.00     0.026 A 
HETATM    2  N   UNL     1      62.335   8.064   1.872  1.00  0.00    -0.374 N 
HETATM    3  C   UNL     1      62.534   8.618   3.113  1.00  0.00     0.102 A 
HETATM    4  C   UNL     1      61.864  10.225   1.693  1.00  0.00     0.033 A 
HETATM    5  C   UNL     1      61.931   9.038   0.998  1.00  0.00     0.088 A 
HETATM    6  H   UNL     1      62.464   7.115   1.646  1.00  0.00     0.164 HD
ENDROOT
BRANCH   1   7
HETATM    7  C   UNL     1      62.311  10.952   4.129  1.00  0.00     0.157 C 
HETATM    8  O   UNL     1      61.866  12.090   3.982  1.00  0.00    -0.293 OA
HETATM    9  C   UNL     1      62.936  10.545   5.440  1.00  0.00     0.097 C 
ENDBRANCH   1   7
TORSDOF 1
ENDMDL
MODEL 4
REMARK VINA RESULT:      -3.8      2.087      3.418
REMARK  1 active torsions:
REMARK  status: ('A' for Active; 'I' for Inactive)
REMARK    1  A    between atoms: C_1  and  C_3 
ROOT
HETATM    1  C   UNL     1      62.689   9.610   3.960  1.00  0.00     0.026 A 
HETATM    2  N   UNL     1      61.529  10.954   2.594  1.00  0.00    -0.374 N 
HETATM    3  C   UNL     1      62.058  10.838   3.857  1.00  0.00     0.102 A 
HETATM    4  C   UNL     1      62.515   8.970   2.697  1.00  0.00     0.033 A 
HETATM    5  C   UNL     1      61.799   9.817   1.882  1.00  0.00     0.088 A 
HETATM    6  H   UNL     1      61.031  11.733   2.256  1.00  0.00     0.164 HD
ENDROOT
BRANCH   1   7
HETATM    7  C   UNL     1      63.395   9.066   5.121  1.00  0.00     0.157 C 
HETATM    8  O   UNL     1      64.426   9.593   5.540  1.00  0.00    -0.293 OA
HETATM    9  C   UNL     1      62.836   7.844   5.805  1.00  0.00     0.097 C 
ENDBRANCH   1   7
TORSDOF 1
ENDMDL
MODEL 5
REMARK VINA RESULT:      -3.6      2.440      2.899
REMARK  1 active torsions:
REMARK  status: ('A' for Active; 'I' for Inactive)
REMARK    1  A    between atoms: C_1  and  C_3 
ROOT
HETATM    1  C   UNL     1      62.686   9.448   3.698  1.00  0.00     0.026 A 
HETATM    2  N   UNL     1      63.425  10.119   5.704  1.00  0.00    -0.374 N 
HETATM    3  C   UNL     1      63.465   9.096   4.788  1.00  0.00     0.102 A 
HETATM    4  C   UNL     1      62.156  10.739   3.993  1.00  0.00     0.033 A 
HETATM    5  C   UNL     1      62.625  11.123   5.229  1.00  0.00     0.088 A 
HETATM    6  H   UNL     1      63.897  10.127   6.567  1.00  0.00     0.164 HD
ENDROOT
BRANCH   1   7
HETATM    7  C   UNL     1      62.447   8.665   2.485  1.00  0.00     0.157 C 
HETATM    8  O   UNL     1      62.619   7.446   2.473  1.00  0.00    -0.293 OA
HETATM    9  C   UNL     1      61.980   9.377   1.240  1.00  0.00     0.097 C 
ENDBRANCH   1   7
TORSDOF 1
ENDMDL
MODEL 6
REMARK VINA RESULT:      -3.5      2.280      3.424
REMARK  1 active torsions:
REMARK  status: ('A' for Active; 'I' for Inactive)
REMARK    1  A    between atoms: C_1  and  C_3 
ROOT
HETATM    1  C   UNL     1      62.787   9.642   4.591  1.00  0.00     0.026 A 
HETATM    2  N   UNL     1      61.610  10.618   2.953  1.00  0.00    -0.374 N 
HETATM    3  C   UNL     1      62.159   9.432   3.375  1.00  0.00     0.102 A 
HETATM    4  C   UNL     1      62.603  11.024   4.895  1.00  0.00     0.033 A 
HETATM    5  C   UNL     1      61.880  11.596   3.873  1.00  0.00     0.088 A 
HETATM    6  H   UNL     1      61.103  10.745   2.120  1.00  0.00     0.164 HD
ENDROOT
BRANCH   1   7
HETATM    7  C   UNL     1      63.498   8.658   5.408  1.00  0.00     0.157 C 
HETATM    8  O   UNL     1      62.956   8.133   6.381  1.00  0.00    -0.293 OA
HETATM    9  C   UNL     1      64.914   8.292   5.039  1.00  0.00     0.097 C 
ENDBRANCH   1   7
TORSDOF 1
ENDMDL
MODEL 7
REMARK VINA RESULT:      -3.3      1.671      2.077
REMARK  1 active torsions:
REMARK  status: ('A' for Active; 'I' for Inactive)
REMARK    1  A    between atoms: C_1  and  C_3 
ROOT
HETATM    1  C   UNL     1      63.089   9.198   4.126  1.00  0.00     0.026 A 
HETATM    2  N   UNL     1      63.631   7.315   3.040  1.00  0.00    -0.374 N 
HETATM    3  C   UNL     1      62.787   8.398   3.036  1.00  0.00     0.102 A 
HETATM    4  C   UNL     1      64.159   8.546   4.808  1.00  0.00     0.033 A 
HETATM    5  C   UNL     1      64.469   7.395   4.120  1.00  0.00     0.088 A 
HETATM    6  H   UNL     1      63.633   6.593   2.371  1.00  0.00     0.164 HD
ENDROOT
BRANCH   1   7
HETATM    7  C   UNL     1      62.450  10.457   4.511  1.00  0.00     0.157 C 
HETATM    8  O   UNL     1      61.518  10.921   3.855  1.00  0.00    -0.293 OA
HETATM    9  C   UNL     1      62.951  11.182   5.736  1.00  0.00     0.097 C 
ENDBRANCH   1   7
TORSDOF 1
ENDMDL
MODEL 8
REMARK VINA RESULT:      -3.3      2.807      3.707
REMARK  1 active torsions:
REMARK  status: ('A' for Active; 'I' for Inactive)
REMARK    1  A    between atoms: C_1  and  C_3 
ROOT
HETATM    1  C   UNL     1      62.365   9.243   2.662  1.00  0.00     0.026 A 
HETATM    2  N   UNL     1      61.561  11.304   2.314  1.00  0.00    -0.374 N 
HETATM    3  C   UNL     1      61.855  10.107   1.708  1.00  0.00     0.102 A 
HETATM    4  C   UNL     1      62.376   9.971   3.888  1.00  0.00     0.033 A 
HETATM    5  C   UNL     1      61.880  11.232   3.643  1.00  0.00     0.088 A 
HETATM    6  H   UNL     1      61.181  12.092   1.862  1.00  0.00     0.164 HD
ENDROOT
BRANCH   1   7
HETATM    7  C   UNL     1      62.805   7.860   2.467  1.00  0.00     0.157 C 
HETATM    8  O   UNL     1      62.394   7.193   1.518  1.00  0.00    -0.293 OA
HETATM    9  C   UNL     1      63.777   7.261   3.452  1.00  0.00     0.097 C 
ENDBRANCH   1   7
TORSDOF 1
ENDMDL
MODEL 9
REMARK VINA RESULT:      -3.2     11.067     12.077
REMARK  1 active torsions:
REMARK  status: ('A' for Active; 'I' for Inactive)
REMARK    1  A    between atoms: C_1  and  C_3 
ROOT
HETATM    1  C   UNL     1      58.224   2.236  12.310  1.00  0.00     0.026 A 
HETATM    2  N   UNL     1      57.307   1.758  14.297  1.00  0.00    -0.374 N 
HETATM    3  C   UNL     1      57.038   2.199  13.024  1.00  0.00     0.102 A 
HETATM    4  C   UNL     1      59.240   1.801  13.211  1.00  0.00     0.033 A 
HETATM    5  C   UNL     1      58.649   1.516  14.421  1.00  0.00     0.088 A 
HETATM    6  H   UNL     1      56.638   1.635  15.009  1.00  0.00     0.164 HD
ENDROOT
BRANCH   1   7
HETATM    7  C   UNL     1      58.410   2.637  10.914  1.00  0.00     0.157 C 
HETATM    8  O   UNL     1      58.126   3.774  10.539  1.00  0.00    -0.293 OA
HETATM    9  C   UNL     1      58.962   1.630   9.936  1.00  0.00     0.097 C 
ENDBRANCH   1   7
TORSDOF 1
ENDMDL
