MODEL 1
REMARK VINA RESULT:      -5.7      0.000      0.000
REMARK  0 active torsions:
REMARK  status: ('A' for Active; 'I' for Inactive)
ROOT
HETATM    1  C   UNL     1      63.057  10.691   5.582  1.00  0.00     0.297 A 
HETATM    2  C   UNL     1      62.368  10.023   3.385  1.00  0.00     0.049 A 
HETATM    3  N   UNL     1      63.445   9.391   5.321  1.00  0.00    -0.319 N 
HETATM    4  C   UNL     1      62.326  11.168   4.296  1.00  0.00     0.252 A 
HETATM    5  C   UNL     1      63.042   8.997   4.049  1.00  0.00     0.049 A 
HETATM    6  C   UNL     1      61.866   9.880   2.109  1.00  0.00     0.060 A 
HETATM    7  O   UNL     1      63.235  11.336   6.592  1.00  0.00    -0.264 OA
HETATM    8  O   UNL     1      61.824  12.247   4.087  1.00  0.00    -0.281 OA
HETATM    9  C   UNL     1      63.241   7.768   3.455  1.00  0.00     0.033 A 
HETATM   10  C   UNL     1      62.061   8.643   1.506  1.00  0.00     0.117 A 
HETATM   11  C   UNL     1      62.735   7.595   2.160  1.00  0.00     0.044 A 
HETATM   12  F   UNL     1      61.593   8.437   0.268  1.00  0.00    -0.206 F 
HETATM   13  H   UNL     1      63.940   8.819   5.951  1.00  0.00     0.169 HD
ENDROOT
TORSDOF 0
ENDMDL
MODEL 2
REMARK VINA RESULT:      -5.6      1.868      2.508
REMARK  0 active torsions:
REMARK  status: ('A' for Active; 'I' for Inactive)
ROOT
HETATM    1  C   UNL     1      63.209   8.452   5.503  1.00  0.00     0.297 A 
HETATM    2  C   UNL     1      62.493  10.239   4.074  1.00  0.00     0.049 A 
HETATM    3  N   UNL     1      62.978   7.993   4.221  1.00  0.00    -0.319 N 
HETATM    4  C   UNL     1      62.899   9.974   5.455  1.00  0.00     0.252 A 
HETATM    5  C   UNL     1      62.557   9.025   3.390  1.00  0.00     0.049 A 
HETATM    6  C   UNL     1      62.099  11.414   3.470  1.00  0.00     0.060 A 
HETATM    7  O   UNL     1      63.570   7.820   6.470  1.00  0.00    -0.264 OA
HETATM    8  O   UNL     1      62.969  10.773   6.359  1.00  0.00    -0.281 OA
HETATM    9  C   UNL     1      62.222   8.936   2.054  1.00  0.00     0.033 A 
HETATM   10  C   UNL     1      61.759  11.331   2.125  1.00  0.00     0.117 A 
HETATM   11  C   UNL     1      61.813  10.115   1.418  1.00  0.00     0.044 A 
HETATM   12  F   UNL     1      61.363  12.436   1.480  1.00  0.00    -0.206 F 
HETATM   13  H   UNL     1      63.096   7.058   3.934  1.00  0.00     0.169 HD
ENDROOT
TORSDOF 0
ENDMDL
MODEL 3
REMARK VINA RESULT:      -5.6      1.330      2.251
REMARK  0 active torsions:
REMARK  status: ('A' for Active; 'I' for Inactive)
ROOT
HETATM    1  C   UNL     1      62.979  10.882   5.586  1.00  0.00     0.297 A 
HETATM    2  C   UNL     1      62.851   9.265   3.820  1.00  0.00     0.049 A 
HETATM    3  N   UNL     1      62.355  11.417   4.475  1.00  0.00    -0.319 N 
HETATM    4  C   UNL     1      63.331   9.420   5.195  1.00  0.00     0.252 A 
HETATM    5  C   UNL     1      62.284  10.484   3.446  1.00  0.00     0.049 A 
HETATM    6  C   UNL     1      62.907   8.178   2.974  1.00  0.00     0.060 A 
HETATM    7  O   UNL     1      63.213  11.423   6.644  1.00  0.00    -0.264 OA
HETATM    8  O   UNL     1      63.885   8.585   5.871  1.00  0.00    -0.281 OA
HETATM    9  C   UNL     1      61.745  10.668   2.189  1.00  0.00     0.033 A 
HETATM   10  C   UNL     1      62.367   8.358   1.705  1.00  0.00     0.117 A 
HETATM   11  C   UNL     1      61.793   9.581   1.308  1.00  0.00     0.044 A 
HETATM   12  F   UNL     1      62.394   7.342   0.833  1.00  0.00    -0.206 F 
HETATM   13  H   UNL     1      62.008  12.336   4.419  1.00  0.00     0.169 HD
ENDROOT
TORSDOF 0
ENDMDL
MODEL 4
REMARK VINA RESULT:      -5.1      2.394      3.254
REMARK  0 active torsions:
REMARK  status: ('A' for Active; 'I' for Inactive)
ROOT
HETATM    1  C   UNL     1      61.794  11.298   2.281  1.00  0.00     0.297 A 
HETATM    2  C   UNL     1      62.503   9.759   3.977  1.00  0.00     0.049 A 
HETATM    3  N   UNL     1      62.054  10.055   1.737  1.00  0.00    -0.319 N 
HETATM    4  C   UNL     1      62.077  11.149   3.801  1.00  0.00     0.252 A 
HETATM    5  C   UNL     1      62.471   9.161   2.717  1.00  0.00     0.049 A 
HETATM    6  C   UNL     1      62.886   9.081   5.114  1.00  0.00     0.060 A 
HETATM    7  O   UNL     1      61.426  12.302   1.711  1.00  0.00    -0.264 OA
HETATM    8  O   UNL     1      61.978  11.994   4.660  1.00  0.00    -0.281 OA
HETATM    9  C   UNL     1      62.831   7.840   2.542  1.00  0.00     0.033 A 
HETATM   10  C   UNL     1      63.251   7.750   4.944  1.00  0.00     0.117 A 
HETATM   11  C   UNL     1      63.230   7.130   3.681  1.00  0.00     0.044 A 
HETATM   12  F   UNL     1      63.639   7.037   6.009  1.00  0.00    -0.206 F 
HETATM   13  H   UNL     1      61.958   9.832   0.783  1.00  0.00     0.169 HD
ENDROOT
TORSDOF 0
ENDMDL
MODEL 5
REMARK VINA RESULT:      -5.1      2.296      3.088
REMARK  0 active torsions:
REMARK  status: ('A' for Active; 'I' for Inactive)
ROOT
HETATM    1  C   UNL     1      63.699   7.804   5.944  1.00  0.00     0.297 A 
HETATM    2  C   UNL     1      63.028   8.186   3.674  1.00  0.00     0.049 A 
HETATM    3  N   UNL     1      63.154   9.065   5.798  1.00  0.00    -0.319 N 
HETATM    4  C   UNL     1      63.632   7.162   4.530  1.00  0.00     0.252 A 
HETATM    5  C   UNL     1      62.769   9.293   4.482  1.00  0.00     0.049 A 
HETATM    6  C   UNL     1      62.739   8.162   2.326  1.00  0.00     0.060 A 
HETATM    7  O   UNL     1      64.143   7.293   6.948  1.00  0.00    -0.264 OA
HETATM    8  O   UNL     1      64.001   6.060   4.199  1.00  0.00    -0.281 OA
HETATM    9  C   UNL     1      62.204  10.441   3.964  1.00  0.00     0.033 A 
HETATM   10  C   UNL     1      62.171   9.316   1.798  1.00  0.00     0.117 A 
HETATM   11  C   UNL     1      61.905  10.445   2.596  1.00  0.00     0.044 A 
HETATM   12  F   UNL     1      61.871   9.361   0.494  1.00  0.00    -0.206 F 
HETATM   13  H   UNL     1      63.053   9.717   6.529  1.00  0.00     0.169 HD
ENDROOT
TORSDOF 0
ENDMDL
MODEL 6
REMARK VINA RESULT:      -4.9      2.681      3.561
REMARK  0 active torsions:
REMARK  status: ('A' for Active; 'I' for Inactive)
ROOT
HETATM    1  C   UNL     1      62.444  10.357   4.229  1.00  0.00     0.297 A 
HETATM    2  C   UNL     1      64.219   8.865   4.838  1.00  0.00     0.049 A 
HETATM    3  N   UNL     1      62.430   9.227   3.434  1.00  0.00    -0.319 N 
HETATM    4  C   UNL     1      63.637  10.158   5.204  1.00  0.00     0.252 A 
HETATM    5  C   UNL     1      63.462   8.362   3.780  1.00  0.00     0.049 A 
HETATM    6  C   UNL     1      65.302   8.194   5.365  1.00  0.00     0.060 A 
HETATM    7  O   UNL     1      61.697  11.309   4.188  1.00  0.00    -0.264 OA
HETATM    8  O   UNL     1      64.014  10.905   6.075  1.00  0.00    -0.281 OA
HETATM    9  C   UNL     1      63.765   7.149   3.195  1.00  0.00     0.033 A 
HETATM   10  C   UNL     1      65.614   6.972   4.778  1.00  0.00     0.117 A 
HETATM   11  C   UNL     1      64.864   6.449   3.708  1.00  0.00     0.044 A 
HETATM   12  F   UNL     1      66.658   6.273   5.240  1.00  0.00    -0.206 F 
HETATM   13  H   UNL     1      61.777   9.057   2.717  1.00  0.00     0.169 HD
ENDROOT
TORSDOF 0
ENDMDL
MODEL 7
REMARK VINA RESULT:      -4.9      2.709      3.577
REMARK  0 active torsions:
REMARK  status: ('A' for Active; 'I' for Inactive)
ROOT
HETATM    1  C   UNL     1      63.460   6.671   4.169  1.00  0.00     0.297 A 
HETATM    2  C   UNL     1      62.750   8.953   3.975  1.00  0.00     0.049 A 
HETATM    3  N   UNL     1      63.140   6.975   2.860  1.00  0.00    -0.319 N 
HETATM    4  C   UNL     1      63.218   7.982   4.967  1.00  0.00     0.252 A 
HETATM    5  C   UNL     1      62.722   8.296   2.744  1.00  0.00     0.049 A 
HETATM    6  C   UNL     1      62.378  10.272   4.125  1.00  0.00     0.060 A 
HETATM    7  O   UNL     1      63.845   5.614   4.619  1.00  0.00    -0.264 OA
HETATM    8  O   UNL     1      63.373   8.169   6.151  1.00  0.00    -0.281 OA
HETATM    9  C   UNL     1      62.311   8.943   1.596  1.00  0.00     0.033 A 
HETATM   10  C   UNL     1      61.962  10.928   2.972  1.00  0.00     0.117 A 
HETATM   11  C   UNL     1      61.923  10.283   1.722  1.00  0.00     0.044 A 
HETATM   12  F   UNL     1      61.582  12.210   3.050  1.00  0.00    -0.206 F 
HETATM   13  H   UNL     1      63.199   6.341   2.109  1.00  0.00     0.169 HD
ENDROOT
TORSDOF 0
ENDMDL
MODEL 8
REMARK VINA RESULT:      -4.6      3.136      4.112
REMARK  0 active torsions:
REMARK  status: ('A' for Active; 'I' for Inactive)
ROOT
HETATM    1  C   UNL     1      62.485   7.061   1.993  1.00  0.00     0.297 A 
HETATM    2  C   UNL     1      62.171   9.282   2.839  1.00  0.00     0.049 A 
HETATM    3  N   UNL     1      62.979   7.171   3.278  1.00  0.00    -0.319 N 
HETATM    4  C   UNL     1      61.919   8.467   1.649  1.00  0.00     0.252 A 
HETATM    5  C   UNL     1      62.805   8.459   3.771  1.00  0.00     0.049 A 
HETATM    6  C   UNL     1      61.886  10.608   3.087  1.00  0.00     0.060 A 
HETATM    7  O   UNL     1      62.487   6.088   1.271  1.00  0.00    -0.264 OA
HETATM    8  O   UNL     1      61.390   8.821   0.622  1.00  0.00    -0.281 OA
HETATM    9  C   UNL     1      63.187   8.939   5.007  1.00  0.00     0.033 A 
HETATM   10  C   UNL     1      62.271  11.097   4.331  1.00  0.00     0.117 A 
HETATM   11  C   UNL     1      62.914  10.284   5.283  1.00  0.00     0.044 A 
HETATM   12  F   UNL     1      62.028  12.379   4.633  1.00  0.00    -0.206 F 
HETATM   13  H   UNL     1      63.400   6.434   3.779  1.00  0.00     0.169 HD
ENDROOT
TORSDOF 0
ENDMDL
MODEL 9
REMARK VINA RESULT:      -4.5      2.521      3.435
REMARK  0 active torsions:
REMARK  status: ('A' for Active; 'I' for Inactive)
ROOT
HETATM    1  C   UNL     1      61.861  11.159   2.393  1.00  0.00     0.297 A 
HETATM    2  C   UNL     1      62.556   8.945   2.997  1.00  0.00     0.049 A 
HETATM    3  N   UNL     1      62.146  11.086   3.742  1.00  0.00    -0.319 N 
HETATM    4  C   UNL     1      62.129   9.732   1.838  1.00  0.00     0.252 A 
HETATM    5  C   UNL     1      62.545   9.802   4.099  1.00  0.00     0.049 A 
HETATM    6  C   UNL     1      62.914   7.617   3.090  1.00  0.00     0.060 A 
HETATM    7  O   UNL     1      61.478  12.118   1.760  1.00  0.00    -0.264 OA
HETATM    8  O   UNL     1      62.008   9.344   0.700  1.00  0.00    -0.281 OA
HETATM    9  C   UNL     1      62.892   9.356   5.358  1.00  0.00     0.033 A 
HETATM   10  C   UNL     1      63.263   7.161   4.357  1.00  0.00     0.117 A 
HETATM   11  C   UNL     1      63.254   8.009   5.481  1.00  0.00     0.044 A 
HETATM   12  F   UNL     1      63.615   5.879   4.516  1.00  0.00    -0.206 F 
HETATM   13  H   UNL     1      62.076  11.842   4.369  1.00  0.00     0.169 HD
ENDROOT
TORSDOF 0
ENDMDL
