MODEL 1
REMARK VINA RESULT:      -5.7      0.000      0.000
REMARK  3 active torsions:
REMARK  status: ('A' for Active; 'I' for Inactive)
REMARK    1  A    between atoms: C_1  and  O_2 
REMARK    2  A    between atoms: O_2  and  C_3 
REMARK    3  A    between atoms: C_6  and  N_8 
ROOT
HETATM    1  C   UNL     1      64.126   9.239   5.013  1.00  0.00     0.174 C 
HETATM    2  N   UNL     1      63.887   8.304   4.060  1.00  0.00    -0.345 N 
ATOM      3  HN  UNL     1      64.455   7.461   3.984  1.00  0.00     0.167 HD
HETATM    4  C   UNL     1      63.291  10.339   5.269  1.00  0.00     0.077 C 
HETATM    5  C   UNL     1      62.864   8.544   3.218  1.00  0.00     0.090 C 
HETATM    6  C   UNL     1      62.251  10.549   4.359  1.00  0.00     0.035 C 
HETATM    7  C   UNL     1      62.034   9.646   3.319  1.00  0.00     0.019 C 
ENDROOT
BRANCH   1   8
HETATM    8  O   UNL     1      65.253   9.095   5.825  1.00  0.00    -0.288 OA
BRANCH   8   9
HETATM    9  C   UNL     1      65.785   7.826   5.912  1.00  0.00     0.116 A 
HETATM   10  C   UNL     1      66.933   7.427   5.221  1.00  0.00     0.150 A 
HETATM   11  F   UNL     1      67.622   8.296   4.467  1.00  0.00    -0.203 F 
HETATM   12  C   UNL     1      67.393   6.118   5.306  1.00  0.00     0.045 A 
HETATM   13  C   UNL     1      66.737   5.206   6.132  1.00  0.00     0.003 A 
HETATM   14  C   UNL     1      65.630   5.614   6.881  1.00  0.00     0.003 A 
HETATM   15  C   UNL     1      65.154   6.925   6.774  1.00  0.00     0.040 A 
ENDBRANCH   8   9
ENDBRANCH   1   8
BRANCH   4  16
HETATM   16  N   UNL     1      63.590  11.335   6.217  1.00  0.00    -0.396 N 
HETATM   17  H   UNL     1      63.923  11.082   7.107  1.00  0.00     0.156 HD
HETATM   18  H   UNL     1      63.464  12.285   5.988  1.00  0.00     0.156 HD
ENDBRANCH   4  16
TORSDOF 3
ENDMDL
MODEL 2
REMARK VINA RESULT:      -5.6      2.160      5.090
REMARK  3 active torsions:
REMARK  status: ('A' for Active; 'I' for Inactive)
REMARK    1  A    between atoms: C_1  and  O_2 
REMARK    2  A    between atoms: O_2  and  C_3 
REMARK    3  A    between atoms: C_6  and  N_8 
ROOT
HETATM    1  C   UNL     1      66.044   7.762   6.272  1.00  0.00     0.174 C 
HETATM    2  N   UNL     1      65.335   7.146   7.250  1.00  0.00    -0.345 N 
ATOM      3  HN  UNL     1      64.423   7.493   7.549  1.00  0.00     0.167 HD
HETATM    4  C   UNL     1      67.225   7.250   5.709  1.00  0.00     0.077 C 
HETATM    5  C   UNL     1      65.892   6.054   7.807  1.00  0.00     0.090 C 
HETATM    6  C   UNL     1      67.767   6.122   6.333  1.00  0.00     0.035 C 
HETATM    7  C   UNL     1      67.098   5.518   7.395  1.00  0.00     0.019 C 
ENDROOT
BRANCH   1   8
HETATM    8  O   UNL     1      65.565   8.968   5.755  1.00  0.00    -0.288 OA
BRANCH   8   9
HETATM    9  C   UNL     1      64.418   8.894   4.994  1.00  0.00     0.116 A 
HETATM   10  C   UNL     1      63.419   9.871   5.018  1.00  0.00     0.150 A 
HETATM   11  F   UNL     1      63.557  10.982   5.757  1.00  0.00    -0.203 F 
HETATM   12  C   UNL     1      62.258   9.718   4.268  1.00  0.00     0.045 A 
HETATM   13  C   UNL     1      62.112   8.605   3.440  1.00  0.00     0.003 A 
HETATM   14  C   UNL     1      63.136   7.658   3.356  1.00  0.00     0.003 A 
HETATM   15  C   UNL     1      64.292   7.802   4.131  1.00  0.00     0.040 A 
ENDBRANCH   8   9
ENDBRANCH   1   8
BRANCH   4  16
HETATM   16  N   UNL     1      67.984   7.935   4.743  1.00  0.00    -0.396 N 
HETATM   17  H   UNL     1      68.232   7.486   3.903  1.00  0.00     0.156 HD
HETATM   18  H   UNL     1      68.266   8.865   4.907  1.00  0.00     0.156 HD
ENDBRANCH   4  16
TORSDOF 3
ENDMDL
MODEL 3
REMARK VINA RESULT:      -5.5      2.358      5.306
REMARK  3 active torsions:
REMARK  status: ('A' for Active; 'I' for Inactive)
REMARK    1  A    between atoms: C_1  and  O_2 
REMARK    2  A    between atoms: O_2  and  C_3 
REMARK    3  A    between atoms: C_6  and  N_8 
ROOT
HETATM    1  C   UNL     1      63.593   8.309   5.684  1.00  0.00     0.174 C 
HETATM    2  N   UNL     1      64.822   8.849   5.491  1.00  0.00    -0.345 N 
ATOM      3  HN  UNL     1      64.940   9.820   5.202  1.00  0.00     0.167 HD
HETATM    4  C   UNL     1      63.366   7.035   6.229  1.00  0.00     0.077 C 
HETATM    5  C   UNL     1      65.879   8.042   5.700  1.00  0.00     0.090 C 
HETATM    6  C   UNL     1      64.496   6.233   6.415  1.00  0.00     0.035 C 
HETATM    7  C   UNL     1      65.767   6.738   6.145  1.00  0.00     0.019 C 
ENDROOT
BRANCH   1   8
HETATM    8  O   UNL     1      62.469   9.070   5.357  1.00  0.00    -0.288 OA
BRANCH   8   9
HETATM    9  C   UNL     1      62.308   9.382   4.024  1.00  0.00     0.116 A 
HETATM   10  C   UNL     1      62.111  10.686   3.561  1.00  0.00     0.150 A 
HETATM   11  F   UNL     1      62.126  11.729   4.405  1.00  0.00    -0.203 F 
HETATM   12  C   UNL     1      61.901  10.935   2.209  1.00  0.00     0.045 A 
HETATM   13  C   UNL     1      61.942   9.881   1.297  1.00  0.00     0.003 A 
HETATM   14  C   UNL     1      62.208   8.583   1.742  1.00  0.00     0.003 A 
HETATM   15  C   UNL     1      62.393   8.332   3.106  1.00  0.00     0.040 A 
ENDBRANCH   8   9
ENDBRANCH   1   8
BRANCH   4  16
HETATM   16  N   UNL     1      62.087   6.465   6.359  1.00  0.00    -0.396 N 
HETATM   17  H   UNL     1      61.787   5.778   5.722  1.00  0.00     0.156 HD
HETATM   18  H   UNL     1      61.491   6.753   7.089  1.00  0.00     0.156 HD
ENDBRANCH   4  16
TORSDOF 3
ENDMDL
MODEL 4
REMARK VINA RESULT:      -5.3      2.147      5.242
REMARK  3 active torsions:
REMARK  status: ('A' for Active; 'I' for Inactive)
REMARK    1  A    between atoms: C_1  and  O_2 
REMARK    2  A    between atoms: O_2  and  C_3 
REMARK    3  A    between atoms: C_6  and  N_8 
ROOT
HETATM    1  C   UNL     1      64.393   7.610   6.180  1.00  0.00     0.174 C 
HETATM    2  N   UNL     1      65.412   8.504   6.140  1.00  0.00    -0.345 N 
ATOM      3  HN  UNL     1      65.242   9.510   6.146  1.00  0.00     0.167 HD
HETATM    4  C   UNL     1      64.562   6.224   6.330  1.00  0.00     0.077 C 
HETATM    5  C   UNL     1      66.659   8.000   6.091  1.00  0.00     0.090 C 
HETATM    6  C   UNL     1      65.875   5.752   6.260  1.00  0.00     0.035 C 
HETATM    7  C   UNL     1      66.938   6.646   6.136  1.00  0.00     0.019 C 
ENDROOT
BRANCH   1   8
HETATM    8  O   UNL     1      63.082   8.086   6.103  1.00  0.00    -0.288 OA
BRANCH   8   9
HETATM    9  C   UNL     1      62.752   8.789   4.964  1.00  0.00     0.116 A 
HETATM   10  C   UNL     1      62.599  10.178   4.938  1.00  0.00     0.150 A 
HETATM   11  F   UNL     1      62.826  10.918   6.034  1.00  0.00    -0.203 F 
HETATM   12  C   UNL     1      62.213  10.828   3.772  1.00  0.00     0.045 A 
HETATM   13  C   UNL     1      62.030  10.095   2.599  1.00  0.00     0.003 A 
HETATM   14  C   UNL     1      62.249   8.715   2.598  1.00  0.00     0.003 A 
HETATM   15  C   UNL     1      62.612   8.060   3.779  1.00  0.00     0.040 A 
ENDBRANCH   8   9
ENDBRANCH   1   8
BRANCH   4  16
HETATM   16  N   UNL     1      63.496   5.306   6.302  1.00  0.00    -0.396 N 
HETATM   17  H   UNL     1      63.331   4.768   5.495  1.00  0.00     0.156 HD
HETATM   18  H   UNL     1      62.916   5.202   7.091  1.00  0.00     0.156 HD
ENDBRANCH   4  16
TORSDOF 3
ENDMDL
MODEL 5
REMARK VINA RESULT:      -5.2      2.409      5.490
REMARK  3 active torsions:
REMARK  status: ('A' for Active; 'I' for Inactive)
REMARK    1  A    between atoms: C_1  and  O_2 
REMARK    2  A    between atoms: O_2  and  C_3 
REMARK    3  A    between atoms: C_6  and  N_8 
ROOT
HETATM    1  C   UNL     1      64.288   7.681   4.679  1.00  0.00     0.174 C 
HETATM    2  N   UNL     1      64.750   8.441   5.703  1.00  0.00    -0.345 N 
ATOM      3  HN  UNL     1      64.120   8.995   6.284  1.00  0.00     0.167 HD
HETATM    4  C   UNL     1      65.077   6.780   3.945  1.00  0.00     0.077 C 
HETATM    5  C   UNL     1      66.079   8.428   5.917  1.00  0.00     0.090 C 
HETATM    6  C   UNL     1      66.451   6.816   4.197  1.00  0.00     0.035 C 
HETATM    7  C   UNL     1      66.961   7.650   5.191  1.00  0.00     0.019 C 
ENDROOT
BRANCH   1   8
HETATM    8  O   UNL     1      62.935   7.763   4.341  1.00  0.00    -0.288 OA
BRANCH   8   9
HETATM    9  C   UNL     1      62.551   8.874   3.620  1.00  0.00     0.116 A 
HETATM   10  C   UNL     1      62.313   8.848   2.242  1.00  0.00     0.150 A 
HETATM   11  F   UNL     1      62.392   7.702   1.550  1.00  0.00    -0.203 F 
HETATM   12  C   UNL     1      61.980  10.011   1.558  1.00  0.00     0.045 A 
HETATM   13  C   UNL     1      61.828  11.207   2.260  1.00  0.00     0.003 A 
HETATM   14  C   UNL     1      61.996  11.228   3.646  1.00  0.00     0.003 A 
HETATM   15  C   UNL     1      62.356  10.062   4.329  1.00  0.00     0.040 A 
ENDBRANCH   8   9
ENDBRANCH   1   8
BRANCH   4  16
HETATM   16  N   UNL     1      64.596   6.050   2.842  1.00  0.00    -0.396 N 
HETATM   17  H   UNL     1      64.599   6.455   1.945  1.00  0.00     0.156 HD
HETATM   18  H   UNL     1      64.258   5.134   2.968  1.00  0.00     0.156 HD
ENDBRANCH   4  16
TORSDOF 3
ENDMDL
MODEL 6
REMARK VINA RESULT:      -5.1      2.262      2.949
REMARK  3 active torsions:
REMARK  status: ('A' for Active; 'I' for Inactive)
REMARK    1  A    between atoms: C_1  and  O_2 
REMARK    2  A    between atoms: O_2  and  C_3 
REMARK    3  A    between atoms: C_6  and  N_8 
ROOT
HETATM    1  C   UNL     1      62.250   8.867   3.658  1.00  0.00     0.174 C 
HETATM    2  N   UNL     1      62.313   7.730   2.922  1.00  0.00    -0.345 N 
ATOM      3  HN  UNL     1      62.382   6.812   3.362  1.00  0.00     0.167 HD
HETATM    4  C   UNL     1      62.000  10.142   3.123  1.00  0.00     0.077 C 
HETATM    5  C   UNL     1      62.282   7.870   1.584  1.00  0.00     0.090 C 
HETATM    6  C   UNL     1      61.989  10.235   1.728  1.00  0.00     0.035 C 
HETATM    7  C   UNL     1      62.135   9.089   0.947  1.00  0.00     0.019 C 
ENDROOT
BRANCH   1   8
HETATM    8  O   UNL     1      62.408   8.779   5.043  1.00  0.00    -0.288 OA
BRANCH   8   9
HETATM    9  C   UNL     1      63.547   8.143   5.489  1.00  0.00     0.116 A 
HETATM   10  C   UNL     1      63.521   6.980   6.264  1.00  0.00     0.150 A 
HETATM   11  F   UNL     1      62.361   6.380   6.570  1.00  0.00    -0.203 F 
HETATM   12  C   UNL     1      64.701   6.413   6.731  1.00  0.00     0.045 A 
HETATM   13  C   UNL     1      65.927   6.976   6.379  1.00  0.00     0.003 A 
HETATM   14  C   UNL     1      65.965   8.098   5.547  1.00  0.00     0.003 A 
HETATM   15  C   UNL     1      64.776   8.682   5.099  1.00  0.00     0.040 A 
ENDBRANCH   8   9
ENDBRANCH   1   8
BRANCH   4  16
HETATM   16  N   UNL     1      62.005  11.320   3.893  1.00  0.00    -0.396 N 
HETATM   17  H   UNL     1      61.488  11.363   4.729  1.00  0.00     0.156 HD
HETATM   18  H   UNL     1      62.525  12.101   3.593  1.00  0.00     0.156 HD
ENDBRANCH   4  16
TORSDOF 3
ENDMDL
MODEL 7
REMARK VINA RESULT:      -5.1      1.969      5.012
REMARK  3 active torsions:
REMARK  status: ('A' for Active; 'I' for Inactive)
REMARK    1  A    between atoms: C_1  and  O_2 
REMARK    2  A    between atoms: O_2  and  C_3 
REMARK    3  A    between atoms: C_6  and  N_8 
ROOT
HETATM    1  C   UNL     1      66.075   7.539   5.989  1.00  0.00     0.174 C 
HETATM    2  N   UNL     1      65.317   7.260   7.079  1.00  0.00    -0.345 N 
ATOM      3  HN  UNL     1      64.420   7.718   7.238  1.00  0.00     0.167 HD
HETATM    4  C   UNL     1      67.237   6.837   5.633  1.00  0.00     0.077 C 
HETATM    5  C   UNL     1      65.807   6.349   7.941  1.00  0.00     0.090 C 
HETATM    6  C   UNL     1      67.710   5.911   6.568  1.00  0.00     0.035 C 
HETATM    7  C   UNL     1      66.991   5.665   7.737  1.00  0.00     0.019 C 
ENDROOT
BRANCH   1   8
HETATM    8  O   UNL     1      65.668   8.568   5.137  1.00  0.00    -0.288 OA
BRANCH   8   9
HETATM    9  C   UNL     1      64.429   8.422   4.550  1.00  0.00     0.116 A 
HETATM   10  C   UNL     1      64.144   7.442   3.595  1.00  0.00     0.150 A 
HETATM   11  F   UNL     1      65.068   6.539   3.236  1.00  0.00    -0.203 F 
HETATM   12  C   UNL     1      62.891   7.376   2.998  1.00  0.00     0.045 A 
HETATM   13  C   UNL     1      61.888   8.261   3.394  1.00  0.00     0.003 A 
HETATM   14  C   UNL     1      62.142   9.198   4.399  1.00  0.00     0.003 A 
HETATM   15  C   UNL     1      63.412   9.279   4.980  1.00  0.00     0.040 A 
ENDBRANCH   8   9
ENDBRANCH   1   8
BRANCH   4  16
HETATM   16  N   UNL     1      68.048   7.184   4.537  1.00  0.00    -0.396 N 
HETATM   17  H   UNL     1      68.991   7.426   4.679  1.00  0.00     0.156 HD
HETATM   18  H   UNL     1      67.670   7.185   3.627  1.00  0.00     0.156 HD
ENDBRANCH   4  16
TORSDOF 3
ENDMDL
MODEL 8
REMARK VINA RESULT:      -5.1      2.376      4.944
REMARK  3 active torsions:
REMARK  status: ('A' for Active; 'I' for Inactive)
REMARK    1  A    between atoms: C_1  and  O_2 
REMARK    2  A    between atoms: O_2  and  C_3 
REMARK    3  A    between atoms: C_6  and  N_8 
ROOT
HETATM    1  C   UNL     1      65.407   6.478   6.897  1.00  0.00     0.174 C 
HETATM    2  N   UNL     1      65.192   5.152   6.705  1.00  0.00    -0.345 N 
ATOM      3  HN  UNL     1      64.250   4.771   6.612  1.00  0.00     0.167 HD
HETATM    4  C   UNL     1      66.673   7.084   6.878  1.00  0.00     0.077 C 
HETATM    5  C   UNL     1      66.281   4.364   6.644  1.00  0.00     0.090 C 
HETATM    6  C   UNL     1      67.770   6.220   6.826  1.00  0.00     0.035 C 
HETATM    7  C   UNL     1      67.576   4.845   6.711  1.00  0.00     0.019 C 
ENDROOT
BRANCH   1   8
HETATM    8  O   UNL     1      64.305   7.313   7.094  1.00  0.00    -0.288 OA
BRANCH   8   9
HETATM    9  C   UNL     1      63.433   7.436   6.032  1.00  0.00     0.116 A 
HETATM   10  C   UNL     1      63.685   8.250   4.924  1.00  0.00     0.150 A 
HETATM   11  F   UNL     1      64.839   8.923   4.810  1.00  0.00    -0.203 F 
HETATM   12  C   UNL     1      62.745   8.376   3.908  1.00  0.00     0.045 A 
HETATM   13  C   UNL     1      61.561   7.641   3.966  1.00  0.00     0.003 A 
HETATM   14  C   UNL     1      61.332   6.771   5.035  1.00  0.00     0.003 A 
HETATM   15  C   UNL     1      62.268   6.665   6.069  1.00  0.00     0.040 A 
ENDBRANCH   8   9
ENDBRANCH   1   8
BRANCH   4  16
HETATM   16  N   UNL     1      66.882   8.450   7.146  1.00  0.00    -0.396 N 
HETATM   17  H   UNL     1      67.658   8.914   6.756  1.00  0.00     0.156 HD
HETATM   18  H   UNL     1      66.253   8.940   7.723  1.00  0.00     0.156 HD
ENDBRANCH   4  16
TORSDOF 3
ENDMDL
MODEL 9
REMARK VINA RESULT:      -5.0      1.619      2.390
REMARK  3 active torsions:
REMARK  status: ('A' for Active; 'I' for Inactive)
REMARK    1  A    between atoms: C_1  and  O_2 
REMARK    2  A    between atoms: O_2  and  C_3 
REMARK    3  A    between atoms: C_6  and  N_8 
ROOT
HETATM    1  C   UNL     1      63.123   8.633   5.009  1.00  0.00     0.174 C 
HETATM    2  N   UNL     1      63.547   9.706   5.722  1.00  0.00    -0.345 N 
ATOM      3  HN  UNL     1      64.228   9.612   6.476  1.00  0.00     0.167 HD
HETATM    4  C   UNL     1      62.312   8.714   3.866  1.00  0.00     0.077 C 
HETATM    5  C   UNL     1      63.026  10.901   5.387  1.00  0.00     0.090 C 
HETATM    6  C   UNL     1      61.788   9.975   3.569  1.00  0.00     0.035 C 
HETATM    7  C   UNL     1      62.143  11.082   4.338  1.00  0.00     0.019 C 
ENDROOT
BRANCH   1   8
HETATM    8  O   UNL     1      63.539   7.359   5.404  1.00  0.00    -0.288 OA
BRANCH   8   9
HETATM    9  C   UNL     1      64.892   7.105   5.321  1.00  0.00     0.116 A 
HETATM   10  C   UNL     1      65.539   6.780   4.125  1.00  0.00     0.150 A 
HETATM   11  F   UNL     1      64.869   6.756   2.963  1.00  0.00    -0.203 F 
HETATM   12  C   UNL     1      66.896   6.481   4.111  1.00  0.00     0.045 A 
HETATM   13  C   UNL     1      67.634   6.558   5.292  1.00  0.00     0.003 A 
HETATM   14  C   UNL     1      67.010   6.950   6.480  1.00  0.00     0.003 A 
HETATM   15  C   UNL     1      65.639   7.226   6.496  1.00  0.00     0.040 A 
ENDBRANCH   8   9
ENDBRANCH   1   8
BRANCH   4  16
HETATM   16  N   UNL     1      61.827   7.586   3.178  1.00  0.00    -0.396 N 
HETATM   17  H   UNL     1      61.373   7.696   2.312  1.00  0.00     0.156 HD
HETATM   18  H   UNL     1      61.942   6.687   3.564  1.00  0.00     0.156 HD
ENDBRANCH   4  16
TORSDOF 3
ENDMDL
