MODEL 1
REMARK VINA RESULT:      -4.4      0.000      0.000
REMARK  1 active torsions:
REMARK  status: ('A' for Active; 'I' for Inactive)
REMARK    1  A    between atoms: C_4  and  O_9 
ROOT
HETATM    1  C   UNL     1      62.380   7.351   0.961  1.00  0.00    -0.078 C 
HETATM    2  C   UNL     1      62.385   6.420   0.200  1.00  0.00     0.018 C 
HETATM    3  C   UNL     1      62.343   8.465   1.857  1.00  0.00     0.017 A 
HETATM    4  C   UNL     1      62.199  10.649   3.611  1.00  0.00     0.068 A 
HETATM    5  C   UNL     1      61.898   9.708   1.399  1.00  0.00     0.023 A 
HETATM    6  C   UNL     1      62.721   8.315   3.191  1.00  0.00     0.023 A 
HETATM    7  C   UNL     1      62.640   9.404   4.065  1.00  0.00     0.038 A 
HETATM    8  C   UNL     1      61.825  10.799   2.274  1.00  0.00     0.038 A 
ENDROOT
BRANCH   4   9
HETATM    9  O   UNL     1      62.120  11.623   4.566  1.00  0.00    -0.356 OA
HETATM   10  C   UNL     1      62.821  11.368   5.778  1.00  0.00     0.210 C 
ENDBRANCH   4   9
TORSDOF 1
ENDMDL
MODEL 2
REMARK VINA RESULT:      -4.2      2.397      3.215
REMARK  1 active torsions:
REMARK  status: ('A' for Active; 'I' for Inactive)
REMARK    1  A    between atoms: C_4  and  O_9 
ROOT
HETATM    1  C   UNL     1      61.557   8.492   2.097  1.00  0.00    -0.078 C 
HETATM    2  C   UNL     1      60.757   8.405   1.204  1.00  0.00     0.018 C 
HETATM    3  C   UNL     1      62.532   8.591   3.139  1.00  0.00     0.017 A 
HETATM    4  C   UNL     1      64.495   8.796   5.131  1.00  0.00     0.068 A 
HETATM    5  C   UNL     1      63.528   7.617   3.250  1.00  0.00     0.023 A 
HETATM    6  C   UNL     1      62.514   9.665   4.028  1.00  0.00     0.023 A 
HETATM    7  C   UNL     1      63.500   9.768   5.015  1.00  0.00     0.038 A 
HETATM    8  C   UNL     1      64.510   7.719   4.244  1.00  0.00     0.038 A 
ENDROOT
BRANCH   4   9
HETATM    9  O   UNL     1      65.427   9.030   6.104  1.00  0.00    -0.356 OA
HETATM   10  C   UNL     1      66.410   8.017   6.284  1.00  0.00     0.210 C 
ENDBRANCH   4   9
TORSDOF 1
ENDMDL
MODEL 3
REMARK VINA RESULT:      -4.0      1.677      2.929
REMARK  1 active torsions:
REMARK  status: ('A' for Active; 'I' for Inactive)
REMARK    1  A    between atoms: C_4  and  O_9 
ROOT
HETATM    1  C   UNL     1      63.832   6.344   4.137  1.00  0.00    -0.078 C 
HETATM    2  C   UNL     1      64.341   5.263   4.274  1.00  0.00     0.018 C 
HETATM    3  C   UNL     1      63.255   7.644   3.983  1.00  0.00     0.017 A 
HETATM    4  C   UNL     1      62.191  10.220   3.677  1.00  0.00     0.068 A 
HETATM    5  C   UNL     1      63.410   8.595   4.995  1.00  0.00     0.023 A 
HETATM    6  C   UNL     1      62.564   7.979   2.820  1.00  0.00     0.023 A 
HETATM    7  C   UNL     1      62.042   9.268   2.667  1.00  0.00     0.038 A 
HETATM    8  C   UNL     1      62.879   9.882   4.843  1.00  0.00     0.038 A 
ENDROOT
BRANCH   4   9
HETATM    9  O   UNL     1      61.678  11.455   3.394  1.00  0.00    -0.356 OA
HETATM   10  C   UNL     1      61.746  11.862   2.032  1.00  0.00     0.210 C 
ENDBRANCH   4   9
TORSDOF 1
ENDMDL
MODEL 4
REMARK VINA RESULT:      -4.0      2.132      3.683
REMARK  1 active torsions:
REMARK  status: ('A' for Active; 'I' for Inactive)
REMARK    1  A    between atoms: C_4  and  O_9 
ROOT
HETATM    1  C   UNL     1      65.026   7.690   5.675  1.00  0.00    -0.078 C 
HETATM    2  C   UNL     1      65.771   6.924   6.226  1.00  0.00     0.018 C 
HETATM    3  C   UNL     1      64.118   8.577   5.015  1.00  0.00     0.017 A 
HETATM    4  C   UNL     1      62.284  10.271   3.738  1.00  0.00     0.068 A 
HETATM    5  C   UNL     1      63.512   8.185   3.819  1.00  0.00     0.023 A 
HETATM    6  C   UNL     1      63.812   9.819   5.571  1.00  0.00     0.023 A 
HETATM    7  C   UNL     1      62.890  10.657   4.935  1.00  0.00     0.038 A 
HETATM    8  C   UNL     1      62.595   9.030   3.181  1.00  0.00     0.038 A 
ENDROOT
BRANCH   4   9
HETATM    9  O   UNL     1      61.369  11.154   3.236  1.00  0.00    -0.356 OA
HETATM   10  C   UNL     1      61.717  11.786   2.010  1.00  0.00     0.210 C 
ENDBRANCH   4   9
TORSDOF 1
ENDMDL
MODEL 5
REMARK VINA RESULT:      -3.9      2.773      4.819
REMARK  1 active torsions:
REMARK  status: ('A' for Active; 'I' for Inactive)
REMARK    1  A    between atoms: C_4  and  O_9 
ROOT
HETATM    1  C   UNL     1      61.976  10.684   1.891  1.00  0.00    -0.078 C 
HETATM    2  C   UNL     1      61.683  11.836   2.070  1.00  0.00     0.018 C 
HETATM    3  C   UNL     1      62.307   9.305   1.705  1.00  0.00     0.017 A 
HETATM    4  C   UNL     1      62.900   6.583   1.380  1.00  0.00     0.068 A 
HETATM    5  C   UNL     1      62.767   8.550   2.787  1.00  0.00     0.023 A 
HETATM    6  C   UNL     1      62.149   8.701   0.458  1.00  0.00     0.023 A 
HETATM    7  C   UNL     1      62.438   7.341   0.302  1.00  0.00     0.038 A 
HETATM    8  C   UNL     1      63.063   7.191   2.626  1.00  0.00     0.038 A 
ENDROOT
BRANCH   4   9
HETATM    9  O   UNL     1      63.104   5.258   1.115  1.00  0.00    -0.356 OA
HETATM   10  C   UNL     1      64.414   4.764   1.372  1.00  0.00     0.210 C 
ENDBRANCH   4   9
TORSDOF 1
ENDMDL
MODEL 6
REMARK VINA RESULT:      -3.9      2.458      4.000
REMARK  1 active torsions:
REMARK  status: ('A' for Active; 'I' for Inactive)
REMARK    1  A    between atoms: C_4  and  O_9 
ROOT
HETATM    1  C   UNL     1      62.005  10.814   2.674  1.00  0.00    -0.078 C 
HETATM    2  C   UNL     1      61.688  11.793   2.052  1.00  0.00     0.018 C 
HETATM    3  C   UNL     1      62.363   9.659   3.438  1.00  0.00     0.017 A 
HETATM    4  C   UNL     1      63.004   7.402   4.975  1.00  0.00     0.068 A 
HETATM    5  C   UNL     1      62.707   9.798   4.785  1.00  0.00     0.023 A 
HETATM    6  C   UNL     1      62.344   8.392   2.857  1.00  0.00     0.023 A 
HETATM    7  C   UNL     1      62.656   7.267   3.629  1.00  0.00     0.038 A 
HETATM    8  C   UNL     1      63.027   8.671   5.553  1.00  0.00     0.038 A 
ENDROOT
BRANCH   4   9
HETATM    9  O   UNL     1      63.243   6.229   5.635  1.00  0.00    -0.356 OA
HETATM   10  C   UNL     1      64.417   6.193   6.438  1.00  0.00     0.210 C 
ENDBRANCH   4   9
TORSDOF 1
ENDMDL
MODEL 7
REMARK VINA RESULT:      -3.9      2.103      4.637
REMARK  1 active torsions:
REMARK  status: ('A' for Active; 'I' for Inactive)
REMARK    1  A    between atoms: C_4  and  O_9 
ROOT
HETATM    1  C   UNL     1      62.711  10.763   5.091  1.00  0.00    -0.078 C 
HETATM    2  C   UNL     1      62.995  11.314   6.121  1.00  0.00     0.018 C 
HETATM    3  C   UNL     1      62.351  10.089   3.882  1.00  0.00     0.017 A 
HETATM    4  C   UNL     1      61.584   8.744   1.543  1.00  0.00     0.068 A 
HETATM    5  C   UNL     1      62.305   8.692   3.854  1.00  0.00     0.023 A 
HETATM    6  C   UNL     1      62.018  10.814   2.738  1.00  0.00     0.023 A 
HETATM    7  C   UNL     1      61.628  10.140   1.576  1.00  0.00     0.038 A 
HETATM    8  C   UNL     1      61.922   8.020   2.687  1.00  0.00     0.038 A 
ENDROOT
BRANCH   4   9
HETATM    9  O   UNL     1      61.145   8.203   0.367  1.00  0.00    -0.356 OA
HETATM   10  C   UNL     1      59.801   7.737   0.357  1.00  0.00     0.210 C 
ENDBRANCH   4   9
TORSDOF 1
ENDMDL
MODEL 8
REMARK VINA RESULT:      -3.8      3.708      4.829
REMARK  1 active torsions:
REMARK  status: ('A' for Active; 'I' for Inactive)
REMARK    1  A    between atoms: C_4  and  O_9 
ROOT
HETATM    1  C   UNL     1      62.572   9.479   3.783  1.00  0.00    -0.078 C 
HETATM    2  C   UNL     1      61.996  10.180   2.995  1.00  0.00     0.018 C 
HETATM    3  C   UNL     1      63.241   8.618   4.709  1.00  0.00     0.017 A 
HETATM    4  C   UNL     1      64.541   6.874   6.480  1.00  0.00     0.068 A 
HETATM    5  C   UNL     1      62.512   7.655   5.412  1.00  0.00     0.023 A 
HETATM    6  C   UNL     1      64.620   8.713   4.895  1.00  0.00     0.023 A 
HETATM    7  C   UNL     1      65.266   7.836   5.773  1.00  0.00     0.038 A 
HETATM    8  C   UNL     1      63.161   6.783   6.296  1.00  0.00     0.038 A 
ENDROOT
BRANCH   4   9
HETATM    9  O   UNL     1      65.288   6.047   7.271  1.00  0.00    -0.356 OA
HETATM   10  C   UNL     1      66.336   6.666   8.007  1.00  0.00     0.210 C 
ENDBRANCH   4   9
TORSDOF 1
ENDMDL
MODEL 9
REMARK VINA RESULT:      -3.7      2.221      3.033
REMARK  1 active torsions:
REMARK  status: ('A' for Active; 'I' for Inactive)
REMARK    1  A    between atoms: C_4  and  O_9 
ROOT
HETATM    1  C   UNL     1      64.177   5.859   2.220  1.00  0.00    -0.078 C 
HETATM    2  C   UNL     1      64.198   4.970   1.411  1.00  0.00     0.018 C 
HETATM    3  C   UNL     1      64.184   6.923   3.176  1.00  0.00     0.017 A 
HETATM    4  C   UNL     1      64.256   9.038   5.017  1.00  0.00     0.068 A 
HETATM    5  C   UNL     1      65.223   7.013   4.106  1.00  0.00     0.023 A 
HETATM    6  C   UNL     1      63.177   7.888   3.170  1.00  0.00     0.023 A 
HETATM    7  C   UNL     1      63.221   8.946   4.084  1.00  0.00     0.038 A 
HETATM    8  C   UNL     1      65.260   8.069   5.025  1.00  0.00     0.038 A 
ENDROOT
BRANCH   4   9
HETATM    9  O   UNL     1      64.214  10.139   5.827  1.00  0.00    -0.356 OA
HETATM   10  C   UNL     1      63.024  10.917   5.762  1.00  0.00     0.210 C 
ENDBRANCH   4   9
TORSDOF 1
ENDMDL
