MODEL 1
REMARK VINA RESULT:      -5.3      0.000      0.000
REMARK  4 active torsions:
REMARK  status: ('A' for Active; 'I' for Inactive)
REMARK    1  A    between atoms: C_1  and  C_6 
REMARK    2  A    between atoms: C_2  and  C_5 
REMARK    3  A    between atoms: C_4  and  O_8 
REMARK    4  A    between atoms: C_5  and  C_6 
ROOT
HETATM    1  C   UNL     1      63.825   8.476   4.458  1.00  0.00    -0.024 A 
HETATM    2  C   UNL     1      65.098   8.237   5.005  1.00  0.00     0.074 A 
HETATM    3  C   UNL     1      63.364   7.574   3.460  1.00  0.00     0.010 A 
HETATM    4  C   UNL     1      65.844   7.131   4.541  1.00  0.00     0.037 A 
HETATM    5  C   UNL     1      64.114   6.480   3.027  1.00  0.00     0.001 A 
HETATM    6  C   UNL     1      65.367   6.260   3.566  1.00  0.00     0.003 A 
ENDROOT
BRANCH   1   7
HETATM    7  C   UNL     1      62.898   9.643   4.737  1.00  0.00     0.052 C 
BRANCH   7   8
HETATM    8  C   UNL     1      61.908   9.953   3.604  1.00  0.00     0.118 C 
BRANCH   8   9
HETATM    9  C   UNL     1      61.915  11.423   3.274  1.00  0.00     0.172 C 
HETATM   10  O   UNL     1      61.987  11.936   2.172  1.00  0.00    -0.648 OA
HETATM   11  O   UNL     1      61.820  12.189   4.380  1.00  0.00    -0.648 OA
ENDBRANCH   8   9
ENDBRANCH   7   8
ENDBRANCH   1   7
BRANCH   2  12
HETATM   12  O   UNL     1      65.827   8.893   5.952  1.00  0.00    -0.355 OA
HETATM   13  C   UNL     1      66.754   8.258   6.802  1.00  0.00     0.210 C 
ENDBRANCH   2  12
TORSDOF 4
ENDMDL
MODEL 2
REMARK VINA RESULT:      -5.1      1.655      4.496
REMARK  4 active torsions:
REMARK  status: ('A' for Active; 'I' for Inactive)
REMARK    1  A    between atoms: C_1  and  C_6 
REMARK    2  A    between atoms: C_2  and  C_5 
REMARK    3  A    between atoms: C_4  and  O_8 
REMARK    4  A    between atoms: C_5  and  C_6 
ROOT
HETATM    1  C   UNL     1      62.905   8.709   3.600  1.00  0.00    -0.024 A 
HETATM    2  C   UNL     1      62.611   9.874   4.331  1.00  0.00     0.074 A 
HETATM    3  C   UNL     1      62.588   8.711   2.214  1.00  0.00     0.010 A 
HETATM    4  C   UNL     1      62.022  10.969   3.660  1.00  0.00     0.037 A 
HETATM    5  C   UNL     1      62.018   9.810   1.571  1.00  0.00     0.001 A 
HETATM    6  C   UNL     1      61.726  10.946   2.301  1.00  0.00     0.003 A 
ENDROOT
BRANCH   1   7
HETATM    7  C   UNL     1      63.447   7.394   4.127  1.00  0.00     0.052 C 
BRANCH   7   8
HETATM    8  C   UNL     1      64.953   7.404   4.431  1.00  0.00     0.118 C 
BRANCH   8   9
HETATM    9  C   UNL     1      65.216   7.931   5.817  1.00  0.00     0.172 C 
HETATM   10  O   UNL     1      65.914   8.878   6.130  1.00  0.00    -0.648 OA
HETATM   11  O   UNL     1      64.563   7.220   6.759  1.00  0.00    -0.648 OA
ENDBRANCH   8   9
ENDBRANCH   7   8
ENDBRANCH   1   7
BRANCH   2  12
HETATM   12  O   UNL     1      62.776  10.199   5.644  1.00  0.00    -0.355 OA
HETATM   13  C   UNL     1      63.276  11.441   6.083  1.00  0.00     0.210 C 
ENDBRANCH   2  12
TORSDOF 4
ENDMDL
MODEL 3
REMARK VINA RESULT:      -5.0      2.196      5.218
REMARK  4 active torsions:
REMARK  status: ('A' for Active; 'I' for Inactive)
REMARK    1  A    between atoms: C_1  and  C_6 
REMARK    2  A    between atoms: C_2  and  C_5 
REMARK    3  A    between atoms: C_4  and  O_8 
REMARK    4  A    between atoms: C_5  and  C_6 
ROOT
HETATM    1  C   UNL     1      62.578   8.923   3.538  1.00  0.00    -0.024 A 
HETATM    2  C   UNL     1      62.383   8.933   2.146  1.00  0.00     0.074 A 
HETATM    3  C   UNL     1      62.354  10.141   4.237  1.00  0.00     0.010 A 
HETATM    4  C   UNL     1      61.983  10.135   1.521  1.00  0.00     0.037 A 
HETATM    5  C   UNL     1      61.947  11.313   3.600  1.00  0.00     0.001 A 
HETATM    6  C   UNL     1      61.766  11.312   2.230  1.00  0.00     0.003 A 
ENDROOT
BRANCH   1   7
HETATM    7  C   UNL     1      63.091   7.782   4.396  1.00  0.00     0.052 C 
BRANCH   7   8
HETATM    8  C   UNL     1      64.621   7.694   4.488  1.00  0.00     0.118 C 
BRANCH   8   9
HETATM    9  C   UNL     1      65.097   8.054   5.872  1.00  0.00     0.172 C 
HETATM   10  O   UNL     1      65.940   8.878   6.175  1.00  0.00    -0.648 OA
HETATM   11  O   UNL     1      64.460   7.343   6.825  1.00  0.00    -0.648 OA
ENDBRANCH   8   9
ENDBRANCH   7   8
ENDBRANCH   1   7
BRANCH   2  12
HETATM   12  O   UNL     1      62.511   7.965   1.195  1.00  0.00    -0.355 OA
HETATM   13  C   UNL     1      61.418   7.353   0.551  1.00  0.00     0.210 C 
ENDBRANCH   2  12
TORSDOF 4
ENDMDL
MODEL 4
REMARK VINA RESULT:      -4.7      1.822      4.775
REMARK  4 active torsions:
REMARK  status: ('A' for Active; 'I' for Inactive)
REMARK    1  A    between atoms: C_1  and  C_6 
REMARK    2  A    between atoms: C_2  and  C_5 
REMARK    3  A    between atoms: C_4  and  O_8 
REMARK    4  A    between atoms: C_5  and  C_6 
ROOT
HETATM    1  C   UNL     1      62.897   8.077   2.952  1.00  0.00    -0.024 A 
HETATM    2  C   UNL     1      62.345   9.239   2.386  1.00  0.00     0.074 A 
HETATM    3  C   UNL     1      63.073   6.955   2.097  1.00  0.00     0.010 A 
HETATM    4  C   UNL     1      61.995   9.232   1.018  1.00  0.00     0.037 A 
HETATM    5  C   UNL     1      62.732   6.976   0.744  1.00  0.00     0.001 A 
HETATM    6  C   UNL     1      62.182   8.121   0.201  1.00  0.00     0.003 A 
ENDROOT
BRANCH   1   7
HETATM    7  C   UNL     1      63.257   7.832   4.405  1.00  0.00     0.052 C 
BRANCH   7   8
HETATM    8  C   UNL     1      64.722   7.432   4.638  1.00  0.00     0.118 C 
BRANCH   8   9
HETATM    9  C   UNL     1      65.243   8.031   5.919  1.00  0.00     0.172 C 
HETATM   10  O   UNL     1      65.824   9.092   6.058  1.00  0.00    -0.648 OA
HETATM   11  O   UNL     1      64.992   7.243   6.984  1.00  0.00    -0.648 OA
ENDBRANCH   8   9
ENDBRANCH   7   8
ENDBRANCH   1   7
BRANCH   2  12
HETATM   12  O   UNL     1      62.044  10.461   2.910  1.00  0.00    -0.355 OA
HETATM   13  C   UNL     1      61.786  11.604   2.128  1.00  0.00     0.210 C 
ENDBRANCH   2  12
TORSDOF 4
ENDMDL
MODEL 5
REMARK VINA RESULT:      -4.7      2.777      5.349
REMARK  4 active torsions:
REMARK  status: ('A' for Active; 'I' for Inactive)
REMARK    1  A    between atoms: C_1  and  C_6 
REMARK    2  A    between atoms: C_2  and  C_5 
REMARK    3  A    between atoms: C_4  and  O_8 
REMARK    4  A    between atoms: C_5  and  C_6 
ROOT
HETATM    1  C   UNL     1      62.621   9.029   3.503  1.00  0.00    -0.024 A 
HETATM    2  C   UNL     1      62.358   9.200   2.133  1.00  0.00     0.074 A 
HETATM    3  C   UNL     1      62.433  10.156   4.349  1.00  0.00     0.010 A 
HETATM    4  C   UNL     1      61.929  10.466   1.673  1.00  0.00     0.037 A 
HETATM    5  C   UNL     1      61.997  11.393   3.874  1.00  0.00     0.001 A 
HETATM    6  C   UNL     1      61.749  11.552   2.524  1.00  0.00     0.003 A 
ENDROOT
BRANCH   1   7
HETATM    7  C   UNL     1      63.172   7.798   4.196  1.00  0.00     0.052 C 
BRANCH   7   8
HETATM    8  C   UNL     1      62.101   6.846   4.748  1.00  0.00     0.118 C 
BRANCH   8   9
HETATM    9  C   UNL     1      62.100   6.856   6.255  1.00  0.00     0.172 C 
HETATM   10  O   UNL     1      62.634   7.666   6.991  1.00  0.00    -0.648 OA
HETATM   11  O   UNL     1      61.401   5.822   6.766  1.00  0.00    -0.648 OA
ENDBRANCH   8   9
ENDBRANCH   7   8
ENDBRANCH   1   7
BRANCH   2  12
HETATM   12  O   UNL     1      62.438   8.351   1.070  1.00  0.00    -0.355 OA
HETATM   13  C   UNL     1      61.320   7.721   0.487  1.00  0.00     0.210 C 
ENDBRANCH   2  12
TORSDOF 4
ENDMDL
MODEL 6
REMARK VINA RESULT:      -4.4     12.797     13.235
REMARK  4 active torsions:
REMARK  status: ('A' for Active; 'I' for Inactive)
REMARK    1  A    between atoms: C_1  and  C_6 
REMARK    2  A    between atoms: C_2  and  C_5 
REMARK    3  A    between atoms: C_4  and  O_8 
REMARK    4  A    between atoms: C_5  and  C_6 
ROOT
HETATM    1  C   UNL     1      56.707   1.891  13.165  1.00  0.00    -0.024 A 
HETATM    2  C   UNL     1      57.624   2.456  12.261  1.00  0.00     0.074 A 
HETATM    3  C   UNL     1      57.221   0.997  14.143  1.00  0.00     0.010 A 
HETATM    4  C   UNL     1      58.989   2.110  12.369  1.00  0.00     0.037 A 
HETATM    5  C   UNL     1      58.576   0.680  14.239  1.00  0.00     0.001 A 
HETATM    6  C   UNL     1      59.467   1.235  13.340  1.00  0.00     0.003 A 
ENDROOT
BRANCH   1   7
HETATM    7  C   UNL     1      55.198   2.048  13.176  1.00  0.00     0.052 C 
BRANCH   7   8
HETATM    8  C   UNL     1      54.663   2.965  14.286  1.00  0.00     0.118 C 
BRANCH   8   9
HETATM    9  C   UNL     1      54.327   4.329  13.740  1.00  0.00     0.172 C 
HETATM   10  O   UNL     1      54.292   5.383  14.348  1.00  0.00    -0.648 OA
HETATM   11  O   UNL     1      54.055   4.290  12.420  1.00  0.00    -0.648 OA
ENDBRANCH   8   9
ENDBRANCH   7   8
ENDBRANCH   1   7
BRANCH   2  12
HETATM   12  O   UNL     1      57.472   3.325  11.223  1.00  0.00    -0.355 OA
HETATM   13  C   UNL     1      58.426   3.494  10.200  1.00  0.00     0.210 C 
ENDBRANCH   2  12
TORSDOF 4
ENDMDL
MODEL 7
REMARK VINA RESULT:      -4.4      2.297      3.306
REMARK  4 active torsions:
REMARK  status: ('A' for Active; 'I' for Inactive)
REMARK    1  A    between atoms: C_1  and  C_6 
REMARK    2  A    between atoms: C_2  and  C_5 
REMARK    3  A    between atoms: C_4  and  O_8 
REMARK    4  A    between atoms: C_5  and  C_6 
ROOT
HETATM    1  C   UNL     1      62.315   8.075   4.300  1.00  0.00    -0.024 A 
HETATM    2  C   UNL     1      61.994   7.136   5.297  1.00  0.00     0.074 A 
HETATM    3  C   UNL     1      63.667   8.509   4.224  1.00  0.00     0.010 A 
HETATM    4  C   UNL     1      63.016   6.681   6.159  1.00  0.00     0.037 A 
HETATM    5  C   UNL     1      64.662   8.035   5.079  1.00  0.00     0.001 A 
HETATM    6  C   UNL     1      64.333   7.119   6.060  1.00  0.00     0.003 A 
ENDROOT
BRANCH   1   7
HETATM    7  C   UNL     1      61.370   8.763   3.334  1.00  0.00     0.052 C 
BRANCH   7   8
HETATM    8  C   UNL     1      62.046   9.777   2.399  1.00  0.00     0.118 C 
BRANCH   8   9
HETATM    9  C   UNL     1      61.842  11.184   2.898  1.00  0.00     0.172 C 
HETATM   10  O   UNL     1      61.659  11.544   4.047  1.00  0.00    -0.648 OA
HETATM   11  O   UNL     1      61.887  12.086   1.897  1.00  0.00    -0.648 OA
ENDBRANCH   8   9
ENDBRANCH   7   8
ENDBRANCH   1   7
BRANCH   2  12
HETATM   12  O   UNL     1      60.824   6.528   5.642  1.00  0.00    -0.355 OA
HETATM   13  C   UNL     1      60.226   5.500   4.887  1.00  0.00     0.210 C 
ENDBRANCH   2  12
TORSDOF 4
ENDMDL
MODEL 8
REMARK VINA RESULT:      -4.1      2.793      4.833
REMARK  4 active torsions:
REMARK  status: ('A' for Active; 'I' for Inactive)
REMARK    1  A    between atoms: C_1  and  C_6 
REMARK    2  A    between atoms: C_2  and  C_5 
REMARK    3  A    between atoms: C_4  and  O_8 
REMARK    4  A    between atoms: C_5  and  C_6 
ROOT
HETATM    1  C   UNL     1      62.204   8.777   3.480  1.00  0.00    -0.024 A 
HETATM    2  C   UNL     1      61.413   7.636   3.255  1.00  0.00     0.074 A 
HETATM    3  C   UNL     1      62.333   9.703   2.409  1.00  0.00     0.010 A 
HETATM    4  C   UNL     1      60.798   7.470   1.995  1.00  0.00     0.037 A 
HETATM    5  C   UNL     1      61.705   9.523   1.176  1.00  0.00     0.001 A 
HETATM    6  C   UNL     1      60.937   8.394   0.964  1.00  0.00     0.003 A 
ENDROOT
BRANCH   1   7
HETATM    7  C   UNL     1      63.024   9.111   4.712  1.00  0.00     0.052 C 
BRANCH   7   8
HETATM    8  C   UNL     1      64.192   8.150   4.977  1.00  0.00     0.118 C 
BRANCH   8   9
HETATM    9  C   UNL     1      64.115   7.585   6.372  1.00  0.00     0.172 C 
HETATM   10  O   UNL     1      65.038   7.213   7.073  1.00  0.00    -0.648 OA
HETATM   11  O   UNL     1      62.846   7.526   6.823  1.00  0.00    -0.648 OA
ENDBRANCH   8   9
ENDBRANCH   7   8
ENDBRANCH   1   7
BRANCH   2  12
HETATM   12  O   UNL     1      61.091   6.573   4.045  1.00  0.00    -0.355 OA
HETATM   13  C   UNL     1      61.871   5.404   4.138  1.00  0.00     0.210 C 
ENDBRANCH   2  12
TORSDOF 4
ENDMDL
MODEL 9
REMARK VINA RESULT:      -4.0      2.293      4.893
REMARK  4 active torsions:
REMARK  status: ('A' for Active; 'I' for Inactive)
REMARK    1  A    between atoms: C_1  and  C_6 
REMARK    2  A    between atoms: C_2  and  C_5 
REMARK    3  A    between atoms: C_4  and  O_8 
REMARK    4  A    between atoms: C_5  and  C_6 
ROOT
HETATM    1  C   UNL     1      62.806   8.613   4.690  1.00  0.00    -0.024 A 
HETATM    2  C   UNL     1      62.337   8.391   3.383  1.00  0.00     0.074 A 
HETATM    3  C   UNL     1      62.859   9.959   5.144  1.00  0.00     0.010 A 
HETATM    4  C   UNL     1      61.952   9.500   2.598  1.00  0.00     0.037 A 
HETATM    5  C   UNL     1      62.460  11.039   4.355  1.00  0.00     0.001 A 
HETATM    6  C   UNL     1      62.009  10.809   3.069  1.00  0.00     0.003 A 
ENDROOT
BRANCH   1   7
HETATM    7  C   UNL     1      63.354   7.590   5.666  1.00  0.00     0.052 C 
BRANCH   7   8
HETATM    8  C   UNL     1      64.639   6.891   5.199  1.00  0.00     0.118 C 
BRANCH   8   9
HETATM    9  C   UNL     1      65.828   7.807   5.337  1.00  0.00     0.172 C 
HETATM   10  O   UNL     1      66.639   8.104   4.480  1.00  0.00    -0.648 OA
HETATM   11  O   UNL     1      65.928   8.319   6.581  1.00  0.00    -0.648 OA
ENDBRANCH   8   9
ENDBRANCH   7   8
ENDBRANCH   1   7
BRANCH   2  12
HETATM   12  O   UNL     1      62.168   7.254   2.650  1.00  0.00    -0.355 OA
HETATM   13  C   UNL     1      62.783   7.030   1.402  1.00  0.00     0.210 C 
ENDBRANCH   2  12
TORSDOF 4
ENDMDL
