MODEL 1
REMARK VINA RESULT:      -5.2      0.000      0.000
REMARK  1 active torsions:
REMARK  status: ('A' for Active; 'I' for Inactive)
REMARK    1  A    between atoms: C_1  and  C_2 
REMARK       I    between atoms: C_1  and  N_9 
ROOT
HETATM    1  C   UNL     1      62.932   9.298   4.820  1.00  0.00     0.033 A 
HETATM    2  C   UNL     1      62.201   9.671   2.545  1.00  0.00     0.073 A 
HETATM    3  C   UNL     1      62.723   8.820   3.519  1.00  0.00     0.044 A 
HETATM    4  C   UNL     1      61.903  10.995   2.865  1.00  0.00     0.138 A 
HETATM    5  C   UNL     1      62.640  10.633   5.134  1.00  0.00     0.020 A 
HETATM    6  C   UNL     1      62.123  11.482   4.152  1.00  0.00     0.045 A 
HETATM    7 CL   UNL     1      61.925   9.070   0.957  1.00  0.00    -0.081 Cl
HETATM    8  F   UNL     1      61.404  11.828   1.941  1.00  0.00    -0.204 F 
ENDROOT
BRANCH   1   9
HETATM    9  C   UNL     1      63.490   8.365   5.829  1.00  0.00     0.249 C 
HETATM   10  O   UNL     1      62.776   7.825   6.663  1.00  0.00    -0.268 OA
HETATM   11  N   UNL     1      64.842   8.164   5.815  1.00  0.00    -0.366 N 
HETATM   12  H   UNL     1      65.398   8.609   5.135  1.00  0.00     0.159 HD
HETATM   13  H   UNL     1      65.260   7.576   6.485  1.00  0.00     0.159 HD
ENDBRANCH   1   9
TORSDOF 1
ENDMDL
MODEL 2
REMARK VINA RESULT:      -5.0      2.625      3.232
REMARK  1 active torsions:
REMARK  status: ('A' for Active; 'I' for Inactive)
REMARK    1  A    between atoms: C_1  and  C_2 
REMARK       I    between atoms: C_1  and  N_9 
ROOT
HETATM    1  C   UNL     1      62.799   9.938   4.193  1.00  0.00     0.033 A 
HETATM    2  C   UNL     1      62.351   8.677   2.178  1.00  0.00     0.073 A 
HETATM    3  C   UNL     1      62.176   9.831   2.942  1.00  0.00     0.044 A 
HETATM    4  C   UNL     1      63.131   7.630   2.668  1.00  0.00     0.138 A 
HETATM    5  C   UNL     1      63.574   8.878   4.685  1.00  0.00     0.020 A 
HETATM    6  C   UNL     1      63.740   7.722   3.918  1.00  0.00     0.045 A 
HETATM    7 CL   UNL     1      61.602   8.563   0.633  1.00  0.00    -0.081 Cl
HETATM    8  F   UNL     1      63.307   6.513   1.949  1.00  0.00    -0.204 F 
ENDROOT
BRANCH   1   9
HETATM    9  C   UNL     1      62.589  11.179   4.977  1.00  0.00     0.249 C 
HETATM   10  O   UNL     1      61.858  12.074   4.573  1.00  0.00    -0.268 OA
HETATM   11  N   UNL     1      63.277  11.301   6.151  1.00  0.00    -0.366 N 
HETATM   12  H   UNL     1      63.859  10.568   6.458  1.00  0.00     0.159 HD
HETATM   13  H   UNL     1      63.191  12.120   6.691  1.00  0.00     0.159 HD
ENDBRANCH   1   9
TORSDOF 1
ENDMDL
MODEL 3
REMARK VINA RESULT:      -4.8      1.536      2.287
REMARK  1 active torsions:
REMARK  status: ('A' for Active; 'I' for Inactive)
REMARK    1  A    between atoms: C_1  and  C_2 
REMARK       I    between atoms: C_1  and  N_9 
ROOT
HETATM    1  C   UNL     1      63.084   8.402   4.345  1.00  0.00     0.033 A 
HETATM    2  C   UNL     1      62.220   9.990   2.738  1.00  0.00     0.073 A 
HETATM    3  C   UNL     1      62.632   9.693   4.037  1.00  0.00     0.044 A 
HETATM    4  C   UNL     1      62.245   9.000   1.757  1.00  0.00     0.138 A 
HETATM    5  C   UNL     1      63.099   7.408   3.356  1.00  0.00     0.020 A 
HETATM    6  C   UNL     1      62.678   7.711   2.059  1.00  0.00     0.045 A 
HETATM    7 CL   UNL     1      61.689  11.583   2.363  1.00  0.00    -0.081 Cl
HETATM    8  F   UNL     1      61.850   9.267   0.504  1.00  0.00    -0.204 F 
ENDROOT
BRANCH   1   9
HETATM    9  C   UNL     1      63.513   8.123   5.737  1.00  0.00     0.249 C 
HETATM   10  O   UNL     1      62.701   7.874   6.617  1.00  0.00    -0.268 OA
HETATM   11  N   UNL     1      64.851   8.195   6.005  1.00  0.00    -0.366 N 
HETATM   12  H   UNL     1      65.488   8.396   5.282  1.00  0.00     0.159 HD
HETATM   13  H   UNL     1      65.179   8.045   6.922  1.00  0.00     0.159 HD
ENDBRANCH   1   9
TORSDOF 1
ENDMDL
MODEL 4
REMARK VINA RESULT:      -4.7      3.403      4.082
REMARK  1 active torsions:
REMARK  status: ('A' for Active; 'I' for Inactive)
REMARK    1  A    between atoms: C_1  and  C_2 
REMARK       I    between atoms: C_1  and  N_9 
ROOT
HETATM    1  C   UNL     1      63.211   9.629   4.521  1.00  0.00     0.033 A 
HETATM    2  C   UNL     1      64.709   7.731   4.567  1.00  0.00     0.073 A 
HETATM    3  C   UNL     1      64.297   8.954   5.095  1.00  0.00     0.044 A 
HETATM    4  C   UNL     1      64.049   7.192   3.462  1.00  0.00     0.138 A 
HETATM    5  C   UNL     1      62.557   9.088   3.405  1.00  0.00     0.020 A 
HETATM    6  C   UNL     1      62.979   7.865   2.876  1.00  0.00     0.045 A 
HETATM    7 CL   UNL     1      66.028   6.897   5.292  1.00  0.00    -0.081 Cl
HETATM    8  F   UNL     1      64.433   6.019   2.940  1.00  0.00    -0.204 F 
ENDROOT
BRANCH   1   9
HETATM    9  C   UNL     1      62.802  10.928   5.108  1.00  0.00     0.249 C 
HETATM   10  O   UNL     1      61.976  11.645   4.560  1.00  0.00    -0.268 OA
HETATM   11  N   UNL     1      63.417  11.312   6.267  1.00  0.00    -0.366 N 
HETATM   12  H   UNL     1      64.079  10.719   6.692  1.00  0.00     0.159 HD
HETATM   13  H   UNL     1      63.198  12.180   6.677  1.00  0.00     0.159 HD
ENDBRANCH   1   9
TORSDOF 1
ENDMDL
MODEL 5
REMARK VINA RESULT:      -4.5      3.337      3.953
REMARK  1 active torsions:
REMARK  status: ('A' for Active; 'I' for Inactive)
REMARK    1  A    between atoms: C_1  and  C_2 
REMARK       I    between atoms: C_1  and  N_9 
ROOT
HETATM    1  C   UNL     1      62.643   9.737   3.727  1.00  0.00     0.033 A 
HETATM    2  C   UNL     1      63.247   7.560   2.866  1.00  0.00     0.073 A 
HETATM    3  C   UNL     1      62.614   8.790   2.694  1.00  0.00     0.044 A 
HETATM    4  C   UNL     1      63.891   7.270   4.068  1.00  0.00     0.138 A 
HETATM    5  C   UNL     1      63.284   9.438   4.937  1.00  0.00     0.020 A 
HETATM    6  C   UNL     1      63.910   8.200   5.105  1.00  0.00     0.045 A 
HETATM    7 CL   UNL     1      63.228   6.412   1.584  1.00  0.00    -0.081 Cl
HETATM    8  F   UNL     1      64.502   6.091   4.252  1.00  0.00    -0.204 F 
ENDROOT
BRANCH   1   9
HETATM    9  C   UNL     1      61.958  11.035   3.509  1.00  0.00     0.249 C 
HETATM   10  O   UNL     1      61.884  11.874   4.396  1.00  0.00    -0.268 OA
HETATM   11  N   UNL     1      61.376  11.238   2.289  1.00  0.00    -0.366 N 
HETATM   12  H   UNL     1      61.448  10.549   1.590  1.00  0.00     0.159 HD
HETATM   13  H   UNL     1      60.886  12.072   2.110  1.00  0.00     0.159 HD
ENDBRANCH   1   9
TORSDOF 1
ENDMDL
MODEL 6
REMARK VINA RESULT:      -4.4      2.629      3.173
REMARK  1 active torsions:
REMARK  status: ('A' for Active; 'I' for Inactive)
REMARK    1  A    between atoms: C_1  and  C_2 
REMARK       I    between atoms: C_1  and  N_9 
ROOT
HETATM    1  C   UNL     1      62.725   8.203   2.716  1.00  0.00     0.033 A 
HETATM    2  C   UNL     1      62.426  10.327   3.833  1.00  0.00     0.073 A 
HETATM    3  C   UNL     1      62.806   8.986   3.875  1.00  0.00     0.044 A 
HETATM    4  C   UNL     1      61.952  10.878   2.643  1.00  0.00     0.138 A 
HETATM    5  C   UNL     1      62.239   8.760   1.524  1.00  0.00     0.020 A 
HETATM    6  C   UNL     1      61.853  10.102   1.490  1.00  0.00     0.045 A 
HETATM    7 CL   UNL     1      62.551  11.287   5.255  1.00  0.00    -0.081 Cl
HETATM    8  F   UNL     1      61.578  12.164   2.585  1.00  0.00    -0.204 F 
ENDROOT
BRANCH   1   9
HETATM    9  C   UNL     1      63.137   6.781   2.799  1.00  0.00     0.249 C 
HETATM   10  O   UNL     1      64.313   6.452   2.721  1.00  0.00    -0.268 OA
HETATM   11  N   UNL     1      62.146   5.848   2.925  1.00  0.00    -0.366 N 
HETATM   12  H   UNL     1      61.206   6.135   2.987  1.00  0.00     0.159 HD
HETATM   13  H   UNL     1      62.372   4.891   2.955  1.00  0.00     0.159 HD
ENDBRANCH   1   9
TORSDOF 1
ENDMDL
MODEL 7
REMARK VINA RESULT:      -4.3      3.107      3.634
REMARK  1 active torsions:
REMARK  status: ('A' for Active; 'I' for Inactive)
REMARK    1  A    between atoms: C_1  and  C_2 
REMARK       I    between atoms: C_1  and  N_9 
ROOT
HETATM    1  C   UNL     1      62.202   8.258   2.278  1.00  0.00     0.033 A 
HETATM    2  C   UNL     1      61.935  10.644   2.565  1.00  0.00     0.073 A 
HETATM    3  C   UNL     1      61.925   9.521   1.738  1.00  0.00     0.044 A 
HETATM    4  C   UNL     1      62.236  10.507   3.920  1.00  0.00     0.138 A 
HETATM    5  C   UNL     1      62.513   8.127   3.639  1.00  0.00     0.020 A 
HETATM    6  C   UNL     1      62.528   9.257   4.460  1.00  0.00     0.045 A 
HETATM    7 CL   UNL     1      61.571  12.189   1.901  1.00  0.00    -0.081 Cl
HETATM    8  F   UNL     1      62.254  11.576   4.730  1.00  0.00    -0.204 F 
ENDROOT
BRANCH   1   9
HETATM    9  C   UNL     1      62.183   7.087   1.367  1.00  0.00     0.249 C 
HETATM   10  O   UNL     1      62.848   7.066   0.340  1.00  0.00    -0.268 OA
HETATM   11  N   UNL     1      61.360   6.048   1.701  1.00  0.00    -0.366 N 
HETATM   12  H   UNL     1      60.834   6.086   2.532  1.00  0.00     0.159 HD
HETATM   13  H   UNL     1      61.293   5.263   1.111  1.00  0.00     0.159 HD
ENDBRANCH   1   9
TORSDOF 1
ENDMDL
MODEL 8
REMARK VINA RESULT:      -4.2      1.968      2.298
REMARK  1 active torsions:
REMARK  status: ('A' for Active; 'I' for Inactive)
REMARK    1  A    between atoms: C_1  and  C_2 
REMARK       I    between atoms: C_1  and  N_9 
ROOT
HETATM    1  C   UNL     1      62.431   9.547   4.050  1.00  0.00     0.033 A 
HETATM    2  C   UNL     1      61.879   7.956   2.315  1.00  0.00     0.073 A 
HETATM    3  C   UNL     1      62.312   8.220   3.614  1.00  0.00     0.044 A 
HETATM    4  C   UNL     1      61.581   9.010   1.452  1.00  0.00     0.138 A 
HETATM    5  C   UNL     1      62.139  10.604   3.176  1.00  0.00     0.020 A 
HETATM    6  C   UNL     1      61.712  10.331   1.874  1.00  0.00     0.045 A 
HETATM    7 CL   UNL     1      61.713   6.324   1.795  1.00  0.00    -0.081 Cl
HETATM    8  F   UNL     1      61.166   8.774   0.200  1.00  0.00    -0.204 F 
ENDROOT
BRANCH   1   9
HETATM    9  C   UNL     1      62.896   9.790   5.438  1.00  0.00     0.249 C 
HETATM   10  O   UNL     1      63.049  10.925   5.869  1.00  0.00    -0.268 OA
HETATM   11  N   UNL     1      63.185   8.695   6.202  1.00  0.00    -0.366 N 
HETATM   12  H   UNL     1      63.054   7.791   5.834  1.00  0.00     0.159 HD
HETATM   13  H   UNL     1      63.524   8.809   7.119  1.00  0.00     0.159 HD
ENDBRANCH   1   9
TORSDOF 1
ENDMDL
MODEL 9
REMARK VINA RESULT:      -4.2      2.649      3.230
REMARK  1 active torsions:
REMARK  status: ('A' for Active; 'I' for Inactive)
REMARK    1  A    between atoms: C_1  and  C_2 
REMARK       I    between atoms: C_1  and  N_9 
ROOT
HETATM    1  C   UNL     1      61.582   7.941   3.002  1.00  0.00     0.033 A 
HETATM    2  C   UNL     1      61.983  10.271   3.507  1.00  0.00     0.073 A 
HETATM    3  C   UNL     1      61.784   8.961   3.941  1.00  0.00     0.044 A 
HETATM    4  C   UNL     1      61.964  10.563   2.144  1.00  0.00     0.138 A 
HETATM    5  C   UNL     1      61.555   8.241   1.633  1.00  0.00     0.020 A 
HETATM    6  C   UNL     1      61.748   9.557   1.205  1.00  0.00     0.045 A 
HETATM    7 CL   UNL     1      62.254  11.514   4.666  1.00  0.00    -0.081 Cl
HETATM    8  F   UNL     1      62.150  11.817   1.709  1.00  0.00    -0.204 F 
ENDROOT
BRANCH   1   9
HETATM    9  C   UNL     1      61.373   6.559   3.501  1.00  0.00     0.249 C 
HETATM   10  O   UNL     1      61.246   5.616   2.732  1.00  0.00    -0.268 OA
HETATM   11  N   UNL     1      61.287   6.389   4.854  1.00  0.00    -0.366 N 
HETATM   12  H   UNL     1      61.393   7.162   5.454  1.00  0.00     0.159 HD
HETATM   13  H   UNL     1      61.120   5.494   5.228  1.00  0.00     0.159 HD
ENDBRANCH   1   9
TORSDOF 1
ENDMDL
