MODEL 1
REMARK VINA RESULT:      -4.2      0.000      0.000
REMARK  1 active torsions:
REMARK  status: ('A' for Active; 'I' for Inactive)
REMARK    1  A    between atoms: N_4  and  O_11 
ROOT
HETATM    1  C   UNL     1      62.236   9.353   3.932  1.00  0.00     0.040 C 
HETATM    2  N   UNL     1      63.704   8.641   5.743  1.00  0.00    -0.066 N 
HETATM    3  C   UNL     1      62.993   9.810   5.162  1.00  0.00     0.289 C 
HETATM    4  N   UNL     1      61.541  10.147   3.193  1.00  0.00    -0.275 N 
ATOM      5  HN  UNL     1      61.042   9.772   2.386  1.00  0.00     0.193 HD
HETATM    6  C   UNL     1      62.328   7.874   3.661  1.00  0.00     0.038 C 
HETATM    7  C   UNL     1      61.812   7.191   4.943  1.00  0.00     0.038 C 
HETATM    8  C   UNL     1      63.816   7.498   3.506  1.00  0.00     0.038 C 
HETATM    9  C   UNL     1      64.617   8.084   4.706  1.00  0.00     0.236 C 
HETATM   10  C   UNL     1      62.725   7.593   6.139  1.00  0.00     0.236 C 
HETATM   11  H   UNL     1      64.230   8.932   6.566  1.00  0.00     0.280 HD
ENDROOT
BRANCH   4  12
HETATM   12  O   UNL     1      61.464  11.433   3.461  1.00  0.00    -0.290 OA
HETATM   13  H   UNL     1      62.151  11.855   3.938  1.00  0.00     0.244 HD
ENDBRANCH   4  12
TORSDOF 1
ENDMDL
MODEL 2
REMARK VINA RESULT:      -4.1      2.114      3.132
REMARK  1 active torsions:
REMARK  status: ('A' for Active; 'I' for Inactive)
REMARK    1  A    between atoms: N_4  and  O_11 
ROOT
HETATM    1  C   UNL     1      61.850  10.067   2.637  1.00  0.00     0.040 C 
HETATM    2  N   UNL     1      62.086   7.943   1.467  1.00  0.00    -0.066 N 
HETATM    3  C   UNL     1      62.117   9.419   1.295  1.00  0.00     0.289 C 
HETATM    4  N   UNL     1      61.787  11.342   2.808  1.00  0.00    -0.275 N 
ATOM      5  HN  UNL     1      61.619  11.716   3.743  1.00  0.00     0.193 HD
HETATM    6  C   UNL     1      61.703   9.094   3.777  1.00  0.00     0.038 C 
HETATM    7  C   UNL     1      63.006   8.271   3.783  1.00  0.00     0.038 C 
HETATM    8  C   UNL     1      60.548   8.126   3.446  1.00  0.00     0.038 C 
HETATM    9  C   UNL     1      60.753   7.561   2.011  1.00  0.00     0.236 C 
HETATM   10  C   UNL     1      63.140   7.518   2.426  1.00  0.00     0.236 C 
HETATM   11  H   UNL     1      62.252   7.489   0.568  1.00  0.00     0.280 HD
ENDROOT
BRANCH   4  12
HETATM   12  O   UNL     1      61.935  12.173   1.797  1.00  0.00    -0.290 OA
HETATM   13  H   UNL     1      61.500  13.002   1.804  1.00  0.00     0.244 HD
ENDBRANCH   4  12
TORSDOF 1
ENDMDL
MODEL 3
REMARK VINA RESULT:      -4.1      1.880      2.212
REMARK  1 active torsions:
REMARK  status: ('A' for Active; 'I' for Inactive)
REMARK    1  A    between atoms: N_4  and  O_11 
ROOT
HETATM    1  C   UNL     1      63.596   9.300   5.345  1.00  0.00     0.040 C 
HETATM    2  N   UNL     1      64.715   7.198   4.825  1.00  0.00    -0.066 N 
HETATM    3  C   UNL     1      64.918   8.561   5.381  1.00  0.00     0.289 C 
HETATM    4  N   UNL     1      63.455  10.518   5.738  1.00  0.00    -0.275 N 
ATOM      5  HN  UNL     1      62.532  10.953   5.702  1.00  0.00     0.193 HD
HETATM    6  C   UNL     1      62.439   8.475   4.846  1.00  0.00     0.038 C 
HETATM    7  C   UNL     1      62.386   7.243   5.770  1.00  0.00     0.038 C 
HETATM    8  C   UNL     1      62.775   7.972   3.426  1.00  0.00     0.038 C 
HETATM    9  C   UNL     1      64.193   7.331   3.436  1.00  0.00     0.236 C 
HETATM   10  C   UNL     1      63.723   6.454   5.646  1.00  0.00     0.236 C 
HETATM   11  H   UNL     1      65.599   6.690   4.830  1.00  0.00     0.280 HD
ENDROOT
BRANCH   4  12
HETATM   12  O   UNL     1      64.479  11.213   6.185  1.00  0.00    -0.290 OA
HETATM   13  H   UNL     1      64.991  11.728   5.594  1.00  0.00     0.244 HD
ENDBRANCH   4  12
TORSDOF 1
ENDMDL
MODEL 4
REMARK VINA RESULT:      -4.1      1.516      2.977
REMARK  1 active torsions:
REMARK  status: ('A' for Active; 'I' for Inactive)
REMARK    1  A    between atoms: N_4  and  O_11 
ROOT
HETATM    1  C   UNL     1      62.831   9.561   4.842  1.00  0.00     0.040 C 
HETATM    2  N   UNL     1      61.379   9.399   2.892  1.00  0.00    -0.066 N 
HETATM    3  C   UNL     1      61.979  10.346   3.867  1.00  0.00     0.289 C 
HETATM    4  N   UNL     1      63.464  10.101   5.825  1.00  0.00    -0.275 N 
ATOM      5  HN  UNL     1      64.034   9.516   6.437  1.00  0.00     0.193 HD
HETATM    6  C   UNL     1      62.915   8.087   4.544  1.00  0.00     0.038 C 
HETATM    7  C   UNL     1      63.450   7.990   3.102  1.00  0.00     0.038 C 
HETATM    8  C   UNL     1      61.485   7.507   4.543  1.00  0.00     0.038 C 
HETATM    9  C   UNL     1      60.576   8.395   3.645  1.00  0.00     0.236 C 
HETATM   10  C   UNL     1      62.450   8.695   2.138  1.00  0.00     0.236 C 
HETATM   11  H   UNL     1      60.790   9.910   2.234  1.00  0.00     0.280 HD
ENDROOT
BRANCH   4  12
HETATM   12  O   UNL     1      63.387  11.395   6.055  1.00  0.00    -0.290 OA
HETATM   13  H   UNL     1      62.578  11.775   6.335  1.00  0.00     0.244 HD
ENDBRANCH   4  12
TORSDOF 1
ENDMDL
MODEL 5
REMARK VINA RESULT:      -3.9      3.511      4.479
REMARK  1 active torsions:
REMARK  status: ('A' for Active; 'I' for Inactive)
REMARK    1  A    between atoms: N_4  and  O_11 
ROOT
HETATM    1  C   UNL     1      65.506   7.553   6.176  1.00  0.00     0.040 C 
HETATM    2  N   UNL     1      67.807   6.848   6.559  1.00  0.00    -0.066 N 
HETATM    3  C   UNL     1      66.942   8.023   6.276  1.00  0.00     0.289 C 
HETATM    4  N   UNL     1      64.520   8.339   5.912  1.00  0.00    -0.275 N 
ATOM      5  HN  UNL     1      63.573   7.961   5.874  1.00  0.00     0.193 HD
HETATM    6  C   UNL     1      65.313   6.085   6.454  1.00  0.00     0.038 C 
HETATM    7  C   UNL     1      65.899   5.854   7.860  1.00  0.00     0.038 C 
HETATM    8  C   UNL     1      66.177   5.283   5.458  1.00  0.00     0.038 C 
HETATM    9  C   UNL     1      67.624   5.855   5.463  1.00  0.00     0.236 C 
HETATM   10  C   UNL     1      67.413   6.222   7.849  1.00  0.00     0.236 C 
HETATM   11  H   UNL     1      68.781   7.144   6.618  1.00  0.00     0.280 HD
ENDROOT
BRANCH   4  12
HETATM   12  O   UNL     1      64.713   9.622   5.689  1.00  0.00    -0.290 OA
HETATM   13  H   UNL     1      65.258  10.121   6.265  1.00  0.00     0.244 HD
ENDBRANCH   4  12
TORSDOF 1
ENDMDL
MODEL 6
REMARK VINA RESULT:      -3.9      4.602      5.716
REMARK  1 active torsions:
REMARK  status: ('A' for Active; 'I' for Inactive)
REMARK    1  A    between atoms: N_4  and  O_11 
ROOT
HETATM    1  C   UNL     1      66.701   7.150   6.796  1.00  0.00     0.040 C 
HETATM    2  N   UNL     1      65.702   5.179   7.823  1.00  0.00    -0.066 N 
HETATM    3  C   UNL     1      65.408   6.533   7.287  1.00  0.00     0.289 C 
HETATM    4  N   UNL     1      66.776   8.336   6.298  1.00  0.00    -0.275 N 
ATOM      5  HN  UNL     1      67.676   8.686   5.971  1.00  0.00     0.193 HD
HETATM    6  C   UNL     1      67.899   6.243   6.899  1.00  0.00     0.038 C 
HETATM    7  C   UNL     1      67.524   4.978   6.103  1.00  0.00     0.038 C 
HETATM    8  C   UNL     1      68.068   5.824   8.375  1.00  0.00     0.038 C 
HETATM    9  C   UNL     1      66.702   5.314   8.919  1.00  0.00     0.236 C 
HETATM   10  C   UNL     1      66.271   4.318   6.752  1.00  0.00     0.236 C 
HETATM   11  H   UNL     1      64.843   4.752   8.171  1.00  0.00     0.280 HD
ENDROOT
BRANCH   4  12
HETATM   12  O   UNL     1      65.710   9.103   6.204  1.00  0.00    -0.290 OA
HETATM   13  H   UNL     1      65.539   9.572   5.412  1.00  0.00     0.244 HD
ENDBRANCH   4  12
TORSDOF 1
ENDMDL
MODEL 7
REMARK VINA RESULT:      -3.8      2.885      3.718
REMARK  1 active torsions:
REMARK  status: ('A' for Active; 'I' for Inactive)
REMARK    1  A    between atoms: N_4  and  O_11 
ROOT
HETATM    1  C   UNL     1      60.275   8.427   1.527  1.00  0.00     0.040 C 
HETATM    2  N   UNL     1      61.871   8.183   3.352  1.00  0.00    -0.066 N 
HETATM    3  C   UNL     1      60.451   7.980   2.963  1.00  0.00     0.289 C 
HETATM    4  N   UNL     1      59.145   8.398   0.909  1.00  0.00    -0.275 N 
ATOM      5  HN  UNL     1      59.097   8.699  -0.065  1.00  0.00     0.193 HD
HETATM    6  C   UNL     1      61.547   8.874   0.856  1.00  0.00     0.038 C 
HETATM    7  C   UNL     1      62.514   7.680   0.974  1.00  0.00     0.038 C 
HETATM    8  C   UNL     1      62.149  10.035   1.676  1.00  0.00     0.038 C 
HETATM    9  C   UNL     1      62.205   9.624   3.175  1.00  0.00     0.236 C 
HETATM   10  C   UNL     1      62.760   7.369   2.481  1.00  0.00     0.236 C 
HETATM   11  H   UNL     1      62.005   7.898   4.322  1.00  0.00     0.280 HD
ENDROOT
BRANCH   4  12
HETATM   12  O   UNL     1      58.049   7.988   1.513  1.00  0.00    -0.290 OA
HETATM   13  H   UNL     1      58.101   7.346   2.194  1.00  0.00     0.244 HD
ENDBRANCH   4  12
TORSDOF 1
ENDMDL
MODEL 8
REMARK VINA RESULT:      -3.8      3.544      4.454
REMARK  1 active torsions:
REMARK  status: ('A' for Active; 'I' for Inactive)
REMARK    1  A    between atoms: N_4  and  O_11 
ROOT
HETATM    1  C   UNL     1      66.014   7.591   6.378  1.00  0.00     0.040 C 
HETATM    2  N   UNL     1      63.903   6.434   6.002  1.00  0.00    -0.066 N 
HETATM    3  C   UNL     1      64.972   6.688   7.002  1.00  0.00     0.289 C 
HETATM    4  N   UNL     1      67.082   7.971   6.990  1.00  0.00    -0.275 N 
ATOM      5  HN  UNL     1      67.737   8.594   6.517  1.00  0.00     0.193 HD
HETATM    6  C   UNL     1      65.680   8.050   4.982  1.00  0.00     0.038 C 
HETATM    7  C   UNL     1      64.309   8.744   5.097  1.00  0.00     0.038 C 
HETATM    8  C   UNL     1      65.493   6.805   4.091  1.00  0.00     0.038 C 
HETATM    9  C   UNL     1      64.523   5.814   4.798  1.00  0.00     0.236 C 
HETATM   10  C   UNL     1      63.257   7.715   5.609  1.00  0.00     0.236 C 
HETATM   11  H   UNL     1      63.197   5.815   6.402  1.00  0.00     0.280 HD
ENDROOT
BRANCH   4  12
HETATM   12  O   UNL     1      67.343   7.568   8.216  1.00  0.00    -0.290 OA
HETATM   13  H   UNL     1      67.383   6.653   8.411  1.00  0.00     0.244 HD
ENDBRANCH   4  12
TORSDOF 1
ENDMDL
MODEL 9
REMARK VINA RESULT:      -3.7     10.727     12.019
REMARK  1 active torsions:
REMARK  status: ('A' for Active; 'I' for Inactive)
REMARK    1  A    between atoms: N_4  and  O_11 
ROOT
HETATM    1  C   UNL     1      58.384   2.135  12.048  1.00  0.00     0.040 C 
HETATM    2  N   UNL     1      57.631  -0.075  12.748  1.00  0.00    -0.066 N 
HETATM    3  C   UNL     1      57.395   1.021  11.773  1.00  0.00     0.289 C 
HETATM    4  N   UNL     1      58.413   3.237  11.382  1.00  0.00    -0.275 N 
ATOM      5  HN  UNL     1      59.116   3.941  11.608  1.00  0.00     0.193 HD
HETATM    6  C   UNL     1      59.369   1.831  13.146  1.00  0.00     0.038 C 
HETATM    7  C   UNL     1      60.072   0.528  12.718  1.00  0.00     0.038 C 
HETATM    8  C   UNL     1      58.582   1.527  14.437  1.00  0.00     0.038 C 
HETATM    9  C   UNL     1      57.475   0.478  14.123  1.00  0.00     0.236 C 
HETATM   10  C   UNL     1      59.011  -0.607  12.595  1.00  0.00     0.236 C 
HETATM   11  H   UNL     1      56.964  -0.829  12.586  1.00  0.00     0.280 HD
ENDROOT
BRANCH   4  12
HETATM   12  O   UNL     1      57.551   3.471  10.415  1.00  0.00    -0.290 OA
HETATM   13  H   UNL     1      57.422   4.345  10.102  1.00  0.00     0.244 HD
ENDBRANCH   4  12
TORSDOF 1
ENDMDL
