MODEL 1
REMARK VINA RESULT:      -5.0      0.000      0.000
REMARK  3 active torsions:
REMARK  status: ('A' for Active; 'I' for Inactive)
REMARK       I    between atoms: C_1  and  N_2 
REMARK    1  A    between atoms: N_2  and  C_4 
REMARK    2  A    between atoms: C_5  and  C_11 
REMARK    3  A    between atoms: C_11  and  C_12 
ROOT
HETATM    1  C   UNL     1      63.994   8.298   5.047  1.00  0.00     0.034 A 
HETATM    2  C   UNL     1      62.415   9.114   2.851  1.00  0.00    -0.058 A 
HETATM    3  C   UNL     1      63.311   9.513   5.078  1.00  0.00     0.030 A 
HETATM    4  C   UNL     1      63.919   7.512   3.891  1.00  0.00     0.030 A 
HETATM    5  C   UNL     1      63.131   7.914   2.805  1.00  0.00     0.009 A 
HETATM    6  C   UNL     1      62.530   9.919   3.990  1.00  0.00     0.009 A 
ENDROOT
BRANCH   1   7
HETATM    7  N   UNL     1      64.765   7.810   6.124  1.00  0.00    -0.328 N 
HETATM    8  C   UNL     1      66.141   7.851   6.239  1.00  0.00     0.218 C 
HETATM    9  O   UNL     1      66.932   8.361   5.449  1.00  0.00    -0.274 OA
HETATM   10  C   UNL     1      66.649   7.232   7.517  1.00  0.00     0.117 C 
HETATM   11  H   UNL     1      64.270   7.396   6.868  1.00  0.00     0.169 HD
ENDBRANCH   1   7
BRANCH   2  12
HETATM   12  C   UNL     1      61.539   9.552   1.704  1.00  0.00     0.038 C 
BRANCH  12  13
HETATM   13  C   UNL     1      61.208   8.446   0.696  1.00  0.00     0.000 C 
HETATM   14  C   UNL     1      59.724   8.111   0.625  1.00  0.00     0.005 C 
ENDBRANCH  12  13
ENDBRANCH   2  12
TORSDOF 3
ENDMDL
MODEL 2
REMARK VINA RESULT:      -4.9      1.616      1.925
REMARK  3 active torsions:
REMARK  status: ('A' for Active; 'I' for Inactive)
REMARK       I    between atoms: C_1  and  N_2 
REMARK    1  A    between atoms: N_2  and  C_4 
REMARK    2  A    between atoms: C_5  and  C_11 
REMARK    3  A    between atoms: C_11  and  C_12 
ROOT
HETATM    1  C   UNL     1      65.112   7.664   4.910  1.00  0.00     0.034 A 
HETATM    2  C   UNL     1      62.863   8.666   3.525  1.00  0.00    -0.058 A 
HETATM    3  C   UNL     1      64.516   8.862   5.299  1.00  0.00     0.030 A 
HETATM    4  C   UNL     1      64.604   6.990   3.793  1.00  0.00     0.030 A 
HETATM    5  C   UNL     1      63.485   7.483   3.111  1.00  0.00     0.009 A 
HETATM    6  C   UNL     1      63.403   9.360   4.613  1.00  0.00     0.009 A 
ENDROOT
BRANCH   1   7
HETATM    7  N   UNL     1      66.210   7.085   5.583  1.00  0.00    -0.328 N 
HETATM    8  C   UNL     1      66.282   6.769   6.926  1.00  0.00     0.218 C 
HETATM    9  O   UNL     1      65.389   6.894   7.761  1.00  0.00    -0.274 OA
HETATM   10  C   UNL     1      67.605   6.168   7.325  1.00  0.00     0.117 C 
HETATM   11  H   UNL     1      67.006   6.886   5.038  1.00  0.00     0.169 HD
ENDBRANCH   1   7
BRANCH   2  12
HETATM   12  C   UNL     1      61.641   9.200   2.821  1.00  0.00     0.038 C 
BRANCH  12  13
HETATM   13  C   UNL     1      61.940  10.170   1.673  1.00  0.00     0.000 C 
HETATM   14  C   UNL     1      61.793  11.635   2.059  1.00  0.00     0.005 C 
ENDBRANCH  12  13
ENDBRANCH   2  12
TORSDOF 3
ENDMDL
MODEL 3
REMARK VINA RESULT:      -4.6      1.779      2.546
REMARK  3 active torsions:
REMARK  status: ('A' for Active; 'I' for Inactive)
REMARK       I    between atoms: C_1  and  N_2 
REMARK    1  A    between atoms: N_2  and  C_4 
REMARK    2  A    between atoms: C_5  and  C_11 
REMARK    3  A    between atoms: C_11  and  C_12 
ROOT
HETATM    1  C   UNL     1      64.256   6.858   5.860  1.00  0.00     0.034 A 
HETATM    2  C   UNL     1      63.033   8.412   3.842  1.00  0.00    -0.058 A 
HETATM    3  C   UNL     1      64.607   6.686   4.522  1.00  0.00     0.030 A 
HETATM    4  C   UNL     1      63.255   7.783   6.180  1.00  0.00     0.030 A 
HETATM    5  C   UNL     1      62.653   8.557   5.180  1.00  0.00     0.009 A 
HETATM    6  C   UNL     1      64.001   7.453   3.522  1.00  0.00     0.009 A 
ENDROOT
BRANCH   1   7
HETATM    7  N   UNL     1      64.857   6.148   6.922  1.00  0.00    -0.328 N 
HETATM    8  C   UNL     1      65.935   6.557   7.683  1.00  0.00     0.218 C 
HETATM    9  O   UNL     1      66.530   7.629   7.601  1.00  0.00    -0.274 OA
HETATM   10  C   UNL     1      66.333   5.554   8.735  1.00  0.00     0.117 C 
HETATM   11  H   UNL     1      64.468   5.270   7.141  1.00  0.00     0.169 HD
ENDBRANCH   1   7
BRANCH   2  12
HETATM   12  C   UNL     1      62.418   9.255   2.753  1.00  0.00     0.038 C 
BRANCH  12  13
HETATM   13  C   UNL     1      61.925  10.631   3.214  1.00  0.00     0.000 C 
HETATM   14  C   UNL     1      61.754  11.629   2.077  1.00  0.00     0.005 C 
ENDBRANCH  12  13
ENDBRANCH   2  12
TORSDOF 3
ENDMDL
MODEL 4
REMARK VINA RESULT:      -4.6      2.916      6.106
REMARK  3 active torsions:
REMARK  status: ('A' for Active; 'I' for Inactive)
REMARK       I    between atoms: C_1  and  N_2 
REMARK    1  A    between atoms: N_2  and  C_4 
REMARK    2  A    between atoms: C_5  and  C_11 
REMARK    3  A    between atoms: C_11  and  C_12 
ROOT
HETATM    1  C   UNL     1      64.078   8.266   5.261  1.00  0.00     0.034 A 
HETATM    2  C   UNL     1      65.818   6.394   6.464  1.00  0.00    -0.058 A 
HETATM    3  C   UNL     1      63.570   7.209   6.015  1.00  0.00     0.030 A 
HETATM    4  C   UNL     1      65.462   8.356   5.074  1.00  0.00     0.030 A 
HETATM    5  C   UNL     1      66.325   7.432   5.676  1.00  0.00     0.009 A 
HETATM    6  C   UNL     1      64.431   6.280   6.609  1.00  0.00     0.009 A 
ENDROOT
BRANCH   1   7
HETATM    7  N   UNL     1      63.269   9.260   4.669  1.00  0.00    -0.328 N 
HETATM    8  C   UNL     1      63.009  10.521   5.173  1.00  0.00     0.218 C 
HETATM    9  O   UNL     1      63.472  11.014   6.199  1.00  0.00    -0.274 OA
HETATM   10  C   UNL     1      62.095  11.335   4.293  1.00  0.00     0.117 C 
HETATM   11  H   UNL     1      62.846   9.031   3.810  1.00  0.00     0.169 HD
ENDBRANCH   1   7
BRANCH   2  12
HETATM   12  C   UNL     1      66.731   5.403   7.143  1.00  0.00     0.038 C 
BRANCH  12  13
HETATM   13  C   UNL     1      67.608   5.999   8.249  1.00  0.00     0.000 C 
HETATM   14  C   UNL     1      66.814   6.593   9.404  1.00  0.00     0.005 C 
ENDBRANCH  12  13
ENDBRANCH   2  12
TORSDOF 3
ENDMDL
MODEL 5
REMARK VINA RESULT:      -4.4      2.520      6.211
REMARK  3 active torsions:
REMARK  status: ('A' for Active; 'I' for Inactive)
REMARK       I    between atoms: C_1  and  N_2 
REMARK    1  A    between atoms: N_2  and  C_4 
REMARK    2  A    between atoms: C_5  and  C_11 
REMARK    3  A    between atoms: C_11  and  C_12 
ROOT
HETATM    1  C   UNL     1      64.376   7.968   5.072  1.00  0.00     0.034 A 
HETATM    2  C   UNL     1      66.077   6.224   6.502  1.00  0.00    -0.058 A 
HETATM    3  C   UNL     1      65.760   8.122   5.013  1.00  0.00     0.030 A 
HETATM    4  C   UNL     1      63.843   6.962   5.888  1.00  0.00     0.030 A 
HETATM    5  C   UNL     1      64.687   6.094   6.592  1.00  0.00     0.009 A 
HETATM    6  C   UNL     1      66.603   7.260   5.722  1.00  0.00     0.009 A 
ENDROOT
BRANCH   1   7
HETATM    7  N   UNL     1      63.470   8.775   4.351  1.00  0.00    -0.328 N 
HETATM    8  C   UNL     1      62.871   9.940   4.791  1.00  0.00     0.218 C 
HETATM    9  O   UNL     1      63.056  10.502   5.868  1.00  0.00    -0.274 OA
HETATM   10  C   UNL     1      61.946  10.554   3.771  1.00  0.00     0.117 C 
HETATM   11  H   UNL     1      63.242   8.477   3.440  1.00  0.00     0.169 HD
ENDBRANCH   1   7
BRANCH   2  12
HETATM   12  C   UNL     1      67.003   5.282   7.230  1.00  0.00     0.038 C 
BRANCH  12  13
HETATM   13  C   UNL     1      67.748   5.908   8.414  1.00  0.00     0.000 C 
HETATM   14  C   UNL     1      66.832   6.610   9.407  1.00  0.00     0.005 C 
ENDBRANCH  12  13
ENDBRANCH   2  12
TORSDOF 3
ENDMDL
MODEL 6
REMARK VINA RESULT:      -4.2     12.868     14.051
REMARK  3 active torsions:
REMARK  status: ('A' for Active; 'I' for Inactive)
REMARK       I    between atoms: C_1  and  N_2 
REMARK    1  A    between atoms: N_2  and  C_4 
REMARK    2  A    between atoms: C_5  and  C_11 
REMARK    3  A    between atoms: C_11  and  C_12 
ROOT
HETATM    1  C   UNL     1      57.338   1.411  13.891  1.00  0.00     0.034 A 
HETATM    2  C   UNL     1      59.473  -0.337  13.282  1.00  0.00    -0.058 A 
HETATM    3  C   UNL     1      58.608   1.913  13.613  1.00  0.00     0.030 A 
HETATM    4  C   UNL     1      57.151   0.023  13.907  1.00  0.00     0.030 A 
HETATM    5  C   UNL     1      58.207  -0.843  13.599  1.00  0.00     0.009 A 
HETATM    6  C   UNL     1      59.667   1.048  13.314  1.00  0.00     0.009 A 
ENDROOT
BRANCH   1   7
HETATM    7  N   UNL     1      56.219   2.227  14.160  1.00  0.00    -0.328 N 
HETATM    8  C   UNL     1      55.536   3.017  13.254  1.00  0.00     0.218 C 
HETATM    9  O   UNL     1      55.755   3.112  12.049  1.00  0.00    -0.274 OA
HETATM   10  C   UNL     1      54.388   3.773  13.872  1.00  0.00     0.117 C 
HETATM   11  H   UNL     1      55.891   2.235  15.089  1.00  0.00     0.169 HD
ENDBRANCH   1   7
BRANCH   2  12
HETATM   12  C   UNL     1      60.617  -1.251  12.922  1.00  0.00     0.038 C 
BRANCH  12  13
HETATM   13  C   UNL     1      61.729  -0.588  12.102  1.00  0.00     0.000 C 
HETATM   14  C   UNL     1      63.098  -0.658  12.763  1.00  0.00     0.005 C 
ENDBRANCH  12  13
ENDBRANCH   2  12
TORSDOF 3
ENDMDL
MODEL 7
REMARK VINA RESULT:      -4.2      2.393      5.775
REMARK  3 active torsions:
REMARK  status: ('A' for Active; 'I' for Inactive)
REMARK       I    between atoms: C_1  and  N_2 
REMARK    1  A    between atoms: N_2  and  C_4 
REMARK    2  A    between atoms: C_5  and  C_11 
REMARK    3  A    between atoms: C_11  and  C_12 
ROOT
HETATM    1  C   UNL     1      62.968   7.880   3.353  1.00  0.00     0.034 A 
HETATM    2  C   UNL     1      65.326   7.924   4.909  1.00  0.00    -0.058 A 
HETATM    3  C   UNL     1      63.181   8.891   4.288  1.00  0.00     0.030 A 
HETATM    4  C   UNL     1      63.922   6.863   3.231  1.00  0.00     0.030 A 
HETATM    5  C   UNL     1      65.094   6.888   3.998  1.00  0.00     0.009 A 
HETATM    6  C   UNL     1      64.348   8.913   5.061  1.00  0.00     0.009 A 
ENDROOT
BRANCH   1   7
HETATM    7  N   UNL     1      61.835   7.821   2.513  1.00  0.00    -0.328 N 
HETATM    8  C   UNL     1      61.615   8.566   1.370  1.00  0.00     0.218 C 
HETATM    9  O   UNL     1      62.385   9.375   0.859  1.00  0.00    -0.274 OA
HETATM   10  C   UNL     1      60.294   8.263   0.710  1.00  0.00     0.117 C 
HETATM   11  H   UNL     1      61.129   7.184   2.770  1.00  0.00     0.169 HD
ENDBRANCH   1   7
BRANCH   2  12
HETATM   12  C   UNL     1      66.593   7.985   5.724  1.00  0.00     0.038 C 
BRANCH  12  13
HETATM   13  C   UNL     1      66.854   6.747   6.590  1.00  0.00     0.000 C 
HETATM   14  C   UNL     1      65.884   6.603   7.754  1.00  0.00     0.005 C 
ENDBRANCH  12  13
ENDBRANCH   2  12
TORSDOF 3
ENDMDL
MODEL 8
REMARK VINA RESULT:      -4.0      2.196      5.933
REMARK  3 active torsions:
REMARK  status: ('A' for Active; 'I' for Inactive)
REMARK       I    between atoms: C_1  and  N_2 
REMARK    1  A    between atoms: N_2  and  C_4 
REMARK    2  A    between atoms: C_5  and  C_11 
REMARK    3  A    between atoms: C_11  and  C_12 
ROOT
HETATM    1  C   UNL     1      63.718   8.331   4.743  1.00  0.00     0.034 A 
HETATM    2  C   UNL     1      65.141   6.869   6.698  1.00  0.00    -0.058 A 
HETATM    3  C   UNL     1      65.050   8.630   5.022  1.00  0.00     0.030 A 
HETATM    4  C   UNL     1      63.085   7.323   5.481  1.00  0.00     0.030 A 
HETATM    5  C   UNL     1      63.793   6.594   6.446  1.00  0.00     0.009 A 
HETATM    6  C   UNL     1      65.756   7.908   5.991  1.00  0.00     0.009 A 
ENDROOT
BRANCH   1   7
HETATM    7  N   UNL     1      62.961   8.991   3.752  1.00  0.00    -0.328 N 
HETATM    8  C   UNL     1      62.688   8.529   2.478  1.00  0.00     0.218 C 
HETATM    9  O   UNL     1      63.017   7.445   2.001  1.00  0.00    -0.274 OA
HETATM   10  C   UNL     1      61.856   9.487   1.664  1.00  0.00     0.117 C 
HETATM   11  H   UNL     1      62.591   9.871   3.992  1.00  0.00     0.169 HD
ENDBRANCH   1   7
BRANCH   2  12
HETATM   12  C   UNL     1      65.928   6.078   7.712  1.00  0.00     0.038 C 
BRANCH  12  13
HETATM   13  C   UNL     1      67.394   5.836   7.335  1.00  0.00     0.000 C 
HETATM   14  C   UNL     1      67.583   4.730   6.306  1.00  0.00     0.005 C 
ENDBRANCH  12  13
ENDBRANCH   2  12
TORSDOF 3
ENDMDL
MODEL 9
REMARK VINA RESULT:      -3.7      2.711      5.757
REMARK  3 active torsions:
REMARK  status: ('A' for Active; 'I' for Inactive)
REMARK       I    between atoms: C_1  and  N_2 
REMARK    1  A    between atoms: N_2  and  C_4 
REMARK    2  A    between atoms: C_5  and  C_11 
REMARK    3  A    between atoms: C_11  and  C_12 
ROOT
HETATM    1  C   UNL     1      63.306   7.851   3.945  1.00  0.00     0.034 A 
HETATM    2  C   UNL     1      65.999   7.599   4.762  1.00  0.00    -0.058 A 
HETATM    3  C   UNL     1      63.848   8.728   4.883  1.00  0.00     0.030 A 
HETATM    4  C   UNL     1      64.108   6.816   3.450  1.00  0.00     0.030 A 
HETATM    5  C   UNL     1      65.445   6.695   3.850  1.00  0.00     0.009 A 
HETATM    6  C   UNL     1      65.180   8.604   5.290  1.00  0.00     0.009 A 
ENDROOT
BRANCH   1   7
HETATM    7  N   UNL     1      61.984   7.946   3.461  1.00  0.00    -0.328 N 
HETATM    8  C   UNL     1      60.871   7.302   3.968  1.00  0.00     0.218 C 
HETATM    9  O   UNL     1      60.829   6.572   4.955  1.00  0.00    -0.274 OA
HETATM   10  C   UNL     1      59.607   7.615   3.209  1.00  0.00     0.117 C 
HETATM   11  H   UNL     1      61.841   8.530   2.681  1.00  0.00     0.169 HD
ENDBRANCH   1   7
BRANCH   2  12
HETATM   12  C   UNL     1      67.443   7.503   5.186  1.00  0.00     0.038 C 
BRANCH  12  13
HETATM   13  C   UNL     1      67.768   6.299   6.076  1.00  0.00     0.000 C 
HETATM   14  C   UNL     1      67.171   6.395   7.473  1.00  0.00     0.005 C 
ENDBRANCH  12  13
ENDBRANCH   2  12
TORSDOF 3
ENDMDL
