MODEL 1
REMARK VINA RESULT:      -5.5      0.000      0.000
REMARK  1 active torsions:
REMARK  status: ('A' for Active; 'I' for Inactive)
REMARK    1  A    between atoms: C_2  and  O_10 
ROOT
HETATM    1  C   UNL     1      62.637   9.817   4.075  1.00  0.00     0.080 A 
HETATM    2  C   UNL     1      63.017   9.666   5.404  1.00  0.00     0.156 A 
HETATM    3  N   UNL     1      63.491   8.542   5.957  1.00  0.00    -0.332 N 
ATOM      4  HN  UNL     1      63.754   8.479   6.940  1.00  0.00     0.168 HD
HETATM    5  N   UNL     1      63.256   7.515   3.813  1.00  0.00    -0.351 N 
ATOM      6  HN  UNL     1      63.360   6.681   3.234  1.00  0.00     0.166 HD
HETATM    7  C   UNL     1      63.590   7.510   5.113  1.00  0.00     0.182 A 
HETATM    8  C   UNL     1      62.135  10.994   3.482  1.00  0.00     0.133 A 
HETATM    9  C   UNL     1      62.781   8.660   3.306  1.00  0.00     0.050 A 
HETATM   10  F   UNL     1      62.004  12.122   4.196  1.00  0.00    -0.205 F 
HETATM   11  C   UNL     1      61.892   9.869   1.380  1.00  0.00     0.005 A 
HETATM   12  C   UNL     1      61.762  11.021   2.144  1.00  0.00     0.043 A 
HETATM   13  C   UNL     1      62.405   8.707   1.967  1.00  0.00     0.030 A 
ENDROOT
BRANCH   2  14
HETATM   14  O   UNL     1      62.918  10.682   6.299  1.00  0.00    -0.345 OA
HETATM   15  H   UNL     1      62.340  11.401   6.131  1.00  0.00     0.219 HD
ENDBRANCH   2  14
TORSDOF 1
ENDMDL
MODEL 2
REMARK VINA RESULT:      -5.4      1.350      1.655
REMARK  1 active torsions:
REMARK  status: ('A' for Active; 'I' for Inactive)
REMARK    1  A    between atoms: C_2  and  O_10 
ROOT
HETATM    1  C   UNL     1      62.364   9.985   3.322  1.00  0.00     0.080 A 
HETATM    2  C   UNL     1      62.468  10.772   4.463  1.00  0.00     0.156 A 
HETATM    3  N   UNL     1      62.889  10.353   5.663  1.00  0.00    -0.332 N 
ATOM      4  HN  UNL     1      62.945  10.969   6.475  1.00  0.00     0.168 HD
HETATM    5  N   UNL     1      63.173   8.189   4.690  1.00  0.00    -0.351 N 
ATOM      6  HN  UNL     1      63.449   7.215   4.809  1.00  0.00     0.166 HD
HETATM    7  C   UNL     1      63.228   9.061   5.710  1.00  0.00     0.182 A 
HETATM    8  C   UNL     1      61.921  10.415   2.053  1.00  0.00     0.133 A 
HETATM    9  C   UNL     1      62.739   8.654   3.511  1.00  0.00     0.050 A 
HETATM   10  F   UNL     1      61.571  11.692   1.844  1.00  0.00    -0.205 F 
HETATM   11  C   UNL     1      62.194   8.202   1.174  1.00  0.00     0.005 A 
HETATM   12  C   UNL     1      61.832   9.530   0.986  1.00  0.00     0.043 A 
HETATM   13  C   UNL     1      62.648   7.783   2.429  1.00  0.00     0.030 A 
ENDROOT
BRANCH   2  14
HETATM   14  O   UNL     1      62.119  12.085   4.466  1.00  0.00    -0.345 OA
HETATM   15  H   UNL     1      61.991  12.537   3.655  1.00  0.00     0.219 HD
ENDBRANCH   2  14
TORSDOF 1
ENDMDL
MODEL 3
REMARK VINA RESULT:      -5.4      2.150      3.052
REMARK  1 active torsions:
REMARK  status: ('A' for Active; 'I' for Inactive)
REMARK    1  A    between atoms: C_2  and  O_10 
ROOT
HETATM    1  C   UNL     1      62.514   9.608   3.312  1.00  0.00     0.080 A 
HETATM    2  C   UNL     1      62.081  10.897   3.600  1.00  0.00     0.156 A 
HETATM    3  N   UNL     1      62.326  11.567   4.733  1.00  0.00    -0.332 N 
ATOM      4  HN  UNL     1      61.983  12.513   4.900  1.00  0.00     0.168 HD
HETATM    5  N   UNL     1      63.534   9.647   5.482  1.00  0.00    -0.351 N 
ATOM      6  HN  UNL     1      64.085   9.200   6.216  1.00  0.00     0.166 HD
HETATM    7  C   UNL     1      63.057  10.893   5.627  1.00  0.00     0.182 A 
HETATM    8  C   UNL     1      62.261   8.891   2.123  1.00  0.00     0.133 A 
HETATM    9  C   UNL     1      63.258   9.014   4.334  1.00  0.00     0.050 A 
HETATM   10  F   UNL     1      61.563   9.446   1.122  1.00  0.00    -0.205 F 
HETATM   11  C   UNL     1      63.454   6.995   2.975  1.00  0.00     0.005 A 
HETATM   12  C   UNL     1      62.724   7.592   1.956  1.00  0.00     0.043 A 
HETATM   13  C   UNL     1      63.717   7.714   4.147  1.00  0.00     0.030 A 
ENDROOT
BRANCH   2  14
HETATM   14  O   UNL     1      61.323  11.612   2.729  1.00  0.00    -0.345 OA
HETATM   15  H   UNL     1      61.622  11.748   1.851  1.00  0.00     0.219 HD
ENDBRANCH   2  14
TORSDOF 1
ENDMDL
MODEL 4
REMARK VINA RESULT:      -5.2      2.364      3.380
REMARK  1 active torsions:
REMARK  status: ('A' for Active; 'I' for Inactive)
REMARK    1  A    between atoms: C_2  and  O_10 
ROOT
HETATM    1  C   UNL     1      63.851   9.362   4.769  1.00  0.00     0.080 A 
HETATM    2  C   UNL     1      63.577  10.617   5.299  1.00  0.00     0.156 A 
HETATM    3  N   UNL     1      62.576  11.422   4.920  1.00  0.00    -0.332 N 
ATOM      4  HN  UNL     1      62.417  12.339   5.337  1.00  0.00     0.168 HD
HETATM    5  N   UNL     1      61.953   9.732   3.350  1.00  0.00    -0.351 N 
ATOM      6  HN  UNL     1      61.319   9.424   2.613  1.00  0.00     0.166 HD
HETATM    7  C   UNL     1      61.802  10.923   3.951  1.00  0.00     0.182 A 
HETATM    8  C   UNL     1      64.903   8.506   5.158  1.00  0.00     0.133 A 
HETATM    9  C   UNL     1      62.973   8.965   3.757  1.00  0.00     0.050 A 
HETATM   10  F   UNL     1      65.748   8.857   6.139  1.00  0.00    -0.205 F 
HETATM   11  C   UNL     1      64.233   6.886   3.523  1.00  0.00     0.005 A 
HETATM   12  C   UNL     1      65.097   7.278   4.538  1.00  0.00     0.043 A 
HETATM   13  C   UNL     1      63.181   7.730   3.150  1.00  0.00     0.030 A 
ENDROOT
BRANCH   2  14
HETATM   14  O   UNL     1      64.346  11.170   6.272  1.00  0.00    -0.345 OA
HETATM   15  H   UNL     1      64.179  12.047   6.559  1.00  0.00     0.219 HD
ENDBRANCH   2  14
TORSDOF 1
ENDMDL
MODEL 5
REMARK VINA RESULT:      -5.1      2.324      3.042
REMARK  1 active torsions:
REMARK  status: ('A' for Active; 'I' for Inactive)
REMARK    1  A    between atoms: C_2  and  O_10 
ROOT
HETATM    1  C   UNL     1      62.785   9.060   3.531  1.00  0.00     0.080 A 
HETATM    2  C   UNL     1      63.045   9.606   4.782  1.00  0.00     0.156 A 
HETATM    3  N   UNL     1      62.694  10.835   5.184  1.00  0.00    -0.332 N 
ATOM      4  HN  UNL     1      62.911  11.194   6.114  1.00  0.00     0.168 HD
HETATM    5  N   UNL     1      61.723  11.150   3.024  1.00  0.00    -0.351 N 
ATOM      6  HN  UNL     1      61.219  11.760   2.380  1.00  0.00     0.166 HD
HETATM    7  C   UNL     1      62.036  11.550   4.267  1.00  0.00     0.182 A 
HETATM    8  C   UNL     1      63.151   7.769   3.094  1.00  0.00     0.133 A 
HETATM    9  C   UNL     1      62.101   9.916   2.665  1.00  0.00     0.050 A 
HETATM   10  F   UNL     1      63.793   6.923   3.913  1.00  0.00    -0.205 F 
HETATM   11  C   UNL     1      62.190   8.190   0.939  1.00  0.00     0.005 A 
HETATM   12  C   UNL     1      62.859   7.336   1.807  1.00  0.00     0.043 A 
HETATM   13  C   UNL     1      61.814   9.464   1.380  1.00  0.00     0.030 A 
ENDROOT
BRANCH   2  14
HETATM   14  O   UNL     1      63.724   8.922   5.738  1.00  0.00    -0.345 OA
HETATM   15  H   UNL     1      63.817   9.285   6.597  1.00  0.00     0.219 HD
ENDBRANCH   2  14
TORSDOF 1
ENDMDL
MODEL 6
REMARK VINA RESULT:      -5.0      1.959      3.302
REMARK  1 active torsions:
REMARK  status: ('A' for Active; 'I' for Inactive)
REMARK    1  A    between atoms: C_2  and  O_10 
ROOT
HETATM    1  C   UNL     1      62.750   9.505   3.729  1.00  0.00     0.080 A 
HETATM    2  C   UNL     1      61.950  10.528   3.234  1.00  0.00     0.156 A 
HETATM    3  N   UNL     1      61.324  10.524   2.050  1.00  0.00    -0.332 N 
ATOM      4  HN  UNL     1      60.749  11.302   1.727  1.00  0.00     0.168 HD
HETATM    5  N   UNL     1      62.263   8.359   1.680  1.00  0.00    -0.351 N 
ATOM      6  HN  UNL     1      62.361   7.548   1.068  1.00  0.00     0.166 HD
HETATM    7  C   UNL     1      61.516   9.417   1.327  1.00  0.00     0.182 A 
HETATM    8  C   UNL     1      63.415   9.498   4.974  1.00  0.00     0.133 A 
HETATM    9  C   UNL     1      62.875   8.411   2.870  1.00  0.00     0.050 A 
HETATM   10  F   UNL     1      63.296  10.530   5.822  1.00  0.00    -0.205 F 
HETATM   11  C   UNL     1      64.349   7.343   4.498  1.00  0.00     0.005 A 
HETATM   12  C   UNL     1      64.213   8.427   5.356  1.00  0.00     0.043 A 
HETATM   13  C   UNL     1      63.675   7.345   3.272  1.00  0.00     0.030 A 
ENDROOT
BRANCH   2  14
HETATM   14  O   UNL     1      61.741  11.677   3.926  1.00  0.00    -0.345 OA
HETATM   15  H   UNL     1      62.398  11.996   4.514  1.00  0.00     0.219 HD
ENDBRANCH   2  14
TORSDOF 1
ENDMDL
MODEL 7
REMARK VINA RESULT:      -4.9      2.197      2.856
REMARK  1 active torsions:
REMARK  status: ('A' for Active; 'I' for Inactive)
REMARK    1  A    between atoms: C_2  and  O_10 
ROOT
HETATM    1  C   UNL     1      62.672   9.010   3.135  1.00  0.00     0.080 A 
HETATM    2  C   UNL     1      63.133   7.700   3.189  1.00  0.00     0.156 A 
HETATM    3  N   UNL     1      63.567   7.071   4.289  1.00  0.00    -0.332 N 
ATOM      4  HN  UNL     1      63.900   6.108   4.279  1.00  0.00     0.168 HD
HETATM    5  N   UNL     1      63.111   9.085   5.491  1.00  0.00    -0.351 N 
ATOM      6  HN  UNL     1      63.113   9.584   6.381  1.00  0.00     0.166 HD
HETATM    7  C   UNL     1      63.527   7.812   5.401  1.00  0.00     0.182 A 
HETATM    8  C   UNL     1      62.215   9.684   1.982  1.00  0.00     0.133 A 
HETATM    9  C   UNL     1      62.692   9.674   4.363  1.00  0.00     0.050 A 
HETATM   10  F   UNL     1      62.170   9.062   0.795  1.00  0.00    -0.205 F 
HETATM   11  C   UNL     1      61.830  11.674   3.260  1.00  0.00     0.005 A 
HETATM   12  C   UNL     1      61.799  11.008   2.042  1.00  0.00     0.043 A 
HETATM   13  C   UNL     1      62.269  10.999   4.404  1.00  0.00     0.030 A 
ENDROOT
BRANCH   2  14
HETATM   14  O   UNL     1      63.207   6.917   2.082  1.00  0.00    -0.345 OA
HETATM   15  H   UNL     1      63.916   7.025   1.478  1.00  0.00     0.219 HD
ENDBRANCH   2  14
TORSDOF 1
ENDMDL
MODEL 8
REMARK VINA RESULT:      -4.6      2.444      3.273
REMARK  1 active torsions:
REMARK  status: ('A' for Active; 'I' for Inactive)
REMARK    1  A    between atoms: C_2  and  O_10 
ROOT
HETATM    1  C   UNL     1      62.568   8.890   2.998  1.00  0.00     0.080 A 
HETATM    2  C   UNL     1      62.885   7.555   2.775  1.00  0.00     0.156 A 
HETATM    3  N   UNL     1      62.825   6.926   1.594  1.00  0.00    -0.332 N 
ATOM      4  HN  UNL     1      63.064   5.942   1.480  1.00  0.00     0.168 HD
HETATM    5  N   UNL     1      62.085   8.993   0.652  1.00  0.00    -0.351 N 
ATOM      6  HN  UNL     1      61.786   9.513  -0.174  1.00  0.00     0.166 HD
HETATM    7  C   UNL     1      62.424   7.697   0.578  1.00  0.00     0.182 A 
HETATM    8  C   UNL     1      62.626   9.562   4.237  1.00  0.00     0.133 A 
HETATM    9  C   UNL     1      62.155   9.577   1.855  1.00  0.00     0.050 A 
HETATM   10  F   UNL     1      63.037   8.928   5.345  1.00  0.00    -0.205 F 
HETATM   11  C   UNL     1      61.836  11.581   3.214  1.00  0.00     0.005 A 
HETATM   12  C   UNL     1      62.260  10.898   4.347  1.00  0.00     0.043 A 
HETATM   13  C   UNL     1      61.795  10.915   1.984  1.00  0.00     0.030 A 
ENDROOT
BRANCH   2  14
HETATM   14  O   UNL     1      63.280   6.732   3.780  1.00  0.00    -0.345 OA
HETATM   15  H   UNL     1      64.122   6.847   4.176  1.00  0.00     0.219 HD
ENDBRANCH   2  14
TORSDOF 1
ENDMDL
MODEL 9
REMARK VINA RESULT:      -4.6      2.704      3.707
REMARK  1 active torsions:
REMARK  status: ('A' for Active; 'I' for Inactive)
REMARK    1  A    between atoms: C_2  and  O_10 
ROOT
HETATM    1  C   UNL     1      62.750   8.965   3.336  1.00  0.00     0.080 A 
HETATM    2  C   UNL     1      62.862   7.825   2.549  1.00  0.00     0.156 A 
HETATM    3  N   UNL     1      62.316   7.657   1.337  1.00  0.00    -0.332 N 
ATOM      4  HN  UNL     1      62.423   6.798   0.798  1.00  0.00     0.168 HD
HETATM    5  N   UNL     1      61.429   9.866   1.549  1.00  0.00    -0.351 N 
ATOM      6  HN  UNL     1      60.880  10.623   1.141  1.00  0.00     0.166 HD
HETATM    7  C   UNL     1      61.620   8.709   0.894  1.00  0.00     0.182 A 
HETATM    8  C   UNL     1      63.319   9.153   4.613  1.00  0.00     0.133 A 
HETATM    9  C   UNL     1      61.988   9.984   2.760  1.00  0.00     0.050 A 
HETATM   10  F   UNL     1      64.068   8.196   5.180  1.00  0.00    -0.205 F 
HETATM   11  C   UNL     1      62.352  11.341   4.757  1.00  0.00     0.005 A 
HETATM   12  C   UNL     1      63.119  10.331   5.322  1.00  0.00     0.043 A 
HETATM   13  C   UNL     1      61.802  11.158   3.483  1.00  0.00     0.030 A 
ENDROOT
BRANCH   2  14
HETATM   14  O   UNL     1      63.545   6.728   2.965  1.00  0.00    -0.345 OA
HETATM   15  H   UNL     1      63.900   6.698   3.833  1.00  0.00     0.219 HD
ENDBRANCH   2  14
TORSDOF 1
ENDMDL
