MODEL 1
REMARK VINA RESULT:      -4.6      0.000      0.000
REMARK  2 active torsions:
REMARK  status: ('A' for Active; 'I' for Inactive)
REMARK    1  A    between atoms: C_1  and  S_2 
REMARK    2  A    between atoms: S_2  and  N_9 
ROOT
HETATM    1  C   UNL     1      63.276   8.740   4.335  1.00  0.00     0.105 A 
HETATM    2  C   UNL     1      62.769  10.009   4.466  1.00  0.00     0.099 A 
HETATM    3  C   UNL     1      62.959   8.180   3.055  1.00  0.00     0.058 A 
HETATM    4  S   UNL     1      61.911  10.526   3.091  1.00  0.00    -0.064 SA
HETATM    5  C   UNL     1      62.218   9.057   2.305  1.00  0.00     0.077 A 
HETATM    6 CL   UNL     1      62.898  11.093   5.796  1.00  0.00    -0.075 Cl
HETATM    7 CL   UNL     1      61.612   8.796   0.721  1.00  0.00    -0.076 Cl
ENDROOT
BRANCH   1   8
HETATM    8  S   UNL     1      64.171   7.915   5.546  1.00  0.00     0.241 S 
HETATM    9  O   UNL     1      63.297   7.871   6.692  1.00  0.00    -0.206 OA
HETATM   10  O   UNL     1      64.684   6.725   4.912  1.00  0.00    -0.206 OA
BRANCH   8  11
HETATM   11  N   UNL     1      65.493   8.854   5.975  1.00  0.00    -0.225 NA
HETATM   12  H   UNL     1      65.186   9.809   6.162  1.00  0.00     0.136 HD
HETATM   13  H   UNL     1      66.170   8.857   5.213  1.00  0.00     0.136 HD
ENDBRANCH   8  11
ENDBRANCH   1   8
TORSDOF 2
ENDMDL
MODEL 2
REMARK VINA RESULT:      -4.6      1.075      1.307
REMARK  2 active torsions:
REMARK  status: ('A' for Active; 'I' for Inactive)
REMARK    1  A    between atoms: C_1  and  S_2 
REMARK    2  A    between atoms: S_2  and  N_9 
ROOT
HETATM    1  C   UNL     1      63.324   8.852   4.414  1.00  0.00     0.105 A 
HETATM    2  C   UNL     1      62.778  10.106   4.536  1.00  0.00     0.099 A 
HETATM    3  C   UNL     1      63.024   8.273   3.139  1.00  0.00     0.058 A 
HETATM    4  S   UNL     1      61.904  10.586   3.158  1.00  0.00    -0.064 SA
HETATM    5  C   UNL     1      62.256   9.121   2.384  1.00  0.00     0.077 A 
HETATM    6 CL   UNL     1      62.874  11.204   5.858  1.00  0.00    -0.075 Cl
HETATM    7 CL   UNL     1      61.657   8.828   0.802  1.00  0.00    -0.076 Cl
ENDROOT
BRANCH   1   8
HETATM    8  S   UNL     1      64.246   8.066   5.632  1.00  0.00     0.241 S 
HETATM    9  O   UNL     1      65.393   8.915   5.839  1.00  0.00    -0.206 OA
HETATM   10  O   UNL     1      63.313   7.746   6.684  1.00  0.00    -0.206 OA
BRANCH   8  11
HETATM   11  N   UNL     1      64.818   6.611   5.022  1.00  0.00    -0.225 NA
HETATM   12  H   UNL     1      65.794   6.488   5.296  1.00  0.00     0.136 HD
HETATM   13  H   UNL     1      64.750   6.618   4.005  1.00  0.00     0.136 HD
ENDBRANCH   8  11
ENDBRANCH   1   8
TORSDOF 2
ENDMDL
MODEL 3
REMARK VINA RESULT:      -4.1      2.010      2.303
REMARK  2 active torsions:
REMARK  status: ('A' for Active; 'I' for Inactive)
REMARK    1  A    between atoms: C_1  and  S_2 
REMARK    2  A    between atoms: S_2  and  N_9 
ROOT
HETATM    1  C   UNL     1      63.190   8.268   4.758  1.00  0.00     0.105 A 
HETATM    2  C   UNL     1      62.073   7.600   4.321  1.00  0.00     0.099 A 
HETATM    3  C   UNL     1      63.203   9.624   4.295  1.00  0.00     0.058 A 
HETATM    4  S   UNL     1      61.058   8.564   3.355  1.00  0.00    -0.064 SA
HETATM    5  C   UNL     1      62.101   9.888   3.522  1.00  0.00     0.077 A 
HETATM    6 CL   UNL     1      61.598   5.974   4.624  1.00  0.00    -0.075 Cl
HETATM    7 CL   UNL     1      61.721  11.375   2.753  1.00  0.00    -0.076 Cl
ENDROOT
BRANCH   1   8
HETATM    8  S   UNL     1      64.424   7.577   5.733  1.00  0.00     0.241 S 
HETATM    9  O   UNL     1      63.795   7.321   7.005  1.00  0.00    -0.206 OA
HETATM   10  O   UNL     1      65.016   6.534   4.932  1.00  0.00    -0.206 OA
BRANCH   8  11
HETATM   11  N   UNL     1      65.613   8.729   5.998  1.00  0.00    -0.225 NA
HETATM   12  H   UNL     1      65.250   9.458   6.614  1.00  0.00     0.136 HD
HETATM   13  H   UNL     1      65.890   9.143   5.109  1.00  0.00     0.136 HD
ENDBRANCH   8  11
ENDBRANCH   1   8
TORSDOF 2
ENDMDL
MODEL 4
REMARK VINA RESULT:      -4.0      2.395      2.763
REMARK  2 active torsions:
REMARK  status: ('A' for Active; 'I' for Inactive)
REMARK    1  A    between atoms: C_1  and  S_2 
REMARK    2  A    between atoms: S_2  and  N_9 
ROOT
HETATM    1  C   UNL     1      63.911   8.046   4.049  1.00  0.00     0.105 A 
HETATM    2  C   UNL     1      64.052   6.868   3.359  1.00  0.00     0.099 A 
HETATM    3  C   UNL     1      62.938   8.899   3.435  1.00  0.00     0.058 A 
HETATM    4  S   UNL     1      63.054   6.780   1.985  1.00  0.00    -0.064 SA
HETATM    5  C   UNL     1      62.417   8.316   2.308  1.00  0.00     0.077 A 
HETATM    6 CL   UNL     1      65.072   5.525   3.706  1.00  0.00    -0.075 Cl
HETATM    7 CL   UNL     1      61.237   8.988   1.259  1.00  0.00    -0.076 Cl
ENDROOT
BRANCH   1   8
HETATM    8  S   UNL     1      64.789   8.458   5.467  1.00  0.00     0.241 S 
HETATM    9  O   UNL     1      64.516   9.858   5.681  1.00  0.00    -0.206 OA
HETATM   10  O   UNL     1      64.462   7.444   6.439  1.00  0.00    -0.206 OA
BRANCH   8  11
HETATM   11  N   UNL     1      66.430   8.323   5.147  1.00  0.00    -0.225 NA
HETATM   12  H   UNL     1      66.694   7.337   5.139  1.00  0.00     0.136 HD
HETATM   13  H   UNL     1      66.959   8.810   5.869  1.00  0.00     0.136 HD
ENDBRANCH   8  11
ENDBRANCH   1   8
TORSDOF 2
ENDMDL
MODEL 5
REMARK VINA RESULT:      -4.0      3.206      4.566
REMARK  2 active torsions:
REMARK  status: ('A' for Active; 'I' for Inactive)
REMARK    1  A    between atoms: C_1  and  S_2 
REMARK    2  A    between atoms: S_2  and  N_9 
ROOT
HETATM    1  C   UNL     1      63.195   8.769   3.807  1.00  0.00     0.105 A 
HETATM    2  C   UNL     1      63.562   7.571   3.244  1.00  0.00     0.099 A 
HETATM    3  C   UNL     1      64.053   9.118   4.899  1.00  0.00     0.058 A 
HETATM    4  S   UNL     1      64.901   6.859   4.014  1.00  0.00    -0.064 SA
HETATM    5  C   UNL     1      65.006   8.153   5.103  1.00  0.00     0.077 A 
HETATM    6 CL   UNL     1      62.862   6.744   1.907  1.00  0.00    -0.075 Cl
HETATM    7 CL   UNL     1      66.227   8.155   6.309  1.00  0.00    -0.076 Cl
ENDROOT
BRANCH   1   8
HETATM    8  S   UNL     1      61.873   9.732   3.281  1.00  0.00     0.241 S 
HETATM    9  O   UNL     1      61.773  10.792   4.253  1.00  0.00    -0.206 OA
HETATM   10  O   UNL     1      62.104   9.980   1.879  1.00  0.00    -0.206 OA
BRANCH   8  11
HETATM   11  N   UNL     1      60.465   8.827   3.397  1.00  0.00    -0.225 NA
HETATM   12  H   UNL     1      60.537   8.008   2.793  1.00  0.00     0.136 HD
HETATM   13  H   UNL     1      59.671   9.395   3.104  1.00  0.00     0.136 HD
ENDBRANCH   8  11
ENDBRANCH   1   8
TORSDOF 2
ENDMDL
MODEL 6
REMARK VINA RESULT:      -4.0      2.731      3.308
REMARK  2 active torsions:
REMARK  status: ('A' for Active; 'I' for Inactive)
REMARK    1  A    between atoms: C_1  and  S_2 
REMARK    2  A    between atoms: S_2  and  N_9 
ROOT
HETATM    1  C   UNL     1      65.042   7.932   4.851  1.00  0.00     0.105 A 
HETATM    2  C   UNL     1      64.636   7.113   3.825  1.00  0.00     0.099 A 
HETATM    3  C   UNL     1      64.144   9.033   5.027  1.00  0.00     0.058 A 
HETATM    4  S   UNL     1      63.214   7.656   3.068  1.00  0.00    -0.064 SA
HETATM    5  C   UNL     1      63.124   8.986   4.112  1.00  0.00     0.077 A 
HETATM    6 CL   UNL     1      65.363   5.665   3.244  1.00  0.00    -0.075 Cl
HETATM    7 CL   UNL     1      61.837  10.110   3.952  1.00  0.00    -0.076 Cl
ENDROOT
BRANCH   1   8
HETATM    8  S   UNL     1      66.449   7.680   5.803  1.00  0.00     0.241 S 
HETATM    9  O   UNL     1      66.545   8.847   6.644  1.00  0.00    -0.206 OA
HETATM   10  O   UNL     1      66.328   6.345   6.335  1.00  0.00    -0.206 OA
BRANCH   8  11
HETATM   11  N   UNL     1      67.792   7.690   4.799  1.00  0.00    -0.225 NA
HETATM   12  H   UNL     1      68.031   8.653   4.559  1.00  0.00     0.136 HD
HETATM   13  H   UNL     1      67.584   7.170   3.947  1.00  0.00     0.136 HD
ENDBRANCH   8  11
ENDBRANCH   1   8
TORSDOF 2
ENDMDL
MODEL 7
REMARK VINA RESULT:      -3.9      2.225      2.645
REMARK  2 active torsions:
REMARK  status: ('A' for Active; 'I' for Inactive)
REMARK    1  A    between atoms: C_1  and  S_2 
REMARK    2  A    between atoms: S_2  and  N_9 
ROOT
HETATM    1  C   UNL     1      63.348   8.389   4.868  1.00  0.00     0.105 A 
HETATM    2  C   UNL     1      62.307   7.660   4.350  1.00  0.00     0.099 A 
HETATM    3  C   UNL     1      63.279   9.761   4.464  1.00  0.00     0.058 A 
HETATM    4  S   UNL     1      61.265   8.590   3.378  1.00  0.00    -0.064 SA
HETATM    5  C   UNL     1      62.196   9.979   3.651  1.00  0.00     0.077 A 
HETATM    6 CL   UNL     1      61.943   5.992   4.561  1.00  0.00    -0.075 Cl
HETATM    7 CL   UNL     1      61.738  11.467   2.929  1.00  0.00    -0.076 Cl
ENDROOT
BRANCH   1   8
HETATM    8  S   UNL     1      64.587   7.747   5.870  1.00  0.00     0.241 S 
HETATM    9  O   UNL     1      65.579   8.791   5.953  1.00  0.00    -0.206 OA
HETATM   10  O   UNL     1      63.916   7.217   7.031  1.00  0.00    -0.206 OA
BRANCH   8  11
HETATM   11  N   UNL     1      65.304   6.452   5.081  1.00  0.00    -0.225 NA
HETATM   12  H   UNL     1      64.586   5.901   4.610  1.00  0.00     0.136 HD
HETATM   13  H   UNL     1      65.790   5.867   5.760  1.00  0.00     0.136 HD
ENDBRANCH   8  11
ENDBRANCH   1   8
TORSDOF 2
ENDMDL
MODEL 8
REMARK VINA RESULT:      -3.8      2.259      3.060
REMARK  2 active torsions:
REMARK  status: ('A' for Active; 'I' for Inactive)
REMARK    1  A    between atoms: C_1  and  S_2 
REMARK    2  A    between atoms: S_2  and  N_9 
ROOT
HETATM    1  C   UNL     1      62.595   8.571   3.704  1.00  0.00     0.105 A 
HETATM    2  C   UNL     1      62.477   8.025   2.449  1.00  0.00     0.099 A 
HETATM    3  C   UNL     1      62.316   9.976   3.691  1.00  0.00     0.058 A 
HETATM    4  S   UNL     1      62.056   9.170   1.264  1.00  0.00    -0.064 SA
HETATM    5  C   UNL     1      62.020  10.406   2.423  1.00  0.00     0.077 A 
HETATM    6 CL   UNL     1      62.691   6.390   1.957  1.00  0.00    -0.075 Cl
HETATM    7 CL   UNL     1      61.638  12.009   1.946  1.00  0.00    -0.076 Cl
ENDROOT
BRANCH   1   8
HETATM    8  S   UNL     1      63.028   7.693   5.115  1.00  0.00     0.241 S 
HETATM    9  O   UNL     1      64.272   7.044   4.784  1.00  0.00    -0.206 OA
HETATM   10  O   UNL     1      62.903   8.625   6.209  1.00  0.00    -0.206 OA
BRANCH   8  11
HETATM   11  N   UNL     1      61.896   6.482   5.367  1.00  0.00    -0.225 NA
HETATM   12  H   UNL     1      62.352   5.571   5.303  1.00  0.00     0.136 HD
HETATM   13  H   UNL     1      61.165   6.546   4.660  1.00  0.00     0.136 HD
ENDBRANCH   8  11
ENDBRANCH   1   8
TORSDOF 2
ENDMDL
MODEL 9
REMARK VINA RESULT:      -3.7      3.245      4.152
REMARK  2 active torsions:
REMARK  status: ('A' for Active; 'I' for Inactive)
REMARK    1  A    between atoms: C_1  and  S_2 
REMARK    2  A    between atoms: S_2  and  N_9 
ROOT
HETATM    1  C   UNL     1      65.686   7.360   5.530  1.00  0.00     0.105 A 
HETATM    2  C   UNL     1      64.789   6.558   6.192  1.00  0.00     0.099 A 
HETATM    3  C   UNL     1      65.040   8.499   4.950  1.00  0.00     0.058 A 
HETATM    4  S   UNL     1      63.193   7.140   6.111  1.00  0.00    -0.064 SA
HETATM    5  C   UNL     1      63.691   8.477   5.197  1.00  0.00     0.077 A 
HETATM    6 CL   UNL     1      65.076   5.099   7.058  1.00  0.00    -0.075 Cl
HETATM    7 CL   UNL     1      62.535   9.633   4.678  1.00  0.00    -0.076 Cl
ENDROOT
BRANCH   1   8
HETATM    8  S   UNL     1      67.370   7.044   5.403  1.00  0.00     0.241 S 
HETATM    9  O   UNL     1      67.461   5.770   4.734  1.00  0.00    -0.206 OA
HETATM   10  O   UNL     1      67.954   8.249   4.867  1.00  0.00    -0.206 OA
BRANCH   8  11
HETATM   11  N   UNL     1      67.999   6.835   6.944  1.00  0.00    -0.225 NA
HETATM   12  H   UNL     1      68.888   6.336   6.883  1.00  0.00     0.136 HD
HETATM   13  H   UNL     1      67.345   6.294   7.508  1.00  0.00     0.136 HD
ENDBRANCH   8  11
ENDBRANCH   1   8
TORSDOF 2
ENDMDL
