MODEL 1
REMARK VINA RESULT:      -5.5      0.000      0.000
REMARK  5 active torsions:
REMARK  status: ('A' for Active; 'I' for Inactive)
REMARK    1  A    between atoms: C_3  and  C_8 
REMARK    2  A    between atoms: C_5  and  C_15 
REMARK    3  A    between atoms: C_15  and  C_18 
REMARK    4  A    between atoms: O_16  and  C_17 
REMARK    5  A    between atoms: C_17  and  C_18 
ROOT
HETATM    1  N   UNL     1      64.239   6.485   4.586  1.00  0.00    -0.344 N 
ATOM      2  HN  UNL     1      64.464   5.689   3.988  1.00  0.00     0.167 HD
HETATM    3  N   UNL     1      64.076   7.835   6.338  1.00  0.00    -0.344 N 
HETATM    4  C   UNL     1      64.494   6.612   5.871  1.00  0.00     0.082 A 
HETATM    5  C   UNL     1      63.609   7.646   4.218  1.00  0.00     0.061 A 
HETATM    6  C   UNL     1      63.488   8.511   5.298  1.00  0.00     0.060 A 
HETATM    7  C   UNL     1      62.463   9.272   2.839  1.00  0.00     0.050 A 
HETATM    8  C   UNL     1      63.098   8.023   2.971  1.00  0.00     0.048 A 
HETATM    9  C   UNL     1      62.874   9.762   5.211  1.00  0.00     0.032 A 
HETATM   10  C   UNL     1      62.362  10.122   3.957  1.00  0.00     0.018 A 
HETATM   11  H   UNL     1      64.180   8.169   7.258  1.00  0.00     0.167 HD
ENDROOT
BRANCH   4  12
HETATM   12  C   UNL     1      65.102   5.573   6.746  1.00  0.00     0.078 C 
BRANCH  12  13
HETATM   13  C   UNL     1      66.591   5.836   6.991  1.00  0.00     0.033 C 
BRANCH  13  14
HETATM   14  C   UNL     1      66.880   6.832   8.110  1.00  0.00     0.164 C 
BRANCH  14  15
HETATM   15  O   UNL     1      66.944   8.154   7.597  1.00  0.00    -0.401 OA
HETATM   16  H   UNL     1      66.047   8.518   7.526  1.00  0.00     0.209 HD
ENDBRANCH  14  15
ENDBRANCH  13  14
ENDBRANCH  12  13
ENDBRANCH   4  12
BRANCH   7  17
HETATM   17  C   UNL     1      61.889   9.695   1.511  1.00  0.00     0.417 C 
HETATM   18  F   UNL     1      60.651   9.184   1.261  1.00  0.00    -0.166 F 
HETATM   19  F   UNL     1      61.761  11.047   1.407  1.00  0.00    -0.166 F 
HETATM   20  F   UNL     1      62.668   9.312   0.462  1.00  0.00    -0.166 F 
ENDBRANCH   7  17
TORSDOF 5
ENDMDL
MODEL 2
REMARK VINA RESULT:      -5.3      1.666      2.562
REMARK  5 active torsions:
REMARK  status: ('A' for Active; 'I' for Inactive)
REMARK    1  A    between atoms: C_3  and  C_8 
REMARK    2  A    between atoms: C_5  and  C_15 
REMARK    3  A    between atoms: C_15  and  C_18 
REMARK    4  A    between atoms: O_16  and  C_17 
REMARK    5  A    between atoms: C_17  and  C_18 
ROOT
HETATM    1  N   UNL     1      66.009   7.871   6.007  1.00  0.00    -0.344 N 
ATOM      2  HN  UNL     1      66.247   8.487   6.785  1.00  0.00     0.167 HD
HETATM    3  N   UNL     1      65.995   6.171   4.583  1.00  0.00    -0.344 N 
HETATM    4  C   UNL     1      66.610   6.751   5.667  1.00  0.00     0.082 A 
HETATM    5  C   UNL     1      64.997   8.037   5.097  1.00  0.00     0.061 A 
HETATM    6  C   UNL     1      64.966   6.988   4.188  1.00  0.00     0.060 A 
HETATM    7  C   UNL     1      63.124   9.042   3.938  1.00  0.00     0.050 A 
HETATM    8  C   UNL     1      64.068   9.078   4.982  1.00  0.00     0.048 A 
HETATM    9  C   UNL     1      64.043   6.907   3.144  1.00  0.00     0.032 A 
HETATM   10  C   UNL     1      63.124   7.960   3.038  1.00  0.00     0.018 A 
HETATM   11  H   UNL     1      66.249   5.317   4.163  1.00  0.00     0.167 HD
ENDROOT
BRANCH   4  12
HETATM   12  C   UNL     1      67.826   6.184   6.310  1.00  0.00     0.078 C 
BRANCH  12  13
HETATM   13  C   UNL     1      67.474   5.267   7.485  1.00  0.00     0.033 C 
BRANCH  13  14
HETATM   14  C   UNL     1      67.627   5.914   8.859  1.00  0.00     0.164 C 
BRANCH  14  15
HETATM   15  O   UNL     1      67.417   7.316   8.777  1.00  0.00    -0.401 OA
HETATM   16  H   UNL     1      66.677   7.497   8.176  1.00  0.00     0.209 HD
ENDBRANCH  14  15
ENDBRANCH  13  14
ENDBRANCH  12  13
ENDBRANCH   4  12
BRANCH   7  17
HETATM   17  C   UNL     1      62.124  10.159   3.782  1.00  0.00     0.417 C 
HETATM   18  F   UNL     1      62.251  11.144   4.714  1.00  0.00    -0.166 F 
HETATM   19  F   UNL     1      62.222  10.778   2.572  1.00  0.00    -0.166 F 
HETATM   20  F   UNL     1      60.837   9.722   3.874  1.00  0.00    -0.166 F 
ENDBRANCH   7  17
TORSDOF 5
ENDMDL
MODEL 3
REMARK VINA RESULT:      -5.1      3.636      4.074
REMARK  5 active torsions:
REMARK  status: ('A' for Active; 'I' for Inactive)
REMARK    1  A    between atoms: C_3  and  C_8 
REMARK    2  A    between atoms: C_5  and  C_15 
REMARK    3  A    between atoms: C_15  and  C_18 
REMARK    4  A    between atoms: O_16  and  C_17 
REMARK    5  A    between atoms: C_17  and  C_18 
ROOT
HETATM    1  N   UNL     1      60.334   6.198   5.104  1.00  0.00    -0.344 N 
ATOM      2  HN  UNL     1      59.464   5.792   4.759  1.00  0.00     0.167 HD
HETATM    3  N   UNL     1      62.101   6.657   6.363  1.00  0.00    -0.344 N 
HETATM    4  C   UNL     1      60.928   5.950   6.252  1.00  0.00     0.082 A 
HETATM    5  C   UNL     1      61.129   7.117   4.469  1.00  0.00     0.061 A 
HETATM    6  C   UNL     1      62.244   7.428   5.237  1.00  0.00     0.060 A 
HETATM    7  C   UNL     1      61.901   8.682   2.790  1.00  0.00     0.050 A 
HETATM    8  C   UNL     1      60.949   7.742   3.230  1.00  0.00     0.048 A 
HETATM    9  C   UNL     1      63.217   8.346   4.837  1.00  0.00     0.032 A 
HETATM   10  C   UNL     1      63.019   8.968   3.597  1.00  0.00     0.018 A 
HETATM   11  H   UNL     1      62.731   6.617   7.120  1.00  0.00     0.167 HD
ENDROOT
BRANCH   4  12
HETATM   12  C   UNL     1      60.404   5.070   7.332  1.00  0.00     0.078 C 
BRANCH  12  13
HETATM   13  C   UNL     1      58.927   5.350   7.629  1.00  0.00     0.033 C 
BRANCH  13  14
HETATM   14  C   UNL     1      58.686   6.503   8.599  1.00  0.00     0.164 C 
BRANCH  14  15
HETATM   15  O   UNL     1      58.629   6.027   9.935  1.00  0.00    -0.401 OA
HETATM   16  H   UNL     1      59.295   6.485  10.471  1.00  0.00     0.209 HD
ENDBRANCH  14  15
ENDBRANCH  13  14
ENDBRANCH  12  13
ENDBRANCH   4  12
BRANCH   7  17
HETATM   17  C   UNL     1      61.721   9.382   1.468  1.00  0.00     0.417 C 
HETATM   18  F   UNL     1      60.537   9.101   0.855  1.00  0.00    -0.166 F 
HETATM   19  F   UNL     1      61.765  10.738   1.588  1.00  0.00    -0.166 F 
HETATM   20  F   UNL     1      62.692   9.056   0.570  1.00  0.00    -0.166 F 
ENDBRANCH   7  17
TORSDOF 5
ENDMDL
MODEL 4
REMARK VINA RESULT:      -4.9      4.609      6.637
REMARK  5 active torsions:
REMARK  status: ('A' for Active; 'I' for Inactive)
REMARK    1  A    between atoms: C_3  and  C_8 
REMARK    2  A    between atoms: C_5  and  C_15 
REMARK    3  A    between atoms: C_15  and  C_18 
REMARK    4  A    between atoms: O_16  and  C_17 
REMARK    5  A    between atoms: C_17  and  C_18 
ROOT
HETATM    1  N   UNL     1      62.933   9.299   3.699  1.00  0.00    -0.344 N 
ATOM      2  HN  UNL     1      62.678  10.204   4.095  1.00  0.00     0.167 HD
HETATM    3  N   UNL     1      63.025   7.518   2.380  1.00  0.00    -0.344 N 
HETATM    4  C   UNL     1      62.410   8.719   2.639  1.00  0.00     0.082 A 
HETATM    5  C   UNL     1      63.891   8.432   4.158  1.00  0.00     0.061 A 
HETATM    6  C   UNL     1      63.969   7.303   3.353  1.00  0.00     0.060 A 
HETATM    7  C   UNL     1      65.630   7.502   5.562  1.00  0.00     0.050 A 
HETATM    8  C   UNL     1      64.728   8.544   5.274  1.00  0.00     0.048 A 
HETATM    9  C   UNL     1      64.853   6.250   3.596  1.00  0.00     0.032 A 
HETATM   10  C   UNL     1      65.680   6.374   4.720  1.00  0.00     0.018 A 
HETATM   11  H   UNL     1      62.824   6.915   1.628  1.00  0.00     0.167 HD
ENDROOT
BRANCH   4  12
HETATM   12  C   UNL     1      61.270   9.238   1.836  1.00  0.00     0.078 C 
BRANCH  12  13
HETATM   13  C   UNL     1      60.945   8.323   0.650  1.00  0.00     0.033 C 
BRANCH  13  14
HETATM   14  C   UNL     1      59.569   7.666   0.718  1.00  0.00     0.164 C 
BRANCH  14  15
HETATM   15  O   UNL     1      58.580   8.615   1.086  1.00  0.00    -0.401 OA
HETATM   16  H   UNL     1      57.956   8.732   0.354  1.00  0.00     0.209 HD
ENDBRANCH  14  15
ENDBRANCH  13  14
ENDBRANCH  12  13
ENDBRANCH   4  12
BRANCH   7  17
HETATM   17  C   UNL     1      66.530   7.590   6.767  1.00  0.00     0.417 C 
HETATM   18  F   UNL     1      67.700   6.906   6.629  1.00  0.00    -0.166 F 
HETATM   19  F   UNL     1      66.881   8.873   7.061  1.00  0.00    -0.166 F 
HETATM   20  F   UNL     1      65.942   7.097   7.893  1.00  0.00    -0.166 F 
ENDBRANCH   7  17
TORSDOF 5
ENDMDL
MODEL 5
REMARK VINA RESULT:      -4.8      1.722      1.935
REMARK  5 active torsions:
REMARK  status: ('A' for Active; 'I' for Inactive)
REMARK    1  A    between atoms: C_3  and  C_8 
REMARK    2  A    between atoms: C_5  and  C_15 
REMARK    3  A    between atoms: C_15  and  C_18 
REMARK    4  A    between atoms: O_16  and  C_17 
REMARK    5  A    between atoms: C_17  and  C_18 
ROOT
HETATM    1  N   UNL     1      64.008   6.333   4.570  1.00  0.00    -0.344 N 
ATOM      2  HN  UNL     1      64.157   5.528   3.961  1.00  0.00     0.167 HD
HETATM    3  N   UNL     1      63.978   7.672   6.338  1.00  0.00    -0.344 N 
HETATM    4  C   UNL     1      64.285   6.423   5.853  1.00  0.00     0.082 A 
HETATM    5  C   UNL     1      63.475   7.548   4.222  1.00  0.00     0.061 A 
HETATM    6  C   UNL     1      63.440   8.408   5.312  1.00  0.00     0.060 A 
HETATM    7  C   UNL     1      62.459   9.283   2.873  1.00  0.00     0.050 A 
HETATM    8  C   UNL     1      62.986   7.982   2.985  1.00  0.00     0.048 A 
HETATM    9  C   UNL     1      62.935   9.708   5.245  1.00  0.00     0.032 A 
HETATM   10  C   UNL     1      62.443  10.125   4.001  1.00  0.00     0.018 A 
HETATM   11  H   UNL     1      64.120   7.985   7.261  1.00  0.00     0.167 HD
ENDROOT
BRANCH   4  12
HETATM   12  C   UNL     1      64.811   5.326   6.710  1.00  0.00     0.078 C 
BRANCH  12  13
HETATM   13  C   UNL     1      65.966   4.580   6.035  1.00  0.00     0.033 C 
BRANCH  13  14
HETATM   14  C   UNL     1      65.592   3.209   5.478  1.00  0.00     0.164 C 
BRANCH  14  15
HETATM   15  O   UNL     1      64.890   3.343   4.252  1.00  0.00    -0.401 OA
HETATM   16  H   UNL     1      64.248   2.622   4.166  1.00  0.00     0.209 HD
ENDBRANCH  14  15
ENDBRANCH  13  14
ENDBRANCH  12  13
ENDBRANCH   4  12
BRANCH   7  17
HETATM   17  C   UNL     1      61.909   9.768   1.556  1.00  0.00     0.417 C 
HETATM   18  F   UNL     1      60.700   9.230   1.235  1.00  0.00    -0.166 F 
HETATM   19  F   UNL     1      61.734  11.119   1.533  1.00  0.00    -0.166 F 
HETATM   20  F   UNL     1      62.734   9.481   0.511  1.00  0.00    -0.166 F 
ENDBRANCH   7  17
TORSDOF 5
ENDMDL
MODEL 6
REMARK VINA RESULT:      -4.6      5.582      6.942
REMARK  5 active torsions:
REMARK  status: ('A' for Active; 'I' for Inactive)
REMARK    1  A    between atoms: C_3  and  C_8 
REMARK    2  A    between atoms: C_5  and  C_15 
REMARK    3  A    between atoms: C_15  and  C_18 
REMARK    4  A    between atoms: O_16  and  C_17 
REMARK    5  A    between atoms: C_17  and  C_18 
ROOT
HETATM    1  N   UNL     1      59.110   8.156   2.396  1.00  0.00    -0.344 N 
ATOM      2  HN  UNL     1      58.459   8.698   1.828  1.00  0.00     0.167 HD
HETATM    3  N   UNL     1      60.956   7.193   3.160  1.00  0.00    -0.344 N 
HETATM    4  C   UNL     1      60.387   7.944   2.160  1.00  0.00     0.082 A 
HETATM    5  C   UNL     1      58.837   7.494   3.565  1.00  0.00     0.061 A 
HETATM    6  C   UNL     1      59.975   6.876   4.066  1.00  0.00     0.060 A 
HETATM    7  C   UNL     1      57.583   6.609   5.437  1.00  0.00     0.050 A 
HETATM    8  C   UNL     1      57.624   7.368   4.253  1.00  0.00     0.048 A 
HETATM    9  C   UNL     1      59.982   6.121   5.241  1.00  0.00     0.032 A 
HETATM   10  C   UNL     1      58.760   6.000   5.914  1.00  0.00     0.018 A 
HETATM   11  H   UNL     1      61.903   6.927   3.216  1.00  0.00     0.167 HD
ENDROOT
BRANCH   4  12
HETATM   12  C   UNL     1      61.137   8.397   0.957  1.00  0.00     0.078 C 
BRANCH  12  13
HETATM   13  C   UNL     1      62.227   9.413   1.313  1.00  0.00     0.033 C 
BRANCH  13  14
HETATM   14  C   UNL     1      61.763  10.538   2.235  1.00  0.00     0.164 C 
BRANCH  14  15
HETATM   15  O   UNL     1      62.148  11.801   1.714  1.00  0.00    -0.401 OA
HETATM   16  H   UNL     1      61.852  11.875   0.794  1.00  0.00     0.209 HD
ENDBRANCH  14  15
ENDBRANCH  13  14
ENDBRANCH  12  13
ENDBRANCH   4  12
BRANCH   7  17
HETATM   17  C   UNL     1      56.286   6.444   6.187  1.00  0.00     0.417 C 
HETATM   18  F   UNL     1      56.013   7.467   7.044  1.00  0.00    -0.166 F 
HETATM   19  F   UNL     1      55.211   6.361   5.354  1.00  0.00    -0.166 F 
HETATM   20  F   UNL     1      56.262   5.310   6.941  1.00  0.00    -0.166 F 
ENDBRANCH   7  17
TORSDOF 5
ENDMDL
MODEL 7
REMARK VINA RESULT:      -4.4      5.529      6.911
REMARK  5 active torsions:
REMARK  status: ('A' for Active; 'I' for Inactive)
REMARK    1  A    between atoms: C_3  and  C_8 
REMARK    2  A    between atoms: C_5  and  C_15 
REMARK    3  A    between atoms: C_15  and  C_18 
REMARK    4  A    between atoms: O_16  and  C_17 
REMARK    5  A    between atoms: C_17  and  C_18 
ROOT
HETATM    1  N   UNL     1      61.189   6.954   4.179  1.00  0.00    -0.344 N 
ATOM      2  HN  UNL     1      62.026   6.476   4.513  1.00  0.00     0.167 HD
HETATM    3  N   UNL     1      59.823   8.289   3.052  1.00  0.00    -0.344 N 
HETATM    4  C   UNL     1      61.124   7.906   3.273  1.00  0.00     0.082 A 
HETATM    5  C   UNL     1      59.895   6.738   4.580  1.00  0.00     0.061 A 
HETATM    6  C   UNL     1      59.016   7.564   3.893  1.00  0.00     0.060 A 
HETATM    7  C   UNL     1      58.017   5.824   5.804  1.00  0.00     0.050 A 
HETATM    8  C   UNL     1      59.400   5.852   5.545  1.00  0.00     0.048 A 
HETATM    9  C   UNL     1      57.637   7.564   4.112  1.00  0.00     0.032 A 
HETATM   10  C   UNL     1      57.158   6.677   5.085  1.00  0.00     0.018 A 
HETATM   11  H   UNL     1      59.521   8.965   2.403  1.00  0.00     0.167 HD
ENDROOT
BRANCH   4  12
HETATM   12  C   UNL     1      62.285   8.544   2.595  1.00  0.00     0.078 C 
BRANCH  12  13
HETATM   13  C   UNL     1      61.840   9.578   1.556  1.00  0.00     0.033 C 
BRANCH  13  14
HETATM   14  C   UNL     1      61.902  11.025   2.038  1.00  0.00     0.164 C 
BRANCH  14  15
HETATM   15  O   UNL     1      61.353  11.140   3.342  1.00  0.00    -0.401 OA
HETATM   16  H   UNL     1      60.761  11.908   3.377  1.00  0.00     0.209 HD
ENDBRANCH  14  15
ENDBRANCH  13  14
ENDBRANCH  12  13
ENDBRANCH   4  12
BRANCH   7  17
HETATM   17  C   UNL     1      57.461   4.892   6.850  1.00  0.00     0.417 C 
HETATM   18  F   UNL     1      56.379   4.179   6.430  1.00  0.00    -0.166 F 
HETATM   19  F   UNL     1      58.375   3.971   7.264  1.00  0.00    -0.166 F 
HETATM   20  F   UNL     1      57.060   5.550   7.973  1.00  0.00    -0.166 F 
ENDBRANCH   7  17
TORSDOF 5
ENDMDL
MODEL 8
REMARK VINA RESULT:      -4.4      4.545      5.625
REMARK  5 active torsions:
REMARK  status: ('A' for Active; 'I' for Inactive)
REMARK    1  A    between atoms: C_3  and  C_8 
REMARK    2  A    between atoms: C_5  and  C_15 
REMARK    3  A    between atoms: C_15  and  C_18 
REMARK    4  A    between atoms: O_16  and  C_17 
REMARK    5  A    between atoms: C_17  and  C_18 
ROOT
HETATM    1  N   UNL     1      60.503   8.622   3.322  1.00  0.00    -0.344 N 
ATOM      2  HN  UNL     1      60.248   9.395   2.707  1.00  0.00     0.167 HD
HETATM    3  N   UNL     1      61.624   7.301   4.707  1.00  0.00    -0.344 N 
HETATM    4  C   UNL     1      61.653   8.438   3.935  1.00  0.00     0.082 A 
HETATM    5  C   UNL     1      59.718   7.556   3.682  1.00  0.00     0.061 A 
HETATM    6  C   UNL     1      60.396   6.708   4.548  1.00  0.00     0.060 A 
HETATM    7  C   UNL     1      57.813   6.066   3.780  1.00  0.00     0.050 A 
HETATM    8  C   UNL     1      58.412   7.243   3.291  1.00  0.00     0.048 A 
HETATM    9  C   UNL     1      59.839   5.536   5.064  1.00  0.00     0.032 A 
HETATM   10  C   UNL     1      58.533   5.233   4.658  1.00  0.00     0.018 A 
HETATM   11  H   UNL     1      62.356   6.970   5.277  1.00  0.00     0.167 HD
ENDROOT
BRANCH   4  12
HETATM   12  C   UNL     1      62.862   9.293   3.794  1.00  0.00     0.078 C 
BRANCH  12  13
HETATM   13  C   UNL     1      63.516   9.583   5.148  1.00  0.00     0.033 C 
BRANCH  13  14
HETATM   14  C   UNL     1      63.204  10.964   5.718  1.00  0.00     0.164 C 
BRANCH  14  15
HETATM   15  O   UNL     1      64.319  11.472   6.435  1.00  0.00    -0.401 OA
HETATM   16  H   UNL     1      65.135  11.087   6.079  1.00  0.00     0.209 HD
ENDBRANCH  14  15
ENDBRANCH  13  14
ENDBRANCH  12  13
ENDBRANCH   4  12
BRANCH   7  17
HETATM   17  C   UNL     1      56.413   5.697   3.361  1.00  0.00     0.417 C 
HETATM   18  F   UNL     1      56.297   5.396   2.038  1.00  0.00    -0.166 F 
HETATM   19  F   UNL     1      55.940   4.610   4.032  1.00  0.00    -0.166 F 
HETATM   20  F   UNL     1      55.519   6.698   3.595  1.00  0.00    -0.166 F 
ENDBRANCH   7  17
TORSDOF 5
ENDMDL
MODEL 9
REMARK VINA RESULT:      -4.3      2.421      2.997
REMARK  5 active torsions:
REMARK  status: ('A' for Active; 'I' for Inactive)
REMARK    1  A    between atoms: C_3  and  C_8 
REMARK    2  A    between atoms: C_5  and  C_15 
REMARK    3  A    between atoms: C_15  and  C_18 
REMARK    4  A    between atoms: O_16  and  C_17 
REMARK    5  A    between atoms: C_17  and  C_18 
ROOT
HETATM    1  N   UNL     1      64.582   6.403   6.604  1.00  0.00    -0.344 N 
ATOM      2  HN  UNL     1      64.495   5.487   7.044  1.00  0.00     0.167 HD
HETATM    3  N   UNL     1      65.372   8.372   5.955  1.00  0.00    -0.344 N 
HETATM    4  C   UNL     1      65.586   7.247   6.715  1.00  0.00     0.082 A 
HETATM    5  C   UNL     1      63.678   7.014   5.774  1.00  0.00     0.061 A 
HETATM    6  C   UNL     1      64.143   8.253   5.354  1.00  0.00     0.060 A 
HETATM    7  C   UNL     1      61.652   7.389   4.502  1.00  0.00     0.050 A 
HETATM    8  C   UNL     1      62.422   6.567   5.346  1.00  0.00     0.048 A 
HETATM    9  C   UNL     1      63.418   9.097   4.511  1.00  0.00     0.032 A 
HETATM   10  C   UNL     1      62.161   8.638   4.096  1.00  0.00     0.018 A 
HETATM   11  H   UNL     1      65.991   9.131   5.857  1.00  0.00     0.167 HD
ENDROOT
BRANCH   4  12
HETATM   12  C   UNL     1      66.784   7.068   7.579  1.00  0.00     0.078 C 
BRANCH  12  13
HETATM   13  C   UNL     1      66.488   6.170   8.785  1.00  0.00     0.033 C 
BRANCH  13  14
HETATM   14  C   UNL     1      67.389   4.943   8.894  1.00  0.00     0.164 C 
BRANCH  14  15
HETATM   15  O   UNL     1      66.710   3.783   8.434  1.00  0.00    -0.401 OA
HETATM   16  H   UNL     1      65.763   3.975   8.350  1.00  0.00     0.209 HD
ENDBRANCH  14  15
ENDBRANCH  13  14
ENDBRANCH  12  13
ENDBRANCH   4  12
BRANCH   7  17
HETATM   17  C   UNL     1      60.290   6.939   4.041  1.00  0.00     0.417 C 
HETATM   18  F   UNL     1      60.303   5.759   3.361  1.00  0.00    -0.166 F 
HETATM   19  F   UNL     1      59.424   6.761   5.077  1.00  0.00    -0.166 F 
HETATM   20  F   UNL     1      59.697   7.841   3.210  1.00  0.00    -0.166 F 
ENDBRANCH   7  17
TORSDOF 5
ENDMDL
