MODEL 1
REMARK VINA RESULT:      -5.6      0.000      0.000
REMARK  3 active torsions:
REMARK  status: ('A' for Active; 'I' for Inactive)
REMARK    1  A    between atoms: C_1  and  O_2 
REMARK    2  A    between atoms: O_2  and  C_5 
REMARK    3  A    between atoms: C_9  and  N_13 
ROOT
HETATM    1  N   UNL     1      64.362   7.262   6.918  1.00  0.00    -0.344 N 
ATOM      2  HN  UNL     1      63.641   7.046   7.606  1.00  0.00     0.167 HD
HETATM    3  C   UNL     1      64.079   7.867   5.746  1.00  0.00     0.148 C 
HETATM    4  C   UNL     1      65.669   6.961   7.122  1.00  0.00     0.119 C 
HETATM    5  C   UNL     1      66.700   7.207   6.212  1.00  0.00     0.041 C 
HETATM    6  C   UNL     1      65.043   8.295   4.844  1.00  0.00     0.059 C 
HETATM    7  C   UNL     1      66.375   7.976   5.099  1.00  0.00     0.035 C 
ENDROOT
BRANCH   3   8
HETATM    8  O   UNL     1      62.765   8.061   5.346  1.00  0.00    -0.290 OA
BRANCH   8   9
HETATM    9  C   UNL     1      62.500   8.884   4.271  1.00  0.00     0.121 A 
HETATM   10  C   UNL     1      62.104   8.245   3.085  1.00  0.00     0.069 A 
HETATM   11 CL   UNL     1      62.042   6.517   2.968  1.00  0.00    -0.081 Cl
HETATM   12  C   UNL     1      61.700   8.982   1.965  1.00  0.00     0.027 A 
HETATM   13  C   UNL     1      61.702  10.371   2.010  1.00  0.00     0.003 A 
HETATM   14  C   UNL     1      62.076  11.021   3.184  1.00  0.00     0.027 A 
HETATM   15  C   UNL     1      62.439  10.286   4.324  1.00  0.00     0.069 A 
HETATM   16 CL   UNL     1      62.663  11.206   5.775  1.00  0.00    -0.081 Cl
ENDBRANCH   8   9
ENDBRANCH   3   8
BRANCH   5  17
HETATM   17  N   UNL     1      68.034   6.896   6.496  1.00  0.00    -0.398 N 
HETATM   18  H   UNL     1      68.757   7.283   5.948  1.00  0.00     0.156 HD
HETATM   19  H   UNL     1      68.252   6.292   7.242  1.00  0.00     0.156 HD
ENDBRANCH   5  17
TORSDOF 3
ENDMDL
MODEL 2
REMARK VINA RESULT:      -5.6      0.899      2.599
REMARK  3 active torsions:
REMARK  status: ('A' for Active; 'I' for Inactive)
REMARK    1  A    between atoms: C_1  and  O_2 
REMARK    2  A    between atoms: O_2  and  C_5 
REMARK    3  A    between atoms: C_9  and  N_13 
ROOT
HETATM    1  N   UNL     1      64.943   8.759   5.321  1.00  0.00    -0.344 N 
ATOM      2  HN  UNL     1      64.874   9.556   4.690  1.00  0.00     0.167 HD
HETATM    3  C   UNL     1      63.863   8.042   5.694  1.00  0.00     0.148 C 
HETATM    4  C   UNL     1      66.127   8.349   5.841  1.00  0.00     0.119 C 
HETATM    5  C   UNL     1      66.287   7.281   6.729  1.00  0.00     0.041 C 
HETATM    6  C   UNL     1      63.930   6.875   6.443  1.00  0.00     0.059 C 
HETATM    7  C   UNL     1      65.168   6.482   6.946  1.00  0.00     0.035 C 
ENDROOT
BRANCH   3   8
HETATM    8  O   UNL     1      62.582   8.469   5.374  1.00  0.00    -0.290 OA
BRANCH   8   9
HETATM    9  C   UNL     1      62.294   8.830   4.076  1.00  0.00     0.121 A 
HETATM   10  C   UNL     1      62.246  10.208   3.812  1.00  0.00     0.069 A 
HETATM   11 CL   UNL     1      62.450  11.376   5.075  1.00  0.00    -0.081 Cl
HETATM   12  C   UNL     1      62.075  10.691   2.509  1.00  0.00     0.027 A 
HETATM   13  C   UNL     1      61.934   9.800   1.450  1.00  0.00     0.003 A 
HETATM   14  C   UNL     1      61.996   8.430   1.692  1.00  0.00     0.027 A 
HETATM   15  C   UNL     1      62.211   7.941   2.990  1.00  0.00     0.069 A 
HETATM   16 CL   UNL     1      62.492   6.236   3.118  1.00  0.00    -0.081 Cl
ENDBRANCH   8   9
ENDBRANCH   3   8
BRANCH   5  17
HETATM   17  N   UNL     1      67.542   6.891   7.207  1.00  0.00    -0.398 N 
HETATM   18  H   UNL     1      67.800   5.940   7.194  1.00  0.00     0.156 HD
HETATM   19  H   UNL     1      68.167   7.565   7.558  1.00  0.00     0.156 HD
ENDBRANCH   5  17
TORSDOF 3
ENDMDL
MODEL 3
REMARK VINA RESULT:      -5.4      1.565      2.869
REMARK  3 active torsions:
REMARK  status: ('A' for Active; 'I' for Inactive)
REMARK    1  A    between atoms: C_1  and  O_2 
REMARK    2  A    between atoms: O_2  and  C_5 
REMARK    3  A    between atoms: C_9  and  N_13 
ROOT
HETATM    1  N   UNL     1      64.918   7.310   6.870  1.00  0.00    -0.344 N 
ATOM      2  HN  UNL     1      63.957   7.583   7.075  1.00  0.00     0.167 HD
HETATM    3  C   UNL     1      65.668   7.955   5.953  1.00  0.00     0.148 C 
HETATM    4  C   UNL     1      65.525   6.274   7.501  1.00  0.00     0.119 C 
HETATM    5  C   UNL     1      66.827   5.834   7.249  1.00  0.00     0.041 C 
HETATM    6  C   UNL     1      67.016   7.701   5.739  1.00  0.00     0.059 C 
HETATM    7  C   UNL     1      67.603   6.636   6.418  1.00  0.00     0.035 C 
ENDROOT
BRANCH   3   8
HETATM    8  O   UNL     1      65.105   8.911   5.119  1.00  0.00    -0.290 OA
BRANCH   8   9
HETATM    9  C   UNL     1      63.928   8.624   4.460  1.00  0.00     0.121 A 
HETATM   10  C   UNL     1      62.906   9.580   4.575  1.00  0.00     0.069 A 
HETATM   11 CL   UNL     1      63.096  10.990   5.563  1.00  0.00    -0.081 Cl
HETATM   12  C   UNL     1      61.710   9.451   3.858  1.00  0.00     0.027 A 
HETATM   13  C   UNL     1      61.512   8.353   3.027  1.00  0.00     0.003 A 
HETATM   14  C   UNL     1      62.523   7.405   2.889  1.00  0.00     0.027 A 
HETATM   15  C   UNL     1      63.741   7.552   3.571  1.00  0.00     0.069 A 
HETATM   16 CL   UNL     1      64.988   6.430   3.140  1.00  0.00    -0.081 Cl
ENDBRANCH   8   9
ENDBRANCH   3   8
BRANCH   5  17
HETATM   17  N   UNL     1      67.405   4.775   7.956  1.00  0.00    -0.398 N 
HETATM   18  H   UNL     1      67.185   4.639   8.907  1.00  0.00     0.156 HD
HETATM   19  H   UNL     1      68.032   4.165   7.504  1.00  0.00     0.156 HD
ENDBRANCH   5  17
TORSDOF 3
ENDMDL
MODEL 4
REMARK VINA RESULT:      -5.4      0.928      2.425
REMARK  3 active torsions:
REMARK  status: ('A' for Active; 'I' for Inactive)
REMARK    1  A    between atoms: C_1  and  O_2 
REMARK    2  A    between atoms: O_2  and  C_5 
REMARK    3  A    between atoms: C_9  and  N_13 
ROOT
HETATM    1  N   UNL     1      63.552   7.239   6.548  1.00  0.00    -0.344 N 
ATOM      2  HN  UNL     1      62.700   6.938   7.020  1.00  0.00     0.167 HD
HETATM    3  C   UNL     1      63.545   8.184   5.585  1.00  0.00     0.148 C 
HETATM    4  C   UNL     1      64.768   6.716   6.847  1.00  0.00     0.119 C 
HETATM    5  C   UNL     1      65.967   7.066   6.222  1.00  0.00     0.041 C 
HETATM    6  C   UNL     1      64.693   8.714   5.013  1.00  0.00     0.059 C 
HETATM    7  C   UNL     1      65.922   8.157   5.359  1.00  0.00     0.035 C 
ENDROOT
BRANCH   3   8
HETATM    8  O   UNL     1      62.349   8.663   5.068  1.00  0.00    -0.290 OA
BRANCH   8   9
HETATM    9  C   UNL     1      62.181   8.725   3.701  1.00  0.00     0.121 A 
HETATM   10  C   UNL     1      62.093  10.012   3.146  1.00  0.00     0.069 A 
HETATM   11 CL   UNL     1      62.106  11.428   4.145  1.00  0.00    -0.081 Cl
HETATM   12  C   UNL     1      62.036  10.201   1.760  1.00  0.00     0.027 A 
HETATM   13  C   UNL     1      62.050   9.102   0.908  1.00  0.00     0.003 A 
HETATM   14  C   UNL     1      62.155   7.820   1.440  1.00  0.00     0.027 A 
HETATM   15  C   UNL     1      62.257   7.627   2.827  1.00  0.00     0.069 A 
HETATM   16 CL   UNL     1      62.606   6.010   3.341  1.00  0.00    -0.081 Cl
ENDBRANCH   8   9
ENDBRANCH   3   8
BRANCH   5  17
HETATM   17  N   UNL     1      67.194   6.509   6.598  1.00  0.00    -0.398 N 
HETATM   18  H   UNL     1      67.354   5.544   6.475  1.00  0.00     0.156 HD
HETATM   19  H   UNL     1      67.896   7.079   6.985  1.00  0.00     0.156 HD
ENDBRANCH   5  17
TORSDOF 3
ENDMDL
MODEL 5
REMARK VINA RESULT:      -5.2      2.893      5.476
REMARK  3 active torsions:
REMARK  status: ('A' for Active; 'I' for Inactive)
REMARK    1  A    between atoms: C_1  and  O_2 
REMARK    2  A    between atoms: O_2  and  C_5 
REMARK    3  A    between atoms: C_9  and  N_13 
ROOT
HETATM    1  N   UNL     1      63.034   8.593   3.911  1.00  0.00    -0.344 N 
ATOM      2  HN  UNL     1      63.356   7.642   3.733  1.00  0.00     0.167 HD
HETATM    3  C   UNL     1      63.147   9.174   5.123  1.00  0.00     0.148 C 
HETATM    4  C   UNL     1      62.463   9.356   2.946  1.00  0.00     0.119 C 
HETATM    5  C   UNL     1      61.980  10.654   3.130  1.00  0.00     0.041 C 
HETATM    6  C   UNL     1      62.844  10.506   5.374  1.00  0.00     0.059 C 
HETATM    7  C   UNL     1      62.273  11.257   4.350  1.00  0.00     0.035 C 
ENDROOT
BRANCH   3   8
HETATM    8  O   UNL     1      63.546   8.439   6.230  1.00  0.00    -0.290 OA
BRANCH   8   9
HETATM    9  C   UNL     1      63.887   7.112   6.073  1.00  0.00     0.121 A 
HETATM   10  C   UNL     1      65.262   6.828   6.026  1.00  0.00     0.069 A 
HETATM   11 CL   UNL     1      66.447   8.091   6.075  1.00  0.00    -0.081 Cl
HETATM   12  C   UNL     1      65.728   5.508   5.984  1.00  0.00     0.027 A 
HETATM   13  C   UNL     1      64.823   4.452   5.971  1.00  0.00     0.003 A 
HETATM   14  C   UNL     1      63.457   4.716   6.035  1.00  0.00     0.027 A 
HETATM   15  C   UNL     1      62.986   6.035   6.122  1.00  0.00     0.069 A 
HETATM   16 CL   UNL     1      61.289   6.213   6.420  1.00  0.00    -0.081 Cl
ENDBRANCH   8   9
ENDBRANCH   3   8
BRANCH   5  17
HETATM   17  N   UNL     1      61.427  11.399   2.084  1.00  0.00    -0.398 N 
HETATM   18  H   UNL     1      60.491  11.250   1.813  1.00  0.00     0.156 HD
HETATM   19  H   UNL     1      61.973  12.072   1.616  1.00  0.00     0.156 HD
ENDBRANCH   5  17
TORSDOF 3
ENDMDL
MODEL 6
REMARK VINA RESULT:      -5.1      2.919      5.244
REMARK  3 active torsions:
REMARK  status: ('A' for Active; 'I' for Inactive)
REMARK    1  A    between atoms: C_1  and  O_2 
REMARK    2  A    between atoms: O_2  and  C_5 
REMARK    3  A    between atoms: C_9  and  N_13 
ROOT
HETATM    1  N   UNL     1      62.500   8.425   4.070  1.00  0.00    -0.344 N 
ATOM      2  HN  UNL     1      62.577   7.419   3.924  1.00  0.00     0.167 HD
HETATM    3  C   UNL     1      62.823   9.007   5.243  1.00  0.00     0.148 C 
HETATM    4  C   UNL     1      62.066   9.266   3.098  1.00  0.00     0.119 C 
HETATM    5  C   UNL     1      61.915  10.647   3.242  1.00  0.00     0.041 C 
HETATM    6  C   UNL     1      62.859  10.380   5.442  1.00  0.00     0.059 C 
HETATM    7  C   UNL     1      62.417  11.208   4.412  1.00  0.00     0.035 C 
ENDROOT
BRANCH   3   8
HETATM    8  O   UNL     1      63.107   8.238   6.364  1.00  0.00    -0.290 OA
BRANCH   8   9
HETATM    9  C   UNL     1      63.719   7.014   6.206  1.00  0.00     0.121 A 
HETATM   10  C   UNL     1      62.878   5.890   6.252  1.00  0.00     0.069 A 
HETATM   11 CL   UNL     1      61.183   6.045   6.578  1.00  0.00    -0.081 Cl
HETATM   12  C   UNL     1      63.370   4.605   5.991  1.00  0.00     0.027 A 
HETATM   13  C   UNL     1      64.717   4.424   5.696  1.00  0.00     0.003 A 
HETATM   14  C   UNL     1      65.561   5.529   5.629  1.00  0.00     0.027 A 
HETATM   15  C   UNL     1      65.064   6.823   5.847  1.00  0.00     0.069 A 
HETATM   16 CL   UNL     1      66.164   8.120   5.514  1.00  0.00    -0.081 Cl
ENDBRANCH   8   9
ENDBRANCH   3   8
BRANCH   5  17
HETATM   17  N   UNL     1      61.488  11.464   2.189  1.00  0.00    -0.398 N 
HETATM   18  H   UNL     1      60.623  11.931   2.248  1.00  0.00     0.156 HD
HETATM   19  H   UNL     1      62.052  11.571   1.390  1.00  0.00     0.156 HD
ENDBRANCH   5  17
TORSDOF 3
ENDMDL
MODEL 7
REMARK VINA RESULT:      -5.0      3.484      5.736
REMARK  3 active torsions:
REMARK  status: ('A' for Active; 'I' for Inactive)
REMARK    1  A    between atoms: C_1  and  O_2 
REMARK    2  A    between atoms: O_2  and  C_5 
REMARK    3  A    between atoms: C_9  and  N_13 
ROOT
HETATM    1  N   UNL     1      60.807   6.892   2.540  1.00  0.00    -0.344 N 
ATOM      2  HN  UNL     1      61.339   6.507   3.320  1.00  0.00     0.167 HD
HETATM    3  C   UNL     1      61.299   7.865   1.746  1.00  0.00     0.148 C 
HETATM    4  C   UNL     1      59.559   6.459   2.232  1.00  0.00     0.119 C 
HETATM    5  C   UNL     1      58.770   6.960   1.193  1.00  0.00     0.041 C 
HETATM    6  C   UNL     1      60.665   8.323   0.599  1.00  0.00     0.059 C 
HETATM    7  C   UNL     1      59.390   7.841   0.312  1.00  0.00     0.035 C 
ENDROOT
BRANCH   3   8
HETATM    8  O   UNL     1      62.484   8.513   2.066  1.00  0.00    -0.290 OA
BRANCH   8   9
HETATM    9  C   UNL     1      62.542   9.296   3.200  1.00  0.00     0.121 A 
HETATM   10  C   UNL     1      63.222   8.746   4.298  1.00  0.00     0.069 A 
HETATM   11 CL   UNL     1      63.868   7.139   4.247  1.00  0.00    -0.081 Cl
HETATM   12  C   UNL     1      63.442   9.493   5.462  1.00  0.00     0.027 A 
HETATM   13  C   UNL     1      62.970  10.798   5.550  1.00  0.00     0.003 A 
HETATM   14  C   UNL     1      62.309  11.365   4.463  1.00  0.00     0.027 A 
HETATM   15  C   UNL     1      62.124  10.635   3.278  1.00  0.00     0.069 A 
HETATM   16 CL   UNL     1      61.491  11.526   1.933  1.00  0.00    -0.081 Cl
ENDBRANCH   8   9
ENDBRANCH   3   8
BRANCH   5  17
HETATM   17  N   UNL     1      57.499   6.449   0.910  1.00  0.00    -0.398 N 
HETATM   18  H   UNL     1      57.404   5.539   0.544  1.00  0.00     0.156 HD
HETATM   19  H   UNL     1      56.699   6.999   1.075  1.00  0.00     0.156 HD
ENDBRANCH   5  17
TORSDOF 3
ENDMDL
MODEL 8
REMARK VINA RESULT:      -4.9      1.738      2.169
REMARK  3 active torsions:
REMARK  status: ('A' for Active; 'I' for Inactive)
REMARK    1  A    between atoms: C_1  and  O_2 
REMARK    2  A    between atoms: O_2  and  C_5 
REMARK    3  A    between atoms: C_9  and  N_13 
ROOT
HETATM    1  N   UNL     1      64.754   7.281   6.801  1.00  0.00    -0.344 N 
ATOM      2  HN  UNL     1      63.791   7.613   6.764  1.00  0.00     0.167 HD
HETATM    3  C   UNL     1      65.724   7.802   6.021  1.00  0.00     0.148 C 
HETATM    4  C   UNL     1      65.145   6.288   7.638  1.00  0.00     0.119 C 
HETATM    5  C   UNL     1      66.441   5.772   7.721  1.00  0.00     0.041 C 
HETATM    6  C   UNL     1      67.068   7.472   6.134  1.00  0.00     0.059 C 
HETATM    7  C   UNL     1      67.427   6.456   7.017  1.00  0.00     0.035 C 
ENDROOT
BRANCH   3   8
HETATM    8  O   UNL     1      65.415   8.693   5.003  1.00  0.00    -0.290 OA
BRANCH   8   9
HETATM    9  C   UNL     1      64.195   8.598   4.369  1.00  0.00     0.121 A 
HETATM   10  C   UNL     1      63.990   7.449   3.589  1.00  0.00     0.069 A 
HETATM   11 CL   UNL     1      65.241   6.270   3.373  1.00  0.00    -0.081 Cl
HETATM   12  C   UNL     1      62.749   7.190   2.992  1.00  0.00     0.027 A 
HETATM   13  C   UNL     1      61.700   8.088   3.154  1.00  0.00     0.003 A 
HETATM   14  C   UNL     1      61.881   9.224   3.939  1.00  0.00     0.027 A 
HETATM   15  C   UNL     1      63.108   9.465   4.575  1.00  0.00     0.069 A 
HETATM   16 CL   UNL     1      63.131  10.787   5.696  1.00  0.00    -0.081 Cl
ENDBRANCH   8   9
ENDBRANCH   3   8
BRANCH   5  17
HETATM   17  N   UNL     1      66.785   4.765   8.628  1.00  0.00    -0.398 N 
HETATM   18  H   UNL     1      67.337   4.004   8.332  1.00  0.00     0.156 HD
HETATM   19  H   UNL     1      66.477   4.815   9.561  1.00  0.00     0.156 HD
ENDBRANCH   5  17
TORSDOF 3
ENDMDL
MODEL 9
REMARK VINA RESULT:      -4.8      3.328      6.572
REMARK  3 active torsions:
REMARK  status: ('A' for Active; 'I' for Inactive)
REMARK    1  A    between atoms: C_1  and  O_2 
REMARK    2  A    between atoms: O_2  and  C_5 
REMARK    3  A    between atoms: C_9  and  N_13 
ROOT
HETATM    1  N   UNL     1      64.290   6.521   6.469  1.00  0.00    -0.344 N 
ATOM      2  HN  UNL     1      64.404   5.770   7.150  1.00  0.00     0.167 HD
HETATM    3  C   UNL     1      65.313   7.320   6.103  1.00  0.00     0.148 C 
HETATM    4  C   UNL     1      63.100   6.782   5.873  1.00  0.00     0.119 C 
HETATM    5  C   UNL     1      62.872   7.808   4.953  1.00  0.00     0.041 C 
HETATM    6  C   UNL     1      65.233   8.264   5.088  1.00  0.00     0.059 C 
HETATM    7  C   UNL     1      63.995   8.490   4.492  1.00  0.00     0.035 C 
ENDROOT
BRANCH   3   8
HETATM    8  O   UNL     1      66.529   7.269   6.771  1.00  0.00    -0.290 OA
BRANCH   8   9
HETATM    9  C   UNL     1      67.116   6.046   7.015  1.00  0.00     0.121 A 
HETATM   10  C   UNL     1      67.136   5.626   8.355  1.00  0.00     0.069 A 
HETATM   11 CL   UNL     1      66.535   6.636   9.627  1.00  0.00    -0.081 Cl
HETATM   12  C   UNL     1      67.603   4.353   8.708  1.00  0.00     0.027 A 
HETATM   13  C   UNL     1      68.071   3.488   7.726  1.00  0.00     0.003 A 
HETATM   14  C   UNL     1      68.042   3.882   6.390  1.00  0.00     0.027 A 
HETATM   15  C   UNL     1      67.534   5.140   6.027  1.00  0.00     0.069 A 
HETATM   16 CL   UNL     1      67.347   5.415   4.326  1.00  0.00    -0.081 Cl
ENDBRANCH   8   9
ENDBRANCH   3   8
BRANCH   5  17
HETATM   17  N   UNL     1      61.625   8.007   4.351  1.00  0.00    -0.398 N 
HETATM   18  H   UNL     1      60.907   8.467   4.846  1.00  0.00     0.156 HD
HETATM   19  H   UNL     1      61.463   7.687   3.435  1.00  0.00     0.156 HD
ENDBRANCH   5  17
TORSDOF 3
ENDMDL
