MODEL 1
REMARK VINA RESULT:      -5.6      0.000      0.000
REMARK  2 active torsions:
REMARK  status: ('A' for Active; 'I' for Inactive)
REMARK    1  A    between atoms: C_3  and  C_4 
REMARK    2  A    between atoms: C_4  and  O_10 
ROOT
HETATM    1  N   UNL     1      63.257   8.986   5.985  1.00  0.00    -0.360 N 
ATOM      2  HN  UNL     1      63.430   9.140   6.978  1.00  0.00     0.165 HD
HETATM    3  C   UNL     1      63.517   7.794   5.391  1.00  0.00     0.108 A 
HETATM    4  C   UNL     1      63.289   7.547   4.039  1.00  0.00     0.048 A 
HETATM    5  C   UNL     1      62.771   8.569   3.238  1.00  0.00    -0.022 A 
HETATM    6  C   UNL     1      62.756   9.963   5.189  1.00  0.00     0.100 A 
HETATM    7  C   UNL     1      62.494   9.821   3.821  1.00  0.00    -0.011 A 
HETATM    8  C   UNL     1      62.521   8.376   1.870  1.00  0.00     0.012 A 
HETATM    9  C   UNL     1      61.976  10.857   3.022  1.00  0.00     0.013 A 
HETATM   10  C   UNL     1      62.005   9.410   1.088  1.00  0.00     0.001 A 
HETATM   11  C   UNL     1      61.734  10.649   1.663  1.00  0.00     0.001 A 
ENDROOT
BRANCH   3  12
HETATM   12  C   UNL     1      64.076   6.680   6.218  1.00  0.00     0.309 C 
HETATM   13  O   UNL     1      64.047   5.508   5.861  1.00  0.00    -0.258 OA
BRANCH  12  14
HETATM   14  O   UNL     1      64.605   7.128   7.385  1.00  0.00    -0.321 OA
HETATM   15  C   UNL     1      65.806   6.455   7.762  1.00  0.00     0.213 C 
ENDBRANCH  12  14
ENDBRANCH   3  12
TORSDOF 2
ENDMDL
MODEL 2
REMARK VINA RESULT:      -5.2      1.285      2.142
REMARK  2 active torsions:
REMARK  status: ('A' for Active; 'I' for Inactive)
REMARK    1  A    between atoms: C_3  and  C_4 
REMARK    2  A    between atoms: C_4  and  O_10 
ROOT
HETATM    1  N   UNL     1      64.042   6.751   3.906  1.00  0.00    -0.360 N 
ATOM      2  HN  UNL     1      64.434   5.811   3.858  1.00  0.00     0.165 HD
HETATM    3  C   UNL     1      64.123   7.502   5.033  1.00  0.00     0.108 A 
HETATM    4  C   UNL     1      63.603   8.790   5.132  1.00  0.00     0.048 A 
HETATM    5  C   UNL     1      62.960   9.353   4.025  1.00  0.00    -0.022 A 
HETATM    6  C   UNL     1      63.413   7.316   2.846  1.00  0.00     0.100 A 
HETATM    7  C   UNL     1      62.855   8.600   2.840  1.00  0.00    -0.011 A 
HETATM    8  C   UNL     1      62.419  10.648   4.069  1.00  0.00     0.012 A 
HETATM    9  C   UNL     1      62.205   9.156   1.722  1.00  0.00     0.013 A 
HETATM   10  C   UNL     1      61.779  11.189   2.954  1.00  0.00     0.001 A 
HETATM   11  C   UNL     1      61.672  10.444   1.782  1.00  0.00     0.001 A 
ENDROOT
BRANCH   3  12
HETATM   12  C   UNL     1      64.801   6.930   6.237  1.00  0.00     0.309 C 
HETATM   13  O   UNL     1      64.374   7.081   7.375  1.00  0.00    -0.258 OA
BRANCH  12  14
HETATM   14  O   UNL     1      65.921   6.237   5.909  1.00  0.00    -0.321 OA
HETATM   15  C   UNL     1      67.037   6.525   6.750  1.00  0.00     0.213 C 
ENDBRANCH  12  14
ENDBRANCH   3  12
TORSDOF 2
ENDMDL
MODEL 3
REMARK VINA RESULT:      -5.1      1.565      1.890
REMARK  2 active torsions:
REMARK  status: ('A' for Active; 'I' for Inactive)
REMARK    1  A    between atoms: C_3  and  C_4 
REMARK    2  A    between atoms: C_4  and  O_10 
ROOT
HETATM    1  N   UNL     1      64.009   9.514   5.468  1.00  0.00    -0.360 N 
ATOM      2  HN  UNL     1      64.236  10.077   6.287  1.00  0.00     0.165 HD
HETATM    3  C   UNL     1      64.710   8.396   5.153  1.00  0.00     0.108 A 
HETATM    4  C   UNL     1      64.426   7.601   4.045  1.00  0.00     0.048 A 
HETATM    5  C   UNL     1      63.369   7.960   3.202  1.00  0.00    -0.022 A 
HETATM    6  C   UNL     1      62.990   9.844   4.635  1.00  0.00     0.100 A 
HETATM    7  C   UNL     1      62.623   9.118   3.496  1.00  0.00    -0.011 A 
HETATM    8  C   UNL     1      63.038   7.195   2.072  1.00  0.00     0.012 A 
HETATM    9  C   UNL     1      61.561   9.490   2.651  1.00  0.00     0.013 A 
HETATM   10  C   UNL     1      61.982   7.573   1.243  1.00  0.00     0.001 A 
HETATM   11  C   UNL     1      61.245   8.719   1.531  1.00  0.00     0.001 A 
ENDROOT
BRANCH   3  12
HETATM   12  C   UNL     1      65.848   7.985   6.032  1.00  0.00     0.309 C 
HETATM   13  O   UNL     1      66.491   8.783   6.703  1.00  0.00    -0.258 OA
BRANCH  12  14
HETATM   14  O   UNL     1      66.068   6.646   5.988  1.00  0.00    -0.321 OA
HETATM   15  C   UNL     1      67.450   6.296   5.916  1.00  0.00     0.213 C 
ENDBRANCH  12  14
ENDBRANCH   3  12
TORSDOF 2
ENDMDL
MODEL 4
REMARK VINA RESULT:      -4.9      0.804      1.332
REMARK  2 active torsions:
REMARK  status: ('A' for Active; 'I' for Inactive)
REMARK    1  A    between atoms: C_3  and  C_4 
REMARK    2  A    between atoms: C_4  and  O_10 
ROOT
HETATM    1  N   UNL     1      63.583   8.650   5.959  1.00  0.00    -0.360 N 
ATOM      2  HN  UNL     1      63.814   8.759   6.946  1.00  0.00     0.165 HD
HETATM    3  C   UNL     1      63.850   7.501   5.287  1.00  0.00     0.108 A 
HETATM    4  C   UNL     1      63.546   7.314   3.941  1.00  0.00     0.048 A 
HETATM    5  C   UNL     1      62.938   8.353   3.229  1.00  0.00    -0.022 A 
HETATM    6  C   UNL     1      62.995   9.643   5.248  1.00  0.00     0.100 A 
HETATM    7  C   UNL     1      62.650   9.561   3.894  1.00  0.00    -0.011 A 
HETATM    8  C   UNL     1      62.609   8.219   1.871  1.00  0.00     0.012 A 
HETATM    9  C   UNL     1      62.042  10.613   3.185  1.00  0.00     0.013 A 
HETATM   10  C   UNL     1      62.004   9.269   1.179  1.00  0.00     0.001 A 
HETATM   11  C   UNL     1      61.722  10.465   1.835  1.00  0.00     0.001 A 
ENDROOT
BRANCH   3  12
HETATM   12  C   UNL     1      64.504   6.371   6.017  1.00  0.00     0.309 C 
HETATM   13  O   UNL     1      65.082   6.517   7.088  1.00  0.00    -0.258 OA
BRANCH  12  14
HETATM   14  O   UNL     1      64.374   5.193   5.355  1.00  0.00    -0.321 OA
HETATM   15  C   UNL     1      63.806   4.152   6.149  1.00  0.00     0.213 C 
ENDBRANCH  12  14
ENDBRANCH   3  12
TORSDOF 2
ENDMDL
MODEL 5
REMARK VINA RESULT:      -4.7      2.519      5.359
REMARK  2 active torsions:
REMARK  status: ('A' for Active; 'I' for Inactive)
REMARK    1  A    between atoms: C_3  and  C_4 
REMARK    2  A    between atoms: C_4  and  O_10 
ROOT
HETATM    1  N   UNL     1      62.919   7.921   6.152  1.00  0.00    -0.360 N 
ATOM      2  HN  UNL     1      61.962   8.042   6.482  1.00  0.00     0.165 HD
HETATM    3  C   UNL     1      63.533   8.857   5.384  1.00  0.00     0.108 A 
HETATM    4  C   UNL     1      64.840   8.727   4.920  1.00  0.00     0.048 A 
HETATM    5  C   UNL     1      65.570   7.581   5.249  1.00  0.00    -0.022 A 
HETATM    6  C   UNL     1      63.646   6.817   6.458  1.00  0.00     0.100 A 
HETATM    7  C   UNL     1      64.962   6.587   6.041  1.00  0.00    -0.011 A 
HETATM    8  C   UNL     1      66.891   7.399   4.809  1.00  0.00     0.012 A 
HETATM    9  C   UNL     1      65.687   5.428   6.374  1.00  0.00     0.013 A 
HETATM   10  C   UNL     1      67.600   6.247   5.148  1.00  0.00     0.001 A 
HETATM   11  C   UNL     1      66.999   5.262   5.928  1.00  0.00     0.001 A 
ENDROOT
BRANCH   3  12
HETATM   12  C   UNL     1      62.780  10.094   5.011  1.00  0.00     0.309 C 
HETATM   13  O   UNL     1      62.921  11.160   5.596  1.00  0.00    -0.258 OA
BRANCH  12  14
HETATM   14  O   UNL     1      61.942   9.883   3.963  1.00  0.00    -0.321 OA
HETATM   15  C   UNL     1      61.886  10.976   3.048  1.00  0.00     0.213 C 
ENDBRANCH  12  14
ENDBRANCH   3  12
TORSDOF 2
ENDMDL
MODEL 6
REMARK VINA RESULT:      -4.5      1.628      2.271
REMARK  2 active torsions:
REMARK  status: ('A' for Active; 'I' for Inactive)
REMARK    1  A    between atoms: C_3  and  C_4 
REMARK    2  A    between atoms: C_4  and  O_10 
ROOT
HETATM    1  N   UNL     1      65.307   8.133   6.006  1.00  0.00    -0.360 N 
ATOM      2  HN  UNL     1      66.230   8.425   6.327  1.00  0.00     0.165 HD
HETATM    3  C   UNL     1      64.714   7.004   6.470  1.00  0.00     0.108 A 
HETATM    4  C   UNL     1      63.454   6.577   6.058  1.00  0.00     0.048 A 
HETATM    5  C   UNL     1      62.751   7.336   5.116  1.00  0.00    -0.022 A 
HETATM    6  C   UNL     1      64.608   8.852   5.093  1.00  0.00     0.100 A 
HETATM    7  C   UNL     1      63.339   8.512   4.610  1.00  0.00    -0.011 A 
HETATM    8  C   UNL     1      61.478   6.953   4.666  1.00  0.00     0.012 A 
HETATM    9  C   UNL     1      62.642   9.279   3.659  1.00  0.00     0.013 A 
HETATM   10  C   UNL     1      60.795   7.724   3.725  1.00  0.00     0.001 A 
HETATM   11  C   UNL     1      61.377   8.885   3.221  1.00  0.00     0.001 A 
ENDROOT
BRANCH   3  12
HETATM   12  C   UNL     1      65.439   6.167   7.475  1.00  0.00     0.309 C 
HETATM   13  O   UNL     1      65.580   4.956   7.354  1.00  0.00    -0.258 OA
BRANCH  12  14
HETATM   14  O   UNL     1      65.909   6.908   8.511  1.00  0.00    -0.321 OA
HETATM   15  C   UNL     1      67.172   6.463   9.004  1.00  0.00     0.213 C 
ENDBRANCH  12  14
ENDBRANCH   3  12
TORSDOF 2
ENDMDL
MODEL 7
REMARK VINA RESULT:      -4.2      1.963      2.524
REMARK  2 active torsions:
REMARK  status: ('A' for Active; 'I' for Inactive)
REMARK    1  A    between atoms: C_3  and  C_4 
REMARK    2  A    between atoms: C_4  and  O_10 
ROOT
HETATM    1  N   UNL     1      62.760   9.483   3.989  1.00  0.00    -0.360 N 
ATOM      2  HN  UNL     1      63.286  10.252   4.402  1.00  0.00     0.165 HD
HETATM    3  C   UNL     1      62.632   8.287   4.618  1.00  0.00     0.108 A 
HETATM    4  C   UNL     1      61.917   7.216   4.086  1.00  0.00     0.048 A 
HETATM    5  C   UNL     1      61.296   7.361   2.842  1.00  0.00    -0.022 A 
HETATM    6  C   UNL     1      62.150   9.601   2.783  1.00  0.00     0.100 A 
HETATM    7  C   UNL     1      61.412   8.588   2.159  1.00  0.00    -0.011 A 
HETATM    8  C   UNL     1      60.563   6.315   2.259  1.00  0.00     0.012 A 
HETATM    9  C   UNL     1      60.795   8.743   0.904  1.00  0.00     0.013 A 
HETATM   10  C   UNL     1      59.953   6.482   1.016  1.00  0.00     0.001 A 
HETATM   11  C   UNL     1      60.069   7.693   0.338  1.00  0.00     0.001 A 
ENDROOT
BRANCH   3  12
HETATM   12  C   UNL     1      63.286   8.096   5.949  1.00  0.00     0.309 C 
HETATM   13  O   UNL     1      62.691   7.657   6.926  1.00  0.00    -0.258 OA
BRANCH  12  14
HETATM   14  O   UNL     1      64.593   8.462   5.931  1.00  0.00    -0.321 OA
HETATM   15  C   UNL     1      65.458   7.465   5.389  1.00  0.00     0.213 C 
ENDBRANCH  12  14
ENDBRANCH   3  12
TORSDOF 2
ENDMDL
MODEL 8
REMARK VINA RESULT:      -4.2      8.919     11.387
REMARK  2 active torsions:
REMARK  status: ('A' for Active; 'I' for Inactive)
REMARK    1  A    between atoms: C_3  and  C_4 
REMARK    2  A    between atoms: C_4  and  O_10 
ROOT
HETATM    1  N   UNL     1      59.231   1.721   9.416  1.00  0.00    -0.360 N 
ATOM      2  HN  UNL     1      59.478   1.675   8.428  1.00  0.00     0.165 HD
HETATM    3  C   UNL     1      58.639   2.818   9.954  1.00  0.00     0.108 A 
HETATM    4  C   UNL     1      58.284   2.914  11.297  1.00  0.00     0.048 A 
HETATM    5  C   UNL     1      58.545   1.836  12.150  1.00  0.00    -0.022 A 
HETATM    6  C   UNL     1      59.476   0.690  10.262  1.00  0.00     0.100 A 
HETATM    7  C   UNL     1      59.162   0.683  11.626  1.00  0.00    -0.011 A 
HETATM    8  C   UNL     1      58.207   1.878  13.512  1.00  0.00     0.012 A 
HETATM    9  C   UNL     1      59.433  -0.404  12.478  1.00  0.00     0.013 A 
HETATM   10  C   UNL     1      58.479   0.793  14.346  1.00  0.00     0.001 A 
HETATM   11  C   UNL     1      59.092  -0.346  13.830  1.00  0.00     0.001 A 
ENDROOT
BRANCH   3  12
HETATM   12  C   UNL     1      58.348   3.989   9.071  1.00  0.00     0.309 C 
HETATM   13  O   UNL     1      57.785   3.882   7.989  1.00  0.00    -0.258 OA
BRANCH  12  14
HETATM   14  O   UNL     1      58.780   5.156   9.615  1.00  0.00    -0.321 OA
HETATM   15  C   UNL     1      58.759   6.253   8.702  1.00  0.00     0.213 C 
ENDBRANCH  12  14
ENDBRANCH   3  12
TORSDOF 2
ENDMDL
MODEL 9
REMARK VINA RESULT:      -4.2      2.427      2.903
REMARK  2 active torsions:
REMARK  status: ('A' for Active; 'I' for Inactive)
REMARK    1  A    between atoms: C_3  and  C_4 
REMARK    2  A    between atoms: C_4  and  O_10 
ROOT
HETATM    1  N   UNL     1      65.879   7.293   5.137  1.00  0.00    -0.360 N 
ATOM      2  HN  UNL     1      66.698   7.006   5.672  1.00  0.00     0.165 HD
HETATM    3  C   UNL     1      65.434   6.578   4.073  1.00  0.00     0.108 A 
HETATM    4  C   UNL     1      64.318   6.938   3.322  1.00  0.00     0.048 A 
HETATM    5  C   UNL     1      63.608   8.093   3.667  1.00  0.00    -0.022 A 
HETATM    6  C   UNL     1      65.177   8.410   5.452  1.00  0.00     0.100 A 
HETATM    7  C   UNL     1      64.044   8.862   4.764  1.00  0.00    -0.011 A 
HETATM    8  C   UNL     1      62.475   8.502   2.946  1.00  0.00     0.012 A 
HETATM    9  C   UNL     1      63.340  10.028   5.115  1.00  0.00     0.013 A 
HETATM   10  C   UNL     1      61.783   9.659   3.306  1.00  0.00     0.001 A 
HETATM   11  C   UNL     1      62.215  10.421   4.389  1.00  0.00     0.001 A 
ENDROOT
BRANCH   3  12
HETATM   12  C   UNL     1      66.172   5.340   3.674  1.00  0.00     0.309 C 
HETATM   13  O   UNL     1      65.829   4.636   2.732  1.00  0.00    -0.258 OA
BRANCH  12  14
HETATM   14  O   UNL     1      67.244   5.106   4.474  1.00  0.00    -0.321 OA
HETATM   15  C   UNL     1      67.380   3.739   4.861  1.00  0.00     0.213 C 
ENDBRANCH  12  14
ENDBRANCH   3  12
TORSDOF 2
ENDMDL
