MODEL 1
REMARK VINA RESULT:      -5.8      0.000      0.000
REMARK  2 active torsions:
REMARK  status: ('A' for Active; 'I' for Inactive)
REMARK    1  A    between atoms: C_2  and  O_4 
REMARK    2  A    between atoms: O_4  and  C_5 
ROOT
HETATM    1  C   UNL     1      62.645   8.356   2.997  1.00  0.00    -0.017 A 
HETATM    2  C   UNL     1      62.886   8.497   4.358  1.00  0.00     0.086 A 
HETATM    3  C   UNL     1      62.234   9.451   2.232  1.00  0.00    -0.043 A 
HETATM    4  C   UNL     1      62.045  10.708   2.806  1.00  0.00    -0.055 A 
HETATM    5  C   UNL     1      62.668   9.737   4.958  1.00  0.00     0.038 A 
HETATM    6  C   UNL     1      62.263  10.836   4.184  1.00  0.00     0.010 A 
HETATM    7  C   UNL     1      62.758   7.119   2.168  1.00  0.00     0.042 A 
HETATM    8  C   UNL     1      62.023   9.076   0.799  1.00  0.00     0.040 A 
HETATM    9  C   UNL     1      62.403   7.592   0.751  1.00  0.00     0.009 A 
HETATM   10  C   UNL     1      61.617  11.887   1.987  1.00  0.00     0.049 C 
ENDROOT
BRANCH   2  11
HETATM   11  O   UNL     1      63.263   7.349   5.081  1.00  0.00    -0.279 OA
BRANCH  11  12
HETATM   12  C   UNL     1      64.370   7.355   5.933  1.00  0.00     0.260 C 
HETATM   13  O   UNL     1      64.371   7.228   7.150  1.00  0.00    -0.265 OA
HETATM   14  C   UNL     1      65.614   7.560   5.119  1.00  0.00     0.126 C 
ENDBRANCH  11  12
ENDBRANCH   2  11
TORSDOF 2
ENDMDL
MODEL 2
REMARK VINA RESULT:      -5.7      1.374      3.005
REMARK  2 active torsions:
REMARK  status: ('A' for Active; 'I' for Inactive)
REMARK    1  A    between atoms: C_2  and  O_4 
REMARK    2  A    between atoms: O_4  and  C_5 
ROOT
HETATM    1  C   UNL     1      63.125   9.290   4.432  1.00  0.00    -0.017 A 
HETATM    2  C   UNL     1      63.768   8.089   4.707  1.00  0.00     0.086 A 
HETATM    3  C   UNL     1      62.500   9.493   3.198  1.00  0.00    -0.043 A 
HETATM    4  C   UNL     1      62.508   8.508   2.209  1.00  0.00    -0.055 A 
HETATM    5  C   UNL     1      63.819   7.106   3.719  1.00  0.00     0.038 A 
HETATM    6  C   UNL     1      63.182   7.312   2.485  1.00  0.00     0.010 A 
HETATM    7  C   UNL     1      62.999  10.487   5.314  1.00  0.00     0.042 A 
HETATM    8  C   UNL     1      61.881  10.851   3.109  1.00  0.00     0.040 A 
HETATM    9  C   UNL     1      62.163  11.471   4.482  1.00  0.00     0.009 A 
HETATM   10  C   UNL     1      61.828   8.718   0.891  1.00  0.00     0.049 C 
ENDROOT
BRANCH   2  11
HETATM   11  O   UNL     1      64.410   7.959   5.955  1.00  0.00    -0.279 OA
BRANCH  11  12
HETATM   12  C   UNL     1      65.803   7.913   6.056  1.00  0.00     0.260 C 
HETATM   13  O   UNL     1      66.617   8.475   5.336  1.00  0.00    -0.265 OA
HETATM   14  C   UNL     1      66.182   7.032   7.210  1.00  0.00     0.126 C 
ENDBRANCH  11  12
ENDBRANCH   2  11
TORSDOF 2
ENDMDL
MODEL 3
REMARK VINA RESULT:      -5.1      1.896      4.195
REMARK  2 active torsions:
REMARK  status: ('A' for Active; 'I' for Inactive)
REMARK    1  A    between atoms: C_2  and  O_4 
REMARK    2  A    between atoms: O_4  and  C_5 
ROOT
HETATM    1  C   UNL     1      63.301   7.685   3.163  1.00  0.00    -0.017 A 
HETATM    2  C   UNL     1      63.009   8.778   3.971  1.00  0.00     0.086 A 
HETATM    3  C   UNL     1      64.444   6.915   3.399  1.00  0.00    -0.043 A 
HETATM    4  C   UNL     1      65.325   7.221   4.436  1.00  0.00    -0.055 A 
HETATM    5  C   UNL     1      63.896   9.122   4.991  1.00  0.00     0.038 A 
HETATM    6  C   UNL     1      65.038   8.340   5.228  1.00  0.00     0.010 A 
HETATM    7  C   UNL     1      62.528   7.176   1.992  1.00  0.00     0.042 A 
HETATM    8  C   UNL     1      64.571   5.799   2.411  1.00  0.00     0.040 A 
HETATM    9  C   UNL     1      63.319   5.941   1.538  1.00  0.00     0.009 A 
HETATM   10  C   UNL     1      66.544   6.390   4.699  1.00  0.00     0.049 C 
ENDROOT
BRANCH   2  11
HETATM   11  O   UNL     1      61.863   9.536   3.661  1.00  0.00    -0.279 OA
BRANCH  11  12
HETATM   12  C   UNL     1      61.922  10.925   3.526  1.00  0.00     0.260 C 
HETATM   13  O   UNL     1      62.000  11.755   4.422  1.00  0.00    -0.265 OA
HETATM   14  C   UNL     1      61.862  11.279   2.069  1.00  0.00     0.126 C 
ENDBRANCH  11  12
ENDBRANCH   2  11
TORSDOF 2
ENDMDL
MODEL 4
REMARK VINA RESULT:      -4.8      2.433      4.254
REMARK  2 active torsions:
REMARK  status: ('A' for Active; 'I' for Inactive)
REMARK    1  A    between atoms: C_2  and  O_4 
REMARK    2  A    between atoms: O_4  and  C_5 
ROOT
HETATM    1  C   UNL     1      62.961   8.425   2.929  1.00  0.00    -0.017 A 
HETATM    2  C   UNL     1      62.230   8.961   1.876  1.00  0.00     0.086 A 
HETATM    3  C   UNL     1      63.134   9.149   4.112  1.00  0.00    -0.043 A 
HETATM    4  C   UNL     1      62.591  10.424   4.270  1.00  0.00    -0.055 A 
HETATM    5  C   UNL     1      61.709  10.249   2.000  1.00  0.00     0.038 A 
HETATM    6  C   UNL     1      61.878  10.968   3.194  1.00  0.00     0.010 A 
HETATM    7  C   UNL     1      63.648   7.101   2.989  1.00  0.00     0.042 A 
HETATM    8  C   UNL     1      63.958   8.393   5.106  1.00  0.00     0.040 A 
HETATM    9  C   UNL     1      64.249   7.063   4.401  1.00  0.00     0.009 A 
HETATM   10  C   UNL     1      62.764  11.197   5.542  1.00  0.00     0.049 C 
ENDROOT
BRANCH   2  11
HETATM   11  O   UNL     1      62.121   8.198   0.696  1.00  0.00    -0.279 OA
BRANCH  11  12
HETATM   12  C   UNL     1      61.112   7.245   0.535  1.00  0.00     0.260 C 
HETATM   13  O   UNL     1      61.219   6.030   0.630  1.00  0.00    -0.265 OA
HETATM   14  C   UNL     1      59.826   7.943   0.203  1.00  0.00     0.126 C 
ENDBRANCH  11  12
ENDBRANCH   2  11
TORSDOF 2
ENDMDL
MODEL 5
REMARK VINA RESULT:      -4.6      1.573      1.917
REMARK  2 active torsions:
REMARK  status: ('A' for Active; 'I' for Inactive)
REMARK    1  A    between atoms: C_2  and  O_4 
REMARK    2  A    between atoms: O_4  and  C_5 
ROOT
HETATM    1  C   UNL     1      62.938   8.025   2.765  1.00  0.00    -0.017 A 
HETATM    2  C   UNL     1      63.574   7.510   3.888  1.00  0.00     0.086 A 
HETATM    3  C   UNL     1      62.398   9.314   2.784  1.00  0.00    -0.043 A 
HETATM    4  C   UNL     1      62.472  10.116   3.923  1.00  0.00    -0.055 A 
HETATM    5  C   UNL     1      63.627   8.282   5.049  1.00  0.00     0.038 A 
HETATM    6  C   UNL     1      63.091   9.579   5.060  1.00  0.00     0.010 A 
HETATM    7  C   UNL     1      62.720   7.357   1.447  1.00  0.00     0.042 A 
HETATM    8  C   UNL     1      61.754   9.662   1.480  1.00  0.00     0.040 A 
HETATM    9  C   UNL     1      62.000   8.424   0.610  1.00  0.00     0.009 A 
HETATM   10  C   UNL     1      61.906  11.502   3.943  1.00  0.00     0.049 C 
ENDROOT
BRANCH   2  11
HETATM   11  O   UNL     1      64.066   6.192   3.819  1.00  0.00    -0.279 OA
BRANCH  11  12
HETATM   12  C   UNL     1      65.400   5.895   4.110  1.00  0.00     0.260 C 
HETATM   13  O   UNL     1      66.397   6.437   3.651  1.00  0.00    -0.265 OA
HETATM   14  C   UNL     1      65.447   4.764   5.094  1.00  0.00     0.126 C 
ENDBRANCH  11  12
ENDBRANCH   2  11
TORSDOF 2
ENDMDL
MODEL 6
REMARK VINA RESULT:      -4.4      1.575      1.990
REMARK  2 active torsions:
REMARK  status: ('A' for Active; 'I' for Inactive)
REMARK    1  A    between atoms: C_2  and  O_4 
REMARK    2  A    between atoms: O_4  and  C_5 
ROOT
HETATM    1  C   UNL     1      63.871   7.219   3.627  1.00  0.00    -0.017 A 
HETATM    2  C   UNL     1      64.182   7.786   4.857  1.00  0.00     0.086 A 
HETATM    3  C   UNL     1      63.057   7.901   2.718  1.00  0.00    -0.043 A 
HETATM    4  C   UNL     1      62.528   9.157   3.016  1.00  0.00    -0.055 A 
HETATM    5  C   UNL     1      63.633   9.025   5.190  1.00  0.00     0.038 A 
HETATM    6  C   UNL     1      62.824   9.709   4.269  1.00  0.00     0.010 A 
HETATM    7  C   UNL     1      64.298   5.892   3.094  1.00  0.00     0.042 A 
HETATM    8  C   UNL     1      62.844   7.109   1.467  1.00  0.00     0.040 A 
HETATM    9  C   UNL     1      63.675   5.841   1.692  1.00  0.00     0.009 A 
HETATM   10  C   UNL     1      61.667   9.895   2.038  1.00  0.00     0.049 C 
ENDROOT
BRANCH   2  11
HETATM   11  O   UNL     1      64.977   7.035   5.745  1.00  0.00    -0.279 OA
BRANCH  11  12
HETATM   12  C   UNL     1      65.897   7.650   6.599  1.00  0.00     0.260 C 
HETATM   13  O   UNL     1      66.451   8.729   6.437  1.00  0.00    -0.265 OA
HETATM   14  C   UNL     1      66.133   6.763   7.785  1.00  0.00     0.126 C 
ENDBRANCH  11  12
ENDBRANCH   2  11
TORSDOF 2
ENDMDL
MODEL 7
REMARK VINA RESULT:      -4.4      2.106      3.216
REMARK  2 active torsions:
REMARK  status: ('A' for Active; 'I' for Inactive)
REMARK    1  A    between atoms: C_2  and  O_4 
REMARK    2  A    between atoms: O_4  and  C_5 
ROOT
HETATM    1  C   UNL     1      62.336   8.198   4.047  1.00  0.00    -0.017 A 
HETATM    2  C   UNL     1      63.172   8.158   5.156  1.00  0.00     0.086 A 
HETATM    3  C   UNL     1      61.173   7.423   4.007  1.00  0.00    -0.043 A 
HETATM    4  C   UNL     1      60.821   6.586   5.067  1.00  0.00    -0.055 A 
HETATM    5  C   UNL     1      62.857   7.301   6.211  1.00  0.00     0.038 A 
HETATM    6  C   UNL     1      61.683   6.532   6.170  1.00  0.00     0.010 A 
HETATM    7  C   UNL     1      62.509   8.992   2.795  1.00  0.00     0.042 A 
HETATM    8  C   UNL     1      60.429   7.608   2.724  1.00  0.00     0.040 A 
HETATM    9  C   UNL     1      61.263   8.648   1.966  1.00  0.00     0.009 A 
HETATM   10  C   UNL     1      59.569   5.765   5.034  1.00  0.00     0.049 C 
ENDROOT
BRANCH   2  11
HETATM   11  O   UNL     1      64.347   8.934   5.121  1.00  0.00    -0.279 OA
BRANCH  11  12
HETATM   12  C   UNL     1      65.578   8.411   5.527  1.00  0.00     0.260 C 
HETATM   13  O   UNL     1      66.250   8.757   6.489  1.00  0.00    -0.265 OA
HETATM   14  C   UNL     1      65.990   7.328   4.573  1.00  0.00     0.126 C 
ENDBRANCH  11  12
ENDBRANCH   2  11
TORSDOF 2
ENDMDL
MODEL 8
REMARK VINA RESULT:      -4.4      1.879      3.487
REMARK  2 active torsions:
REMARK  status: ('A' for Active; 'I' for Inactive)
REMARK    1  A    between atoms: C_2  and  O_4 
REMARK    2  A    between atoms: O_4  and  C_5 
ROOT
HETATM    1  C   UNL     1      62.666   8.080   5.258  1.00  0.00    -0.017 A 
HETATM    2  C   UNL     1      63.053   7.097   6.161  1.00  0.00     0.086 A 
HETATM    3  C   UNL     1      61.682   7.816   4.301  1.00  0.00    -0.043 A 
HETATM    4  C   UNL     1      61.068   6.566   4.216  1.00  0.00    -0.055 A 
HETATM    5  C   UNL     1      62.477   5.830   6.070  1.00  0.00     0.038 A 
HETATM    6  C   UNL     1      61.483   5.573   5.112  1.00  0.00     0.010 A 
HETATM    7  C   UNL     1      63.186   9.474   5.140  1.00  0.00     0.042 A 
HETATM    8  C   UNL     1      61.426   9.004   3.429  1.00  0.00     0.040 A 
HETATM    9  C   UNL     1      62.359  10.079   3.996  1.00  0.00     0.009 A 
HETATM   10  C   UNL     1      60.003   6.284   3.201  1.00  0.00     0.049 C 
ENDROOT
BRANCH   2  11
HETATM   11  O   UNL     1      64.075   7.413   7.077  1.00  0.00    -0.279 OA
BRANCH  11  12
HETATM   12  C   UNL     1      65.309   6.758   7.047  1.00  0.00     0.260 C 
HETATM   13  O   UNL     1      65.618   5.731   7.635  1.00  0.00    -0.265 OA
HETATM   14  C   UNL     1      66.250   7.527   6.167  1.00  0.00     0.126 C 
ENDBRANCH  11  12
ENDBRANCH   2  11
TORSDOF 2
ENDMDL
MODEL 9
REMARK VINA RESULT:      -4.2      2.404      3.506
REMARK  2 active torsions:
REMARK  status: ('A' for Active; 'I' for Inactive)
REMARK    1  A    between atoms: C_2  and  O_4 
REMARK    2  A    between atoms: O_4  and  C_5 
ROOT
HETATM    1  C   UNL     1      61.370   8.086   2.861  1.00  0.00    -0.017 A 
HETATM    2  C   UNL     1      62.207   8.142   3.968  1.00  0.00     0.086 A 
HETATM    3  C   UNL     1      60.264   7.231   2.851  1.00  0.00    -0.043 A 
HETATM    4  C   UNL     1      59.972   6.408   3.939  1.00  0.00    -0.055 A 
HETATM    5  C   UNL     1      61.954   7.301   5.052  1.00  0.00     0.038 A 
HETATM    6  C   UNL     1      60.836   6.451   5.040  1.00  0.00     0.010 A 
HETATM    7  C   UNL     1      61.485   8.849   1.583  1.00  0.00     0.042 A 
HETATM    8  C   UNL     1      59.508   7.321   1.564  1.00  0.00     0.040 A 
HETATM    9  C   UNL     1      60.266   8.390   0.769  1.00  0.00     0.009 A 
HETATM   10  C   UNL     1      58.780   5.501   3.937  1.00  0.00     0.049 C 
ENDROOT
BRANCH   2  11
HETATM   11  O   UNL     1      63.326   8.996   3.903  1.00  0.00    -0.279 OA
BRANCH  11  12
HETATM   12  C   UNL     1      63.812   9.647   5.040  1.00  0.00     0.260 C 
HETATM   13  O   UNL     1      64.800   9.350   5.699  1.00  0.00    -0.265 OA
HETATM   14  C   UNL     1      62.913  10.804   5.365  1.00  0.00     0.126 C 
ENDBRANCH  11  12
ENDBRANCH   2  11
TORSDOF 2
ENDMDL
