MODEL 1
REMARK VINA RESULT:      -5.3      0.000      0.000
REMARK  6 active torsions:
REMARK  status: ('A' for Active; 'I' for Inactive)
REMARK    1  A    between atoms: C_1  and  C_3 
REMARK    2  A    between atoms: C_1  and  O_6 
REMARK    3  A    between atoms: C_3  and  C_7 
REMARK    4  A    between atoms: C_4  and  O_12 
REMARK    5  A    between atoms: C_5  and  C_7 
REMARK    6  A    between atoms: O_6  and  C_13 
ROOT
HETATM    1  C   UNL     1      61.936  11.173   2.337  1.00  0.00     0.065 A 
HETATM    2  C   UNL     1      62.418   8.680   3.513  1.00  0.00    -0.058 A 
HETATM    3  C   UNL     1      62.022  11.073   3.721  1.00  0.00     0.037 A 
HETATM    4  C   UNL     1      62.055  10.047   1.534  1.00  0.00     0.037 A 
HETATM    5  C   UNL     1      62.290   8.802   2.119  1.00  0.00     0.010 A 
HETATM    6  C   UNL     1      62.260   9.826   4.306  1.00  0.00     0.010 A 
ENDROOT
BRANCH   2   7
HETATM    7  C   UNL     1      62.738   7.345   4.147  1.00  0.00     0.048 C 
BRANCH   7   8
HETATM    8  C   UNL     1      64.219   7.234   4.504  1.00  0.00     0.116 C 
BRANCH   8   9
HETATM    9  C   UNL     1      64.507   7.701   5.909  1.00  0.00     0.259 C 
HETATM   10  O   UNL     1      63.931   7.321   6.918  1.00  0.00    -0.265 OA
BRANCH   9  11
HETATM   11  O   UNL     1      65.538   8.593   5.877  1.00  0.00    -0.322 OA
BRANCH  11  12
HETATM   12  C   UNL     1      66.806   8.125   6.362  1.00  0.00     0.174 C 
HETATM   13  C   UNL     1      67.758   7.856   5.213  1.00  0.00     0.034 C 
ENDBRANCH  11  12
ENDBRANCH   9  11
ENDBRANCH   8   9
ENDBRANCH   7   8
ENDBRANCH   2   7
BRANCH   1  14
HETATM   14  O   UNL     1      61.739  12.374   1.722  1.00  0.00    -0.361 OA
HETATM   15  H   UNL     1      61.166  13.009   2.105  1.00  0.00     0.217 HD
ENDBRANCH   1  14
TORSDOF 6
ENDMDL
MODEL 2
REMARK VINA RESULT:      -5.2      1.137      1.506
REMARK  6 active torsions:
REMARK  status: ('A' for Active; 'I' for Inactive)
REMARK    1  A    between atoms: C_1  and  C_3 
REMARK    2  A    between atoms: C_1  and  O_6 
REMARK    3  A    between atoms: C_3  and  C_7 
REMARK    4  A    between atoms: C_4  and  O_12 
REMARK    5  A    between atoms: C_5  and  C_7 
REMARK    6  A    between atoms: O_6  and  C_13 
ROOT
HETATM    1  C   UNL     1      61.893  11.229   2.459  1.00  0.00     0.065 A 
HETATM    2  C   UNL     1      62.671   8.952   3.888  1.00  0.00    -0.058 A 
HETATM    3  C   UNL     1      62.039  11.302   3.840  1.00  0.00     0.037 A 
HETATM    4  C   UNL     1      62.098  10.033   1.786  1.00  0.00     0.037 A 
HETATM    5  C   UNL     1      62.480   8.895   2.497  1.00  0.00     0.010 A 
HETATM    6  C   UNL     1      62.425  10.163   4.551  1.00  0.00     0.010 A 
ENDROOT
BRANCH   2   7
HETATM    7  C   UNL     1      63.150   7.739   4.654  1.00  0.00     0.048 C 
BRANCH   7   8
HETATM    8  C   UNL     1      64.645   7.502   4.451  1.00  0.00     0.116 C 
BRANCH   8   9
HETATM    9  C   UNL     1      65.469   8.020   5.604  1.00  0.00     0.259 C 
HETATM   10  O   UNL     1      65.531   9.186   5.968  1.00  0.00    -0.265 OA
BRANCH   9  11
HETATM   11  O   UNL     1      66.110   6.972   6.196  1.00  0.00    -0.322 OA
BRANCH  11  12
HETATM   12  C   UNL     1      65.597   6.541   7.465  1.00  0.00     0.174 C 
HETATM   13  C   UNL     1      66.651   6.671   8.548  1.00  0.00     0.034 C 
ENDBRANCH  11  12
ENDBRANCH   9  11
ENDBRANCH   8   9
ENDBRANCH   7   8
ENDBRANCH   2   7
BRANCH   1  14
HETATM   14  O   UNL     1      61.551  12.324   1.721  1.00  0.00    -0.361 OA
HETATM   15  H   UNL     1      60.657  12.601   1.680  1.00  0.00     0.217 HD
ENDBRANCH   1  14
TORSDOF 6
ENDMDL
MODEL 3
REMARK VINA RESULT:      -4.9      1.841      2.355
REMARK  6 active torsions:
REMARK  status: ('A' for Active; 'I' for Inactive)
REMARK    1  A    between atoms: C_1  and  C_3 
REMARK    2  A    between atoms: C_1  and  O_6 
REMARK    3  A    between atoms: C_3  and  C_7 
REMARK    4  A    between atoms: C_4  and  O_12 
REMARK    5  A    between atoms: C_5  and  C_7 
REMARK    6  A    between atoms: O_6  and  C_13 
ROOT
HETATM    1  C   UNL     1      62.090  10.224   3.607  1.00  0.00     0.065 A 
HETATM    2  C   UNL     1      63.904   8.227   4.351  1.00  0.00    -0.058 A 
HETATM    3  C   UNL     1      62.750  10.317   4.827  1.00  0.00     0.037 A 
HETATM    4  C   UNL     1      62.297   9.137   2.769  1.00  0.00     0.037 A 
HETATM    5  C   UNL     1      63.196   8.137   3.141  1.00  0.00     0.010 A 
HETATM    6  C   UNL     1      63.654   9.317   5.198  1.00  0.00     0.010 A 
ENDROOT
BRANCH   2   7
HETATM    7  C   UNL     1      64.928   7.180   4.729  1.00  0.00     0.048 C 
BRANCH   7   8
HETATM    8  C   UNL     1      64.728   6.691   6.162  1.00  0.00     0.116 C 
BRANCH   8   9
HETATM    9  C   UNL     1      65.811   7.181   7.092  1.00  0.00     0.259 C 
HETATM   10  O   UNL     1      66.535   8.146   6.896  1.00  0.00    -0.265 OA
BRANCH   9  11
HETATM   11  O   UNL     1      65.829   6.392   8.204  1.00  0.00    -0.322 OA
BRANCH  11  12
HETATM   12  C   UNL     1      66.900   6.618   9.133  1.00  0.00     0.174 C 
HETATM   13  C   UNL     1      68.036   5.641   8.894  1.00  0.00     0.034 C 
ENDBRANCH  11  12
ENDBRANCH   9  11
ENDBRANCH   8   9
ENDBRANCH   7   8
ENDBRANCH   2   7
BRANCH   1  14
HETATM   14  O   UNL     1      61.227  11.193   3.189  1.00  0.00    -0.361 OA
HETATM   15  H   UNL     1      61.497  12.091   3.183  1.00  0.00     0.217 HD
ENDBRANCH   1  14
TORSDOF 6
ENDMDL
MODEL 4
REMARK VINA RESULT:      -4.9      2.223      3.449
REMARK  6 active torsions:
REMARK  status: ('A' for Active; 'I' for Inactive)
REMARK    1  A    between atoms: C_1  and  C_3 
REMARK    2  A    between atoms: C_1  and  O_6 
REMARK    3  A    between atoms: C_3  and  C_7 
REMARK    4  A    between atoms: C_4  and  O_12 
REMARK    5  A    between atoms: C_5  and  C_7 
REMARK    6  A    between atoms: O_6  and  C_13 
ROOT
HETATM    1  C   UNL     1      59.956   8.202   1.494  1.00  0.00     0.065 A 
HETATM    2  C   UNL     1      62.437   7.717   2.695  1.00  0.00    -0.058 A 
HETATM    3  C   UNL     1      61.122   8.580   0.838  1.00  0.00     0.037 A 
HETATM    4  C   UNL     1      60.008   7.615   2.751  1.00  0.00     0.037 A 
HETATM    5  C   UNL     1      61.243   7.378   3.354  1.00  0.00     0.010 A 
HETATM    6  C   UNL     1      62.360   8.340   1.441  1.00  0.00     0.010 A 
ENDROOT
BRANCH   2   7
HETATM    7  C   UNL     1      63.780   7.401   3.315  1.00  0.00     0.048 C 
BRANCH   7   8
HETATM    8  C   UNL     1      63.712   7.420   4.841  1.00  0.00     0.116 C 
BRANCH   8   9
HETATM    9  C   UNL     1      64.103   8.759   5.416  1.00  0.00     0.259 C 
HETATM   10  O   UNL     1      65.243   9.191   5.505  1.00  0.00    -0.265 OA
BRANCH   9  11
HETATM   11  O   UNL     1      62.974   9.427   5.790  1.00  0.00    -0.322 OA
BRANCH  11  12
HETATM   12  C   UNL     1      62.904  10.816   5.437  1.00  0.00     0.174 C 
HETATM   13  C   UNL     1      62.170  11.004   4.123  1.00  0.00     0.034 C 
ENDBRANCH  11  12
ENDBRANCH   9  11
ENDBRANCH   8   9
ENDBRANCH   7   8
ENDBRANCH   2   7
BRANCH   1  14
HETATM   14  O   UNL     1      58.730   8.387   0.928  1.00  0.00    -0.361 OA
HETATM   15  H   UNL     1      58.000   8.638   1.461  1.00  0.00     0.217 HD
ENDBRANCH   1  14
TORSDOF 6
ENDMDL
MODEL 5
REMARK VINA RESULT:      -4.9      2.844      5.162
REMARK  6 active torsions:
REMARK  status: ('A' for Active; 'I' for Inactive)
REMARK    1  A    between atoms: C_1  and  C_3 
REMARK    2  A    between atoms: C_1  and  O_6 
REMARK    3  A    between atoms: C_3  and  C_7 
REMARK    4  A    between atoms: C_4  and  O_12 
REMARK    5  A    between atoms: C_5  and  C_7 
REMARK    6  A    between atoms: O_6  and  C_13 
ROOT
HETATM    1  C   UNL     1      63.085  10.624   5.241  1.00  0.00     0.065 A 
HETATM    2  C   UNL     1      62.492   9.089   2.977  1.00  0.00    -0.058 A 
HETATM    3  C   UNL     1      63.639   9.356   5.108  1.00  0.00     0.037 A 
HETATM    4  C   UNL     1      62.218  11.125   4.280  1.00  0.00     0.037 A 
HETATM    5  C   UNL     1      61.917  10.359   3.153  1.00  0.00     0.010 A 
HETATM    6  C   UNL     1      63.339   8.590   3.978  1.00  0.00     0.010 A 
ENDROOT
BRANCH   2   7
HETATM    7  C   UNL     1      62.221   8.283   1.727  1.00  0.00     0.048 C 
BRANCH   7   8
HETATM    8  C   UNL     1      60.974   8.780   0.998  1.00  0.00     0.116 C 
BRANCH   8   9
HETATM    9  C   UNL     1      59.764   7.927   1.285  1.00  0.00     0.259 C 
HETATM   10  O   UNL     1      58.639   8.116   0.845  1.00  0.00    -0.265 OA
BRANCH   9  11
HETATM   11  O   UNL     1      60.134   6.889   2.088  1.00  0.00    -0.322 OA
BRANCH  11  12
HETATM   12  C   UNL     1      59.329   6.662   3.255  1.00  0.00     0.174 C 
HETATM   13  C   UNL     1      60.196   6.540   4.494  1.00  0.00     0.034 C 
ENDBRANCH  11  12
ENDBRANCH   9  11
ENDBRANCH   8   9
ENDBRANCH   7   8
ENDBRANCH   2   7
BRANCH   1  14
HETATM   14  O   UNL     1      63.378  11.419   6.309  1.00  0.00    -0.361 OA
HETATM   15  H   UNL     1      62.862  12.183   6.481  1.00  0.00     0.217 HD
ENDBRANCH   1  14
TORSDOF 6
ENDMDL
MODEL 6
REMARK VINA RESULT:      -4.8      1.832      5.959
REMARK  6 active torsions:
REMARK  status: ('A' for Active; 'I' for Inactive)
REMARK    1  A    between atoms: C_1  and  C_3 
REMARK    2  A    between atoms: C_1  and  O_6 
REMARK    3  A    between atoms: C_3  and  C_7 
REMARK    4  A    between atoms: C_4  and  O_12 
REMARK    5  A    between atoms: C_5  and  C_7 
REMARK    6  A    between atoms: O_6  and  C_13 
ROOT
HETATM    1  C   UNL     1      66.728   6.940   6.977  1.00  0.00     0.065 A 
HETATM    2  C   UNL     1      64.540   7.900   5.519  1.00  0.00    -0.058 A 
HETATM    3  C   UNL     1      65.456   6.443   7.239  1.00  0.00     0.037 A 
HETATM    4  C   UNL     1      66.919   7.929   6.022  1.00  0.00     0.037 A 
HETATM    5  C   UNL     1      65.829   8.413   5.298  1.00  0.00     0.010 A 
HETATM    6  C   UNL     1      64.365   6.926   6.512  1.00  0.00     0.010 A 
ENDROOT
BRANCH   2   7
HETATM    7  C   UNL     1      63.366   8.373   4.691  1.00  0.00     0.048 C 
BRANCH   7   8
HETATM    8  C   UNL     1      62.942   9.789   5.077  1.00  0.00     0.116 C 
BRANCH   8   9
HETATM    9  C   UNL     1      62.120  10.455   4.002  1.00  0.00     0.259 C 
HETATM   10  O   UNL     1      61.803  11.636   3.976  1.00  0.00    -0.265 OA
BRANCH   9  11
HETATM   11  O   UNL     1      61.815   9.534   3.044  1.00  0.00    -0.322 OA
BRANCH  11  12
HETATM   12  C   UNL     1      61.817   9.997   1.685  1.00  0.00     0.174 C 
HETATM   13  C   UNL     1      62.168   8.870   0.732  1.00  0.00     0.034 C 
ENDBRANCH  11  12
ENDBRANCH   9  11
ENDBRANCH   8   9
ENDBRANCH   7   8
ENDBRANCH   2   7
BRANCH   1  14
HETATM   14  O   UNL     1      67.825   6.473   7.638  1.00  0.00    -0.361 OA
HETATM   15  H   UNL     1      68.483   5.994   7.174  1.00  0.00     0.217 HD
ENDBRANCH   1  14
TORSDOF 6
ENDMDL
MODEL 7
REMARK VINA RESULT:      -4.7      3.249      5.268
REMARK  6 active torsions:
REMARK  status: ('A' for Active; 'I' for Inactive)
REMARK    1  A    between atoms: C_1  and  C_3 
REMARK    2  A    between atoms: C_1  and  O_6 
REMARK    3  A    between atoms: C_3  and  C_7 
REMARK    4  A    between atoms: C_4  and  O_12 
REMARK    5  A    between atoms: C_5  and  C_7 
REMARK    6  A    between atoms: O_6  and  C_13 
ROOT
HETATM    1  C   UNL     1      62.110  11.223   3.814  1.00  0.00     0.065 A 
HETATM    2  C   UNL     1      62.236   9.080   2.019  1.00  0.00    -0.058 A 
HETATM    3  C   UNL     1      61.780  11.426   2.478  1.00  0.00     0.037 A 
HETATM    4  C   UNL     1      62.530   9.978   4.260  1.00  0.00     0.037 A 
HETATM    5  C   UNL     1      62.600   8.910   3.365  1.00  0.00     0.010 A 
HETATM    6  C   UNL     1      61.847  10.355   1.583  1.00  0.00     0.010 A 
ENDROOT
BRANCH   2   7
HETATM    7  C   UNL     1      62.246   7.910   1.060  1.00  0.00     0.048 C 
BRANCH   7   8
HETATM    8  C   UNL     1      60.878   7.706   0.411  1.00  0.00     0.116 C 
BRANCH   8   9
HETATM    9  C   UNL     1      59.996   6.779   1.212  1.00  0.00     0.259 C 
HETATM   10  O   UNL     1      60.057   5.558   1.208  1.00  0.00    -0.265 OA
BRANCH   9  11
HETATM   11  O   UNL     1      59.141   7.526   1.968  1.00  0.00    -0.322 OA
BRANCH  11  12
HETATM   12  C   UNL     1      59.201   7.327   3.388  1.00  0.00     0.174 C 
HETATM   13  C   UNL     1      57.882   7.695   4.041  1.00  0.00     0.034 C 
ENDBRANCH  11  12
ENDBRANCH   9  11
ENDBRANCH   8   9
ENDBRANCH   7   8
ENDBRANCH   2   7
BRANCH   1  14
HETATM   14  O   UNL     1      62.026  12.231   4.728  1.00  0.00    -0.361 OA
HETATM   15  H   UNL     1      61.396  12.185   5.421  1.00  0.00     0.217 HD
ENDBRANCH   1  14
TORSDOF 6
ENDMDL
MODEL 8
REMARK VINA RESULT:      -4.6      3.332      6.920
REMARK  6 active torsions:
REMARK  status: ('A' for Active; 'I' for Inactive)
REMARK    1  A    between atoms: C_1  and  C_3 
REMARK    2  A    between atoms: C_1  and  O_6 
REMARK    3  A    between atoms: C_3  and  C_7 
REMARK    4  A    between atoms: C_4  and  O_12 
REMARK    5  A    between atoms: C_5  and  C_7 
REMARK    6  A    between atoms: O_6  and  C_13 
ROOT
HETATM    1  C   UNL     1      67.271   4.419   8.361  1.00  0.00     0.065 A 
HETATM    2  C   UNL     1      67.381   6.656   6.682  1.00  0.00    -0.058 A 
HETATM    3  C   UNL     1      66.965   5.676   8.871  1.00  0.00     0.037 A 
HETATM    4  C   UNL     1      67.659   4.266   7.037  1.00  0.00     0.037 A 
HETATM    5  C   UNL     1      67.721   5.381   6.200  1.00  0.00     0.010 A 
HETATM    6  C   UNL     1      67.024   6.792   8.032  1.00  0.00     0.010 A 
ENDROOT
BRANCH   2   7
HETATM    7  C   UNL     1      67.381   7.857   5.763  1.00  0.00     0.048 C 
BRANCH   7   8
HETATM    8  C   UNL     1      66.239   7.788   4.751  1.00  0.00     0.116 C 
BRANCH   8   9
HETATM    9  C   UNL     1      64.963   8.390   5.284  1.00  0.00     0.259 C 
HETATM   10  O   UNL     1      64.831   9.534   5.693  1.00  0.00    -0.265 OA
BRANCH   9  11
HETATM   11  O   UNL     1      63.969   7.459   5.206  1.00  0.00    -0.322 OA
BRANCH  11  12
HETATM   12  C   UNL     1      63.662   6.746   6.413  1.00  0.00     0.174 C 
HETATM   13  C   UNL     1      63.965   5.267   6.258  1.00  0.00     0.034 C 
ENDBRANCH  11  12
ENDBRANCH   9  11
ENDBRANCH   8   9
ENDBRANCH   7   8
ENDBRANCH   2   7
BRANCH   1  14
HETATM   14  O   UNL     1      67.194   3.299   9.134  1.00  0.00    -0.361 OA
HETATM   15  H   UNL     1      67.973   2.827   9.355  1.00  0.00     0.217 HD
ENDBRANCH   1  14
TORSDOF 6
ENDMDL
MODEL 9
REMARK VINA RESULT:      -4.3      2.104      5.550
REMARK  6 active torsions:
REMARK  status: ('A' for Active; 'I' for Inactive)
REMARK    1  A    between atoms: C_1  and  C_3 
REMARK    2  A    between atoms: C_1  and  O_6 
REMARK    3  A    between atoms: C_3  and  C_7 
REMARK    4  A    between atoms: C_4  and  O_12 
REMARK    5  A    between atoms: C_5  and  C_7 
REMARK    6  A    between atoms: O_6  and  C_13 
ROOT
HETATM    1  C   UNL     1      66.483   7.264   7.361  1.00  0.00     0.065 A 
HETATM    2  C   UNL     1      64.921   7.296   5.040  1.00  0.00    -0.058 A 
HETATM    3  C   UNL     1      65.389   6.412   7.259  1.00  0.00     0.037 A 
HETATM    4  C   UNL     1      66.791   8.151   6.339  1.00  0.00     0.037 A 
HETATM    5  C   UNL     1      66.010   8.172   5.183  1.00  0.00     0.010 A 
HETATM    6  C   UNL     1      64.608   6.432   6.099  1.00  0.00     0.010 A 
ENDROOT
BRANCH   2   7
HETATM    7  C   UNL     1      64.111   7.269   3.762  1.00  0.00     0.048 C 
BRANCH   7   8
HETATM    8  C   UNL     1      62.642   6.954   4.037  1.00  0.00     0.116 C 
BRANCH   8   9
HETATM    9  C   UNL     1      61.737   8.121   3.723  1.00  0.00     0.259 C 
HETATM   10  O   UNL     1      60.516   8.106   3.768  1.00  0.00    -0.265 OA
BRANCH   9  11
HETATM   11  O   UNL     1      62.504   9.205   3.414  1.00  0.00    -0.322 OA
BRANCH  11  12
HETATM   12  C   UNL     1      62.153  10.442   4.051  1.00  0.00     0.174 C 
HETATM   13  C   UNL     1      62.959  10.644   5.320  1.00  0.00     0.034 C 
ENDBRANCH  11  12
ENDBRANCH   9  11
ENDBRANCH   8   9
ENDBRANCH   7   8
ENDBRANCH   2   7
BRANCH   1  14
HETATM   14  O   UNL     1      67.292   7.254   8.459  1.00  0.00    -0.361 OA
HETATM   15  H   UNL     1      67.762   6.476   8.688  1.00  0.00     0.217 HD
ENDBRANCH   1  14
TORSDOF 6
ENDMDL
