MODEL 1
REMARK VINA RESULT:      -4.8      0.000      0.000
REMARK  4 active torsions:
REMARK  status: ('A' for Active; 'I' for Inactive)
REMARK    1  A    between atoms: C_1  and  C_4 
REMARK    2  A    between atoms: C_1  and  O_7 
REMARK    3  A    between atoms: C_3  and  C_4 
REMARK    4  A    between atoms: C_6  and  O_8 
ROOT
HETATM    1  C   UNL     1      63.422   8.826   4.548  1.00  0.00    -0.046 A 
HETATM    2  C   UNL     1      62.893   8.705   3.255  1.00  0.00     0.044 A 
HETATM    3  C   UNL     1      62.128   9.731   2.697  1.00  0.00     0.068 A 
HETATM    4  C   UNL     1      62.446  11.037   4.714  1.00  0.00     0.003 A 
HETATM    5  C   UNL     1      63.206  10.007   5.269  1.00  0.00     0.008 A 
HETATM    6  C   UNL     1      61.908  10.896   3.434  1.00  0.00     0.037 A 
ENDROOT
BRANCH   1   7
HETATM    7  C   UNL     1      64.201   7.685   5.149  1.00  0.00     0.149 C 
BRANCH   7   8
HETATM    8  C   UNL     1      63.626   7.192   6.453  1.00  0.00     0.262 C 
HETATM    9  O   UNL     1      62.447   6.940   6.638  1.00  0.00    -0.265 OA
BRANCH   8  10
HETATM   10  O   UNL     1      64.616   7.060   7.383  1.00  0.00    -0.326 OA
HETATM   11  C   UNL     1      65.935   7.131   6.842  1.00  0.00     0.213 C 
ENDBRANCH   8  10
ENDBRANCH   7   8
ENDBRANCH   1   7
BRANCH   3  12
HETATM   12  O   UNL     1      61.544   9.702   1.460  1.00  0.00    -0.356 OA
HETATM   13  C   UNL     1      62.050   8.734   0.547  1.00  0.00     0.210 C 
ENDBRANCH   3  12
TORSDOF 4
ENDMDL
MODEL 2
REMARK VINA RESULT:      -4.8      1.505      1.752
REMARK  4 active torsions:
REMARK  status: ('A' for Active; 'I' for Inactive)
REMARK    1  A    between atoms: C_1  and  C_4 
REMARK    2  A    between atoms: C_1  and  O_7 
REMARK    3  A    between atoms: C_3  and  C_4 
REMARK    4  A    between atoms: C_6  and  O_8 
ROOT
HETATM    1  C   UNL     1      63.195   9.067   4.541  1.00  0.00    -0.046 A 
HETATM    2  C   UNL     1      62.856   8.797   3.207  1.00  0.00     0.044 A 
HETATM    3  C   UNL     1      62.174   9.741   2.438  1.00  0.00     0.068 A 
HETATM    4  C   UNL     1      62.194  11.262   4.325  1.00  0.00     0.003 A 
HETATM    5  C   UNL     1      62.872  10.313   5.091  1.00  0.00     0.008 A 
HETATM    6  C   UNL     1      61.844  10.973   3.006  1.00  0.00     0.037 A 
ENDROOT
BRANCH   1   7
HETATM    7  C   UNL     1      63.887   8.013   5.366  1.00  0.00     0.149 C 
BRANCH   7   8
HETATM    8  C   UNL     1      65.369   8.250   5.514  1.00  0.00     0.262 C 
HETATM    9  O   UNL     1      65.870   9.019   6.317  1.00  0.00    -0.265 OA
BRANCH   8  10
HETATM   10  O   UNL     1      66.060   7.472   4.631  1.00  0.00    -0.326 OA
HETATM   11  C   UNL     1      67.474   7.670   4.666  1.00  0.00     0.213 C 
ENDBRANCH   8  10
ENDBRANCH   7   8
ENDBRANCH   1   7
BRANCH   3  12
HETATM   12  O   UNL     1      61.772   9.568   1.141  1.00  0.00    -0.356 OA
HETATM   13  C   UNL     1      62.078   8.309   0.550  1.00  0.00     0.210 C 
ENDBRANCH   3  12
TORSDOF 4
ENDMDL
MODEL 3
REMARK VINA RESULT:      -4.8      1.831      2.698
REMARK  4 active torsions:
REMARK  status: ('A' for Active; 'I' for Inactive)
REMARK    1  A    between atoms: C_1  and  C_4 
REMARK    2  A    between atoms: C_1  and  O_7 
REMARK    3  A    between atoms: C_3  and  C_4 
REMARK    4  A    between atoms: C_6  and  O_8 
ROOT
HETATM    1  C   UNL     1      63.412   8.167   4.122  1.00  0.00    -0.046 A 
HETATM    2  C   UNL     1      62.863   9.448   4.273  1.00  0.00     0.044 A 
HETATM    3  C   UNL     1      62.165  10.055   3.227  1.00  0.00     0.068 A 
HETATM    4  C   UNL     1      62.523   8.078   1.870  1.00  0.00     0.003 A 
HETATM    5  C   UNL     1      63.224   7.479   2.917  1.00  0.00     0.008 A 
HETATM    6  C   UNL     1      62.000   9.362   2.026  1.00  0.00     0.037 A 
ENDROOT
BRANCH   1   7
HETATM    7  C   UNL     1      64.204   7.554   5.247  1.00  0.00     0.149 C 
BRANCH   7   8
HETATM    8  C   UNL     1      65.547   8.208   5.457  1.00  0.00     0.262 C 
HETATM    9  O   UNL     1      65.758   9.118   6.240  1.00  0.00    -0.265 OA
BRANCH   8  10
HETATM   10  O   UNL     1      66.484   7.626   4.653  1.00  0.00    -0.326 OA
HETATM   11  C   UNL     1      67.821   7.748   5.139  1.00  0.00     0.213 C 
ENDBRANCH   8  10
ENDBRANCH   7   8
ENDBRANCH   1   7
BRANCH   3  12
HETATM   12  O   UNL     1      61.617  11.309   3.260  1.00  0.00    -0.356 OA
HETATM   13  C   UNL     1      61.662  12.048   2.044  1.00  0.00     0.210 C 
ENDBRANCH   3  12
TORSDOF 4
ENDMDL
MODEL 4
REMARK VINA RESULT:      -4.7      1.803      5.428
REMARK  4 active torsions:
REMARK  status: ('A' for Active; 'I' for Inactive)
REMARK    1  A    between atoms: C_1  and  C_4 
REMARK    2  A    between atoms: C_1  and  O_7 
REMARK    3  A    between atoms: C_3  and  C_4 
REMARK    4  A    between atoms: C_6  and  O_8 
ROOT
HETATM    1  C   UNL     1      63.040   8.559   3.728  1.00  0.00    -0.046 A 
HETATM    2  C   UNL     1      63.800   9.137   4.755  1.00  0.00     0.044 A 
HETATM    3  C   UNL     1      64.977   8.532   5.200  1.00  0.00     0.068 A 
HETATM    4  C   UNL     1      64.668   6.773   3.561  1.00  0.00     0.003 A 
HETATM    5  C   UNL     1      63.491   7.379   3.123  1.00  0.00     0.008 A 
HETATM    6  C   UNL     1      65.404   7.348   4.598  1.00  0.00     0.037 A 
ENDROOT
BRANCH   1   7
HETATM    7  C   UNL     1      61.747   9.203   3.298  1.00  0.00     0.149 C 
BRANCH   7   8
HETATM    8  C   UNL     1      61.913  10.163   2.148  1.00  0.00     0.262 C 
HETATM    9  O   UNL     1      62.070  11.367   2.269  1.00  0.00    -0.265 OA
BRANCH   8  10
HETATM   10  O   UNL     1      61.873   9.488   0.962  1.00  0.00    -0.326 OA
HETATM   11  C   UNL     1      60.808   8.543   0.868  1.00  0.00     0.213 C 
ENDBRANCH   8  10
ENDBRANCH   7   8
ENDBRANCH   1   7
BRANCH   3  12
HETATM   12  O   UNL     1      65.774   8.996   6.211  1.00  0.00    -0.356 OA
HETATM   13  C   UNL     1      66.769   8.099   6.691  1.00  0.00     0.210 C 
ENDBRANCH   3  12
TORSDOF 4
ENDMDL
MODEL 5
REMARK VINA RESULT:      -4.5      1.759      4.808
REMARK  4 active torsions:
REMARK  status: ('A' for Active; 'I' for Inactive)
REMARK    1  A    between atoms: C_1  and  C_4 
REMARK    2  A    between atoms: C_1  and  O_7 
REMARK    3  A    between atoms: C_3  and  C_4 
REMARK    4  A    between atoms: C_6  and  O_8 
ROOT
HETATM    1  C   UNL     1      62.163   9.490   2.197  1.00  0.00    -0.046 A 
HETATM    2  C   UNL     1      62.654   8.810   3.320  1.00  0.00     0.044 A 
HETATM    3  C   UNL     1      62.794   9.462   4.547  1.00  0.00     0.068 A 
HETATM    4  C   UNL     1      61.912  11.486   3.545  1.00  0.00     0.003 A 
HETATM    5  C   UNL     1      61.779  10.830   2.321  1.00  0.00     0.008 A 
HETATM    6  C   UNL     1      62.421  10.804   4.651  1.00  0.00     0.037 A 
ENDROOT
BRANCH   1   7
HETATM    7  C   UNL     1      62.069   8.778   0.872  1.00  0.00     0.149 C 
BRANCH   7   8
HETATM    8  C   UNL     1      60.840   7.913   0.746  1.00  0.00     0.262 C 
HETATM    9  O   UNL     1      59.728   8.327   0.462  1.00  0.00    -0.265 OA
BRANCH   8  10
HETATM   10  O   UNL     1      61.158   6.607   0.984  1.00  0.00    -0.326 OA
HETATM   11  C   UNL     1      60.414   6.013   2.048  1.00  0.00     0.213 C 
ENDBRANCH   8  10
ENDBRANCH   7   8
ENDBRANCH   1   7
BRANCH   3  12
HETATM   12  O   UNL     1      63.288   8.901   5.693  1.00  0.00    -0.356 OA
HETATM   13  C   UNL     1      62.716   7.656   6.082  1.00  0.00     0.210 C 
ENDBRANCH   3  12
TORSDOF 4
ENDMDL
MODEL 6
REMARK VINA RESULT:      -4.1      3.130      7.222
REMARK  4 active torsions:
REMARK  status: ('A' for Active; 'I' for Inactive)
REMARK    1  A    between atoms: C_1  and  C_4 
REMARK    2  A    between atoms: C_1  and  O_7 
REMARK    3  A    between atoms: C_3  and  C_4 
REMARK    4  A    between atoms: C_6  and  O_8 
ROOT
HETATM    1  C   UNL     1      66.197   6.276   7.290  1.00  0.00    -0.046 A 
HETATM    2  C   UNL     1      66.477   4.928   7.027  1.00  0.00     0.044 A 
HETATM    3  C   UNL     1      67.376   4.216   7.823  1.00  0.00     0.068 A 
HETATM    4  C   UNL     1      67.697   6.192   9.190  1.00  0.00     0.003 A 
HETATM    5  C   UNL     1      66.802   6.900   8.388  1.00  0.00     0.008 A 
HETATM    6  C   UNL     1      67.984   4.857   8.905  1.00  0.00     0.037 A 
ENDROOT
BRANCH   1   7
HETATM    7  C   UNL     1      65.262   7.038   6.386  1.00  0.00     0.149 C 
BRANCH   7   8
HETATM    8  C   UNL     1      65.911   8.228   5.725  1.00  0.00     0.262 C 
HETATM    9  O   UNL     1      67.023   8.219   5.223  1.00  0.00    -0.265 OA
BRANCH   8  10
HETATM   10  O   UNL     1      65.071   9.303   5.762  1.00  0.00    -0.326 OA
HETATM   11  C   UNL     1      63.834   9.097   5.079  1.00  0.00     0.213 C 
ENDBRANCH   8  10
ENDBRANCH   7   8
ENDBRANCH   1   7
BRANCH   3  12
HETATM   12  O   UNL     1      67.741   2.911   7.636  1.00  0.00    -0.356 OA
HETATM   13  C   UNL     1      68.075   2.175   8.808  1.00  0.00     0.210 C 
ENDBRANCH   3  12
TORSDOF 4
ENDMDL
MODEL 7
REMARK VINA RESULT:      -4.0      2.180      2.768
REMARK  4 active torsions:
REMARK  status: ('A' for Active; 'I' for Inactive)
REMARK    1  A    between atoms: C_1  and  C_4 
REMARK    2  A    between atoms: C_1  and  O_7 
REMARK    3  A    between atoms: C_3  and  C_4 
REMARK    4  A    between atoms: C_6  and  O_8 
ROOT
HETATM    1  C   UNL     1      62.152   8.580   3.701  1.00  0.00    -0.046 A 
HETATM    2  C   UNL     1      61.405   7.514   3.180  1.00  0.00     0.044 A 
HETATM    3  C   UNL     1      60.825   7.600   1.912  1.00  0.00     0.068 A 
HETATM    4  C   UNL     1      61.769   9.817   1.654  1.00  0.00     0.003 A 
HETATM    5  C   UNL     1      62.343   9.728   2.922  1.00  0.00     0.008 A 
HETATM    6  C   UNL     1      61.011   8.757   1.155  1.00  0.00     0.037 A 
ENDROOT
BRANCH   1   7
HETATM    7  C   UNL     1      62.725   8.484   5.091  1.00  0.00     0.149 C 
BRANCH   7   8
HETATM    8  C   UNL     1      64.084   9.126   5.220  1.00  0.00     0.262 C 
HETATM    9  O   UNL     1      64.290  10.210   5.742  1.00  0.00    -0.265 OA
BRANCH   8  10
HETATM   10  O   UNL     1      65.041   8.316   4.682  1.00  0.00    -0.326 OA
HETATM   11  C   UNL     1      66.059   7.927   5.604  1.00  0.00     0.213 C 
ENDBRANCH   8  10
ENDBRANCH   7   8
ENDBRANCH   1   7
BRANCH   3  12
HETATM   12  O   UNL     1      60.056   6.632   1.325  1.00  0.00    -0.356 OA
HETATM   13  C   UNL     1      58.929   7.087   0.583  1.00  0.00     0.210 C 
ENDBRANCH   3  12
TORSDOF 4
ENDMDL
MODEL 8
REMARK VINA RESULT:      -3.9      3.120      4.249
REMARK  4 active torsions:
REMARK  status: ('A' for Active; 'I' for Inactive)
REMARK    1  A    between atoms: C_1  and  C_4 
REMARK    2  A    between atoms: C_1  and  O_7 
REMARK    3  A    between atoms: C_3  and  C_4 
REMARK    4  A    between atoms: C_6  and  O_8 
ROOT
HETATM    1  C   UNL     1      61.010   8.115   2.906  1.00  0.00    -0.046 A 
HETATM    2  C   UNL     1      61.241   9.148   3.825  1.00  0.00     0.044 A 
HETATM    3  C   UNL     1      61.781  10.367   3.410  1.00  0.00     0.068 A 
HETATM    4  C   UNL     1      61.830   9.543   1.130  1.00  0.00     0.003 A 
HETATM    5  C   UNL     1      61.295   8.326   1.552  1.00  0.00     0.008 A 
HETATM    6  C   UNL     1      62.075  10.556   2.058  1.00  0.00     0.037 A 
ENDROOT
BRANCH   1   7
HETATM    7  C   UNL     1      60.474   6.790   3.386  1.00  0.00     0.149 C 
BRANCH   7   8
HETATM    8  C   UNL     1      59.125   6.899   4.049  1.00  0.00     0.262 C 
HETATM    9  O   UNL     1      58.141   7.408   3.538  1.00  0.00    -0.265 OA
BRANCH   8  10
HETATM   10  O   UNL     1      59.165   6.337   5.293  1.00  0.00    -0.326 OA
HETATM   11  C   UNL     1      60.321   5.533   5.529  1.00  0.00     0.213 C 
ENDBRANCH   8  10
ENDBRANCH   7   8
ENDBRANCH   1   7
BRANCH   3  12
HETATM   12  O   UNL     1      62.071  11.426   4.227  1.00  0.00    -0.356 OA
HETATM   13  C   UNL     1      62.787  11.123   5.420  1.00  0.00     0.210 C 
ENDBRANCH   3  12
TORSDOF 4
ENDMDL
MODEL 9
REMARK VINA RESULT:      -3.8      3.562      5.421
REMARK  4 active torsions:
REMARK  status: ('A' for Active; 'I' for Inactive)
REMARK    1  A    between atoms: C_1  and  C_4 
REMARK    2  A    between atoms: C_1  and  O_7 
REMARK    3  A    between atoms: C_3  and  C_4 
REMARK    4  A    between atoms: C_6  and  O_8 
ROOT
HETATM    1  C   UNL     1      67.169   6.298   6.801  1.00  0.00    -0.046 A 
HETATM    2  C   UNL     1      65.832   6.644   7.041  1.00  0.00     0.044 A 
HETATM    3  C   UNL     1      65.141   7.480   6.161  1.00  0.00     0.068 A 
HETATM    4  C   UNL     1      67.116   7.603   4.761  1.00  0.00     0.003 A 
HETATM    5  C   UNL     1      67.803   6.771   5.645  1.00  0.00     0.008 A 
HETATM    6  C   UNL     1      65.791   7.957   5.022  1.00  0.00     0.037 A 
ENDROOT
BRANCH   1   7
HETATM    7  C   UNL     1      67.910   5.435   7.790  1.00  0.00     0.149 C 
BRANCH   7   8
HETATM    8  C   UNL     1      67.475   3.992   7.765  1.00  0.00     0.262 C 
HETATM    9  O   UNL     1      67.381   3.315   6.754  1.00  0.00    -0.265 OA
BRANCH   8  10
HETATM   10  O   UNL     1      67.218   3.555   9.032  1.00  0.00    -0.326 OA
HETATM   11  C   UNL     1      67.958   2.394   9.408  1.00  0.00     0.213 C 
ENDBRANCH   8  10
ENDBRANCH   7   8
ENDBRANCH   1   7
BRANCH   3  12
HETATM   12  O   UNL     1      63.848   7.900   6.317  1.00  0.00    -0.356 OA
HETATM   13  C   UNL     1      62.836   6.929   6.074  1.00  0.00     0.210 C 
ENDBRANCH   3  12
TORSDOF 4
ENDMDL
