MODEL 1
REMARK VINA RESULT:      -4.4      0.000      0.000
REMARK  1 active torsions:
REMARK  status: ('A' for Active; 'I' for Inactive)
REMARK    1  A    between atoms: N_7  and  O_11 
ROOT
HETATM    1  C   UNL     1      61.291   7.399   3.186  1.00  0.00     0.004 C 
HETATM    2  C   UNL     1      62.337   8.547   3.193  1.00  0.00    -0.031 C 
HETATM    3  C   UNL     1      60.304   7.967   2.167  1.00  0.00     0.019 C 
HETATM    4  C   UNL     1      62.499   8.502   1.644  1.00  0.00    -0.000 C 
HETATM    5  C   UNL     1      61.063   8.734   1.103  1.00  0.00     0.060 C 
HETATM    6  C   UNL     1      61.996   6.258   2.414  1.00  0.00     0.016 C 
HETATM    7  N   UNL     1      59.025   7.785   2.241  1.00  0.00    -0.277 N 
ATOM      8  HN  UNL     1      58.556   7.248   2.971  1.00  0.00     0.193 HD
HETATM    9  C   UNL     1      62.852   7.018   1.375  1.00  0.00     0.007 C 
HETATM   10  C   UNL     1      60.707   6.991   4.521  1.00  0.00     0.022 C 
HETATM   11  C   UNL     1      63.623   8.226   3.977  1.00  0.00     0.016 C 
HETATM   12  C   UNL     1      61.817   9.894   3.734  1.00  0.00     0.016 C 
ENDROOT
BRANCH   7  13
HETATM   13  O   UNL     1      58.374   8.429   1.181  1.00  0.00    -0.290 OA
HETATM   14  H   UNL     1      57.499   8.181   0.949  1.00  0.00     0.244 HD
ENDBRANCH   7  13
TORSDOF 1
ENDMDL
MODEL 2
REMARK VINA RESULT:      -4.3      1.033      2.720
REMARK  1 active torsions:
REMARK  status: ('A' for Active; 'I' for Inactive)
REMARK    1  A    between atoms: N_7  and  O_11 
ROOT
HETATM    1  C   UNL     1      61.815   8.464   1.774  1.00  0.00     0.004 C 
HETATM    2  C   UNL     1      62.272   7.363   2.770  1.00  0.00    -0.031 C 
HETATM    3  C   UNL     1      60.301   8.286   1.882  1.00  0.00     0.019 C 
HETATM    4  C   UNL     1      61.367   7.920   3.909  1.00  0.00    -0.000 C 
HETATM    5  C   UNL     1      59.938   7.906   3.304  1.00  0.00     0.060 C 
HETATM    6  C   UNL     1      62.082   9.786   2.534  1.00  0.00     0.016 C 
HETATM    7  N   UNL     1      59.495   8.454   0.884  1.00  0.00    -0.277 N 
ATOM      8  HN  UNL     1      59.784   8.723  -0.056  1.00  0.00     0.193 HD
HETATM    9  C   UNL     1      61.805   9.403   4.006  1.00  0.00     0.007 C 
HETATM   10  C   UNL     1      62.393   8.411   0.377  1.00  0.00     0.022 C 
HETATM   11  C   UNL     1      63.779   7.381   3.088  1.00  0.00     0.016 C 
HETATM   12  C   UNL     1      61.930   5.921   2.342  1.00  0.00     0.016 C 
ENDROOT
BRANCH   7  13
HETATM   13  O   UNL     1      58.172   8.213   1.274  1.00  0.00    -0.290 OA
HETATM   14  H   UNL     1      57.779   7.378   1.108  1.00  0.00     0.244 HD
ENDBRANCH   7  13
TORSDOF 1
ENDMDL
MODEL 3
REMARK VINA RESULT:      -4.3      5.414      6.410
REMARK  1 active torsions:
REMARK  status: ('A' for Active; 'I' for Inactive)
REMARK    1  A    between atoms: N_7  and  O_11 
ROOT
HETATM    1  C   UNL     1      65.366   6.077   6.081  1.00  0.00     0.004 C 
HETATM    2  C   UNL     1      66.503   5.777   7.096  1.00  0.00    -0.031 C 
HETATM    3  C   UNL     1      65.493   7.598   6.007  1.00  0.00     0.019 C 
HETATM    4  C   UNL     1      67.553   6.565   6.257  1.00  0.00    -0.000 C 
HETATM    5  C   UNL     1      66.952   7.990   6.131  1.00  0.00     0.060 C 
HETATM    6  C   UNL     1      65.940   5.597   4.727  1.00  0.00     0.016 C 
HETATM    7  N   UNL     1      64.479   8.387   5.852  1.00  0.00    -0.277 N 
ATOM      8  HN  UNL     1      63.512   8.078   5.759  1.00  0.00     0.193 HD
HETATM    9  C   UNL     1      67.450   5.902   4.861  1.00  0.00     0.007 C 
HETATM   10  C   UNL     1      63.990   5.540   6.410  1.00  0.00     0.022 C 
HETATM   11  C   UNL     1      66.819   4.280   7.269  1.00  0.00     0.016 C 
HETATM   12  C   UNL     1      66.273   6.345   8.512  1.00  0.00     0.016 C 
ENDROOT
BRANCH   7  13
HETATM   13  O   UNL     1      64.895   9.725   5.830  1.00  0.00    -0.290 OA
HETATM   14  H   UNL     1      64.994  10.171   5.011  1.00  0.00     0.244 HD
ENDBRANCH   7  13
TORSDOF 1
ENDMDL
MODEL 4
REMARK VINA RESULT:      -4.3      2.126      3.124
REMARK  1 active torsions:
REMARK  status: ('A' for Active; 'I' for Inactive)
REMARK    1  A    between atoms: N_7  and  O_11 
ROOT
HETATM    1  C   UNL     1      61.440   8.331   1.978  1.00  0.00     0.004 C 
HETATM    2  C   UNL     1      61.008   7.373   3.122  1.00  0.00    -0.031 C 
HETATM    3  C   UNL     1      61.740   9.584   2.801  1.00  0.00     0.019 C 
HETATM    4  C   UNL     1      62.311   7.642   3.932  1.00  0.00    -0.000 C 
HETATM    5  C   UNL     1      62.322   9.180   4.141  1.00  0.00     0.060 C 
HETATM    6  C   UNL     1      62.843   7.818   1.573  1.00  0.00     0.016 C 
HETATM    7  N   UNL     1      61.519  10.784   2.371  1.00  0.00    -0.277 N 
ATOM      8  HN  UNL     1      61.136  11.010   1.453  1.00  0.00     0.193 HD
HETATM    9  C   UNL     1      63.429   7.314   2.912  1.00  0.00     0.007 C 
HETATM   10  C   UNL     1      60.475   8.508   0.826  1.00  0.00     0.022 C 
HETATM   11  C   UNL     1      60.821   5.909   2.684  1.00  0.00     0.016 C 
HETATM   12  C   UNL     1      59.714   7.782   3.855  1.00  0.00     0.016 C 
ENDROOT
BRANCH   7  13
HETATM   13  O   UNL     1      61.878  11.729   3.341  1.00  0.00    -0.290 OA
HETATM   14  H   UNL     1      61.793  11.520   4.251  1.00  0.00     0.244 HD
ENDBRANCH   7  13
TORSDOF 1
ENDMDL
MODEL 5
REMARK VINA RESULT:      -4.3      1.940      2.623
REMARK  1 active torsions:
REMARK  status: ('A' for Active; 'I' for Inactive)
REMARK    1  A    between atoms: N_7  and  O_11 
ROOT
HETATM    1  C   UNL     1      60.985   7.676   2.719  1.00  0.00     0.004 C 
HETATM    2  C   UNL     1      62.228   7.059   2.020  1.00  0.00    -0.031 C 
HETATM    3  C   UNL     1      61.375   9.152   2.665  1.00  0.00     0.019 C 
HETATM    4  C   UNL     1      62.082   7.996   0.784  1.00  0.00    -0.000 C 
HETATM    5  C   UNL     1      62.131   9.428   1.380  1.00  0.00     0.060 C 
HETATM    6  C   UNL     1      59.864   7.555   1.659  1.00  0.00     0.016 C 
HETATM    7  N   UNL     1      61.074   9.999   3.595  1.00  0.00    -0.277 N 
ATOM      8  HN  UNL     1      60.550   9.772   4.440  1.00  0.00     0.193 HD
HETATM    9  C   UNL     1      60.625   7.743   0.326  1.00  0.00     0.007 C 
HETATM   10  C   UNL     1      60.624   7.133   4.085  1.00  0.00     0.022 C 
HETATM   11  C   UNL     1      62.096   5.558   1.701  1.00  0.00     0.016 C 
HETATM   12  C   UNL     1      63.554   7.231   2.788  1.00  0.00     0.016 C 
ENDROOT
BRANCH   7  13
HETATM   13  O   UNL     1      61.568  11.272   3.281  1.00  0.00    -0.290 OA
HETATM   14  H   UNL     1      61.252  11.723   2.522  1.00  0.00     0.244 HD
ENDBRANCH   7  13
TORSDOF 1
ENDMDL
MODEL 6
REMARK VINA RESULT:      -4.1      5.550      6.629
REMARK  1 active torsions:
REMARK  status: ('A' for Active; 'I' for Inactive)
REMARK    1  A    between atoms: N_7  and  O_11 
ROOT
HETATM    1  C   UNL     1      65.093   6.299   6.005  1.00  0.00     0.004 C 
HETATM    2  C   UNL     1      65.856   6.493   4.666  1.00  0.00    -0.031 C 
HETATM    3  C   UNL     1      66.111   6.914   6.965  1.00  0.00     0.019 C 
HETATM    4  C   UNL     1      66.063   8.015   4.925  1.00  0.00    -0.000 C 
HETATM    5  C   UNL     1      66.808   8.075   6.284  1.00  0.00     0.060 C 
HETATM    6  C   UNL     1      63.964   7.356   5.945  1.00  0.00     0.016 C 
HETATM    7  N   UNL     1      66.305   6.477   8.167  1.00  0.00    -0.277 N 
ATOM      8  HN  UNL     1      65.801   5.698   8.590  1.00  0.00     0.193 HD
HETATM    9  C   UNL     1      64.622   8.524   5.174  1.00  0.00     0.007 C 
HETATM   10  C   UNL     1      64.628   4.898   6.336  1.00  0.00     0.022 C 
HETATM   11  C   UNL     1      65.026   6.166   3.411  1.00  0.00     0.016 C 
HETATM   12  C   UNL     1      67.168   5.689   4.547  1.00  0.00     0.016 C 
ENDROOT
BRANCH   7  13
HETATM   13  O   UNL     1      67.303   7.224   8.807  1.00  0.00    -0.290 OA
HETATM   14  H   UNL     1      67.233   7.410   9.723  1.00  0.00     0.244 HD
ENDBRANCH   7  13
TORSDOF 1
ENDMDL
MODEL 7
REMARK VINA RESULT:      -4.1      2.364      3.615
REMARK  1 active torsions:
REMARK  status: ('A' for Active; 'I' for Inactive)
REMARK    1  A    between atoms: N_7  and  O_11 
ROOT
HETATM    1  C   UNL     1      63.319   7.947   4.871  1.00  0.00     0.004 C 
HETATM    2  C   UNL     1      63.149   6.713   3.944  1.00  0.00    -0.031 C 
HETATM    3  C   UNL     1      62.243   8.856   4.279  1.00  0.00     0.019 C 
HETATM    4  C   UNL     1      61.620   6.623   4.231  1.00  0.00    -0.000 C 
HETATM    5  C   UNL     1      61.070   8.013   3.817  1.00  0.00     0.060 C 
HETATM    6  C   UNL     1      62.708   7.488   6.217  1.00  0.00     0.016 C 
HETATM    7  N   UNL     1      62.359  10.142   4.212  1.00  0.00    -0.277 N 
ATOM      8  HN  UNL     1      63.164  10.671   4.548  1.00  0.00     0.193 HD
HETATM    9  C   UNL     1      61.560   6.552   5.777  1.00  0.00     0.007 C 
HETATM   10  C   UNL     1      64.707   8.542   4.978  1.00  0.00     0.022 C 
HETATM   11  C   UNL     1      63.953   5.475   4.383  1.00  0.00     0.016 C 
HETATM   12  C   UNL     1      63.499   6.962   2.463  1.00  0.00     0.016 C 
ENDROOT
BRANCH   7  13
HETATM   13  O   UNL     1      61.227  10.709   3.612  1.00  0.00    -0.290 OA
HETATM   14  H   UNL     1      61.283  11.554   3.211  1.00  0.00     0.244 HD
ENDBRANCH   7  13
TORSDOF 1
ENDMDL
MODEL 8
REMARK VINA RESULT:      -4.0     11.981     13.660
REMARK  1 active torsions:
REMARK  status: ('A' for Active; 'I' for Inactive)
REMARK    1  A    between atoms: N_7  and  O_11 
ROOT
HETATM    1  C   UNL     1      57.593   1.662  12.774  1.00  0.00     0.004 C 
HETATM    2  C   UNL     1      57.460   0.253  12.133  1.00  0.00    -0.031 C 
HETATM    3  C   UNL     1      56.434   1.594  13.768  1.00  0.00     0.019 C 
HETATM    4  C   UNL     1      57.487  -0.456  13.519  1.00  0.00    -0.000 C 
HETATM    5  C   UNL     1      56.306   0.181  14.299  1.00  0.00     0.060 C 
HETATM    6  C   UNL     1      58.849   1.544  13.671  1.00  0.00     0.016 C 
HETATM    7  N   UNL     1      55.708   2.619  14.080  1.00  0.00    -0.277 N 
ATOM      8  HN  UNL     1      55.839   3.559  13.707  1.00  0.00     0.193 HD
HETATM    9  C   UNL     1      58.793   0.078  14.158  1.00  0.00     0.007 C 
HETATM   10  C   UNL     1      57.597   2.849  11.836  1.00  0.00     0.022 C 
HETATM   11  C   UNL     1      58.623  -0.129  11.198  1.00  0.00     0.016 C 
HETATM   12  C   UNL     1      56.161   0.026  11.334  1.00  0.00     0.016 C 
ENDROOT
BRANCH   7  13
HETATM   13  O   UNL     1      54.717   2.257  15.002  1.00  0.00    -0.290 OA
HETATM   14  H   UNL     1      54.218   1.474  14.871  1.00  0.00     0.244 HD
ENDBRANCH   7  13
TORSDOF 1
ENDMDL
MODEL 9
REMARK VINA RESULT:      -4.0      2.818      3.634
REMARK  1 active torsions:
REMARK  status: ('A' for Active; 'I' for Inactive)
REMARK    1  A    between atoms: N_7  and  O_11 
ROOT
HETATM    1  C   UNL     1      61.751   6.966   3.646  1.00  0.00     0.004 C 
HETATM    2  C   UNL     1      62.937   7.276   2.691  1.00  0.00    -0.031 C 
HETATM    3  C   UNL     1      62.314   7.548   4.941  1.00  0.00     0.019 C 
HETATM    4  C   UNL     1      62.949   8.783   3.084  1.00  0.00    -0.000 C 
HETATM    5  C   UNL     1      63.144   8.776   4.623  1.00  0.00     0.060 C 
HETATM    6  C   UNL     1      60.663   7.985   3.230  1.00  0.00     0.016 C 
HETATM    7  N   UNL     1      62.082   7.038   6.107  1.00  0.00    -0.277 N 
ATOM      8  HN  UNL     1      61.504   6.215   6.276  1.00  0.00     0.193 HD
HETATM    9  C   UNL     1      61.489   9.224   2.813  1.00  0.00     0.007 C 
HETATM   10  C   UNL     1      61.278   5.530   3.712  1.00  0.00     0.022 C 
HETATM   11  C   UNL     1      62.640   7.007   1.204  1.00  0.00     0.016 C 
HETATM   12  C   UNL     1      64.245   6.528   3.020  1.00  0.00     0.016 C 
ENDROOT
BRANCH   7  13
HETATM   13  O   UNL     1      62.734   7.774   7.105  1.00  0.00    -0.290 OA
HETATM   14  H   UNL     1      62.306   8.507   7.502  1.00  0.00     0.244 HD
ENDBRANCH   7  13
TORSDOF 1
ENDMDL
