MODEL 1
REMARK VINA RESULT:      -5.3      0.000      0.000
REMARK  3 active torsions:
REMARK  status: ('A' for Active; 'I' for Inactive)
REMARK    1  A    between atoms: C_1  and  C_5 
REMARK    2  A    between atoms: C_2  and  N_3 
REMARK    3  A    between atoms: C_4  and  N_13 
ROOT
HETATM    1  C   UNL     1      63.934   7.106   4.462  1.00  0.00     0.057 C 
HETATM    2  C   UNL     1      63.453   6.442   3.299  1.00  0.00     0.053 C 
HETATM    3  C   UNL     1      62.518   8.561   2.463  1.00  0.00     0.050 C 
HETATM    4  C   UNL     1      62.807   7.202   2.298  1.00  0.00     0.047 C 
HETATM    5  C   UNL     1      63.461   8.422   4.664  1.00  0.00     0.032 C 
HETATM    6  C   UNL     1      62.766   9.144   3.697  1.00  0.00     0.018 C 
ENDROOT
BRANCH   1   7
HETATM    7  N   UNL     1      64.900   6.572   5.334  1.00  0.00    -0.375 N 
HETATM    8  C   UNL     1      66.326   6.818   5.042  1.00  0.00     0.149 C 
HETATM    9  C   UNL     1      66.798   8.033   5.859  1.00  0.00     0.187 C 
HETATM   10  O   UNL     1      66.577   7.909   7.275  1.00  0.00    -0.388 OA
HETATM   11  C   UNL     1      65.892   6.701   7.631  1.00  0.00     0.187 C 
HETATM   12  C   UNL     1      64.628   6.438   6.778  1.00  0.00     0.149 C 
ENDBRANCH   1   7
BRANCH   2  13
HETATM   13  N   UNL     1      63.812   5.126   2.945  1.00  0.00    -0.397 N 
HETATM   14  H   UNL     1      63.639   4.796   2.034  1.00  0.00     0.156 HD
HETATM   15  H   UNL     1      64.236   4.537   3.610  1.00  0.00     0.156 HD
ENDBRANCH   2  13
BRANCH   3  16
HETATM   16  C   UNL     1      62.054   9.430   1.325  1.00  0.00     0.417 C 
HETATM   17  F   UNL     1      62.060  10.761   1.606  1.00  0.00    -0.166 F 
HETATM   18  F   UNL     1      60.774   9.133   0.955  1.00  0.00    -0.166 F 
HETATM   19  F   UNL     1      62.808   9.276   0.200  1.00  0.00    -0.166 F 
ENDBRANCH   3  16
TORSDOF 3
ENDMDL
MODEL 2
REMARK VINA RESULT:      -5.2      4.110      5.892
REMARK  3 active torsions:
REMARK  status: ('A' for Active; 'I' for Inactive)
REMARK    1  A    between atoms: C_1  and  C_5 
REMARK    2  A    between atoms: C_2  and  N_3 
REMARK    3  A    between atoms: C_4  and  N_13 
ROOT
HETATM    1  C   UNL     1      63.091   8.242   3.916  1.00  0.00     0.057 C 
HETATM    2  C   UNL     1      63.689   8.931   5.007  1.00  0.00     0.053 C 
HETATM    3  C   UNL     1      65.751   7.614   4.724  1.00  0.00     0.050 C 
HETATM    4  C   UNL     1      65.030   8.640   5.346  1.00  0.00     0.047 C 
HETATM    5  C   UNL     1      63.785   7.103   3.448  1.00  0.00     0.032 C 
HETATM    6  C   UNL     1      65.084   6.783   3.836  1.00  0.00     0.018 C 
ENDROOT
BRANCH   1   7
HETATM    7  N   UNL     1      61.938   8.680   3.240  1.00  0.00    -0.375 N 
HETATM    8  C   UNL     1      62.072   9.768   2.252  1.00  0.00     0.149 C 
HETATM    9  C   UNL     1      62.208   9.152   0.849  1.00  0.00     0.187 C 
HETATM   10  O   UNL     1      61.135   8.262   0.493  1.00  0.00    -0.388 OA
HETATM   11  C   UNL     1      60.188   8.075   1.552  1.00  0.00     0.187 C 
HETATM   12  C   UNL     1      60.847   7.742   2.913  1.00  0.00     0.149 C 
ENDBRANCH   1   7
BRANCH   2  13
HETATM   13  N   UNL     1      63.133  10.080   5.605  1.00  0.00    -0.397 N 
HETATM   14  H   UNL     1      62.268  10.428   5.293  1.00  0.00     0.156 HD
HETATM   15  H   UNL     1      63.612  10.534   6.335  1.00  0.00     0.156 HD
ENDBRANCH   2  13
BRANCH   3  16
HETATM   16  C   UNL     1      67.236   7.451   4.902  1.00  0.00     0.417 C 
HETATM   17  F   UNL     1      67.981   8.310   4.154  1.00  0.00    -0.166 F 
HETATM   18  F   UNL     1      67.651   6.199   4.554  1.00  0.00    -0.166 F 
HETATM   19  F   UNL     1      67.637   7.627   6.193  1.00  0.00    -0.166 F 
ENDBRANCH   3  16
TORSDOF 3
ENDMDL
MODEL 3
REMARK VINA RESULT:      -5.1      1.786      2.592
REMARK  3 active torsions:
REMARK  status: ('A' for Active; 'I' for Inactive)
REMARK    1  A    between atoms: C_1  and  C_5 
REMARK    2  A    between atoms: C_2  and  N_3 
REMARK    3  A    between atoms: C_4  and  N_13 
ROOT
HETATM    1  C   UNL     1      64.821   6.866   4.735  1.00  0.00     0.057 C 
HETATM    2  C   UNL     1      65.007   8.144   5.330  1.00  0.00     0.053 C 
HETATM    3  C   UNL     1      63.194   9.068   3.944  1.00  0.00     0.050 C 
HETATM    4  C   UNL     1      64.145   9.202   4.962  1.00  0.00     0.047 C 
HETATM    5  C   UNL     1      63.984   6.830   3.597  1.00  0.00     0.032 C 
HETATM    6  C   UNL     1      63.185   7.899   3.198  1.00  0.00     0.018 C 
ENDROOT
BRANCH   1   7
HETATM    7  N   UNL     1      65.329   5.666   5.263  1.00  0.00    -0.375 N 
HETATM    8  C   UNL     1      66.671   5.222   4.836  1.00  0.00     0.149 C 
HETATM    9  C   UNL     1      67.703   5.684   5.879  1.00  0.00     0.187 C 
HETATM   10  O   UNL     1      67.418   5.247   7.219  1.00  0.00    -0.388 OA
HETATM   11  C   UNL     1      66.185   4.524   7.322  1.00  0.00     0.187 C 
HETATM   12  C   UNL     1      64.996   5.238   6.634  1.00  0.00     0.149 C 
ENDBRANCH   1   7
BRANCH   2  13
HETATM   13  N   UNL     1      65.814   8.368   6.464  1.00  0.00    -0.397 N 
HETATM   14  H   UNL     1      66.232   9.247   6.606  1.00  0.00     0.156 HD
HETATM   15  H   UNL     1      65.959   7.643   7.115  1.00  0.00     0.156 HD
ENDBRANCH   2  13
BRANCH   3  16
HETATM   16  C   UNL     1      62.120  10.095   3.706  1.00  0.00     0.417 C 
HETATM   17  F   UNL     1      62.161  11.149   4.565  1.00  0.00    -0.166 F 
HETATM   18  F   UNL     1      60.873   9.558   3.836  1.00  0.00    -0.166 F 
HETATM   19  F   UNL     1      62.164  10.626   2.451  1.00  0.00    -0.166 F 
ENDBRANCH   3  16
TORSDOF 3
ENDMDL
MODEL 4
REMARK VINA RESULT:      -5.0      1.614      2.724
REMARK  3 active torsions:
REMARK  status: ('A' for Active; 'I' for Inactive)
REMARK    1  A    between atoms: C_1  and  C_5 
REMARK    2  A    between atoms: C_2  and  N_3 
REMARK    3  A    between atoms: C_4  and  N_13 
ROOT
HETATM    1  C   UNL     1      64.458   8.093   4.838  1.00  0.00     0.057 C 
HETATM    2  C   UNL     1      63.655   9.265   4.779  1.00  0.00     0.053 C 
HETATM    3  C   UNL     1      62.443   8.351   2.840  1.00  0.00     0.050 C 
HETATM    4  C   UNL     1      62.624   9.338   3.815  1.00  0.00     0.047 C 
HETATM    5  C   UNL     1      64.361   7.219   3.731  1.00  0.00     0.032 C 
HETATM    6  C   UNL     1      63.382   7.335   2.747  1.00  0.00     0.018 C 
ENDROOT
BRANCH   1   7
HETATM    7  N   UNL     1      65.240   7.725   5.948  1.00  0.00    -0.375 N 
HETATM    8  C   UNL     1      64.733   6.670   6.847  1.00  0.00     0.149 C 
HETATM    9  C   UNL     1      65.353   5.324   6.434  1.00  0.00     0.187 C 
HETATM   10  O   UNL     1      66.792   5.326   6.401  1.00  0.00    -0.388 OA
HETATM   11  C   UNL     1      67.356   6.610   6.694  1.00  0.00     0.187 C 
HETATM   12  C   UNL     1      66.714   7.763   5.884  1.00  0.00     0.149 C 
ENDBRANCH   1   7
BRANCH   2  13
HETATM   13  N   UNL     1      63.632  10.249   5.788  1.00  0.00    -0.397 N 
HETATM   14  H   UNL     1      64.422  10.387   6.359  1.00  0.00     0.156 HD
HETATM   15  H   UNL     1      62.826  10.797   5.922  1.00  0.00     0.156 HD
ENDBRANCH   2  13
BRANCH   3  16
HETATM   16  C   UNL     1      61.217   8.295   1.969  1.00  0.00     0.417 C 
HETATM   17  F   UNL     1      61.250   7.311   1.029  1.00  0.00    -0.166 F 
HETATM   18  F   UNL     1      61.034   9.459   1.282  1.00  0.00    -0.166 F 
HETATM   19  F   UNL     1      60.071   8.101   2.680  1.00  0.00    -0.166 F 
ENDBRANCH   3  16
TORSDOF 3
ENDMDL
MODEL 5
REMARK VINA RESULT:      -4.8      2.519      3.611
REMARK  3 active torsions:
REMARK  status: ('A' for Active; 'I' for Inactive)
REMARK    1  A    between atoms: C_1  and  C_5 
REMARK    2  A    between atoms: C_2  and  N_3 
REMARK    3  A    between atoms: C_4  and  N_13 
ROOT
HETATM    1  C   UNL     1      65.954   6.559   5.549  1.00  0.00     0.057 C 
HETATM    2  C   UNL     1      65.951   7.946   5.866  1.00  0.00     0.053 C 
HETATM    3  C   UNL     1      64.037   8.298   4.357  1.00  0.00     0.050 C 
HETATM    4  C   UNL     1      64.951   8.772   5.306  1.00  0.00     0.047 C 
HETATM    5  C   UNL     1      65.141   6.171   4.460  1.00  0.00     0.032 C 
HETATM    6  C   UNL     1      64.202   7.012   3.866  1.00  0.00     0.018 C 
ENDROOT
BRANCH   1   7
HETATM    7  N   UNL     1      66.625   5.577   6.301  1.00  0.00    -0.375 N 
HETATM    8  C   UNL     1      65.939   4.999   7.473  1.00  0.00     0.149 C 
HETATM    9  C   UNL     1      65.260   3.684   7.054  1.00  0.00     0.187 C 
HETATM   10  O   UNL     1      66.153   2.728   6.456  1.00  0.00    -0.388 OA
HETATM   11  C   UNL     1      67.489   3.226   6.308  1.00  0.00     0.187 C 
HETATM   12  C   UNL     1      67.552   4.628   5.656  1.00  0.00     0.149 C 
ENDBRANCH   1   7
BRANCH   2  13
HETATM   13  N   UNL     1      66.707   8.510   6.913  1.00  0.00    -0.397 N 
HETATM   14  H   UNL     1      67.181   9.361   6.775  1.00  0.00     0.156 HD
HETATM   15  H   UNL     1      66.762   8.051   7.782  1.00  0.00     0.156 HD
ENDBRANCH   2  13
BRANCH   3  16
HETATM   16  C   UNL     1      62.830   9.092   3.936  1.00  0.00     0.417 C 
HETATM   17  F   UNL     1      62.794  10.356   4.438  1.00  0.00    -0.166 F 
HETATM   18  F   UNL     1      61.671   8.498   4.342  1.00  0.00    -0.166 F 
HETATM   19  F   UNL     1      62.725   9.218   2.583  1.00  0.00    -0.166 F 
ENDBRANCH   3  16
TORSDOF 3
ENDMDL
MODEL 6
REMARK VINA RESULT:      -4.7      1.818      2.438
REMARK  3 active torsions:
REMARK  status: ('A' for Active; 'I' for Inactive)
REMARK    1  A    between atoms: C_1  and  C_5 
REMARK    2  A    between atoms: C_2  and  N_3 
REMARK    3  A    between atoms: C_4  and  N_13 
ROOT
HETATM    1  C   UNL     1      64.798   6.505   5.441  1.00  0.00     0.057 C 
HETATM    2  C   UNL     1      64.624   6.570   4.030  1.00  0.00     0.053 C 
HETATM    3  C   UNL     1      62.935   8.340   4.308  1.00  0.00     0.050 C 
HETATM    4  C   UNL     1      63.738   7.531   3.495  1.00  0.00     0.047 C 
HETATM    5  C   UNL     1      63.843   7.202   6.215  1.00  0.00     0.032 C 
HETATM    6  C   UNL     1      62.926   8.100   5.674  1.00  0.00     0.018 C 
ENDROOT
BRANCH   1   7
HETATM    7  N   UNL     1      65.891   5.886   6.075  1.00  0.00    -0.375 N 
HETATM    8  C   UNL     1      66.719   6.691   6.995  1.00  0.00     0.149 C 
HETATM    9  C   UNL     1      66.229   6.461   8.435  1.00  0.00     0.187 C 
HETATM   10  O   UNL     1      66.210   5.079   8.834  1.00  0.00    -0.388 OA
HETATM   11  C   UNL     1      66.587   4.187   7.779  1.00  0.00     0.187 C 
HETATM   12  C   UNL     1      65.844   4.460   6.449  1.00  0.00     0.149 C 
ENDBRANCH   1   7
BRANCH   2  13
HETATM   13  N   UNL     1      65.476   5.929   3.108  1.00  0.00    -0.397 N 
HETATM   14  H   UNL     1      66.374   5.638   3.385  1.00  0.00     0.156 HD
HETATM   15  H   UNL     1      65.172   5.773   2.184  1.00  0.00     0.156 HD
ENDBRANCH   2  13
BRANCH   3  16
HETATM   16  C   UNL     1      62.173   9.520   3.768  1.00  0.00     0.417 C 
HETATM   17  F   UNL     1      60.823   9.356   3.770  1.00  0.00    -0.166 F 
HETATM   18  F   UNL     1      62.513   9.790   2.475  1.00  0.00    -0.166 F 
HETATM   19  F   UNL     1      62.417  10.668   4.462  1.00  0.00    -0.166 F 
ENDBRANCH   3  16
TORSDOF 3
ENDMDL
MODEL 7
REMARK VINA RESULT:      -4.5      4.175      5.874
REMARK  3 active torsions:
REMARK  status: ('A' for Active; 'I' for Inactive)
REMARK    1  A    between atoms: C_1  and  C_5 
REMARK    2  A    between atoms: C_2  and  N_3 
REMARK    3  A    between atoms: C_4  and  N_13 
ROOT
HETATM    1  C   UNL     1      63.051   7.314   4.361  1.00  0.00     0.057 C 
HETATM    2  C   UNL     1      63.084   6.937   5.733  1.00  0.00     0.053 C 
HETATM    3  C   UNL     1      65.545   7.030   5.711  1.00  0.00     0.050 C 
HETATM    4  C   UNL     1      64.333   6.863   6.390  1.00  0.00     0.047 C 
HETATM    5  C   UNL     1      64.290   7.290   3.682  1.00  0.00     0.032 C 
HETATM    6  C   UNL     1      65.516   7.150   4.329  1.00  0.00     0.018 C 
ENDROOT
BRANCH   1   7
HETATM    7  N   UNL     1      61.904   7.787   3.699  1.00  0.00    -0.375 N 
HETATM    8  C   UNL     1      61.513   9.198   3.889  1.00  0.00     0.149 C 
HETATM    9  C   UNL     1      62.075  10.031   2.725  1.00  0.00     0.187 C 
HETATM   10  O   UNL     1      61.684   9.559   1.423  1.00  0.00    -0.388 OA
HETATM   11  C   UNL     1      60.902   8.359   1.475  1.00  0.00     0.187 C 
HETATM   12  C   UNL     1      61.520   7.262   2.375  1.00  0.00     0.149 C 
ENDBRANCH   1   7
BRANCH   2  13
HETATM   13  N   UNL     1      61.944   6.895   6.560  1.00  0.00    -0.397 N 
HETATM   14  H   UNL     1      61.918   6.288   7.333  1.00  0.00     0.156 HD
HETATM   15  H   UNL     1      61.172   7.473   6.362  1.00  0.00     0.156 HD
ENDBRANCH   2  13
BRANCH   3  16
HETATM   16  C   UNL     1      66.856   7.192   6.431  1.00  0.00     0.417 C 
HETATM   17  F   UNL     1      66.735   7.645   7.708  1.00  0.00    -0.166 F 
HETATM   18  F   UNL     1      67.672   8.082   5.796  1.00  0.00    -0.166 F 
HETATM   19  F   UNL     1      67.565   6.030   6.506  1.00  0.00    -0.166 F 
ENDBRANCH   3  16
TORSDOF 3
ENDMDL
MODEL 8
REMARK VINA RESULT:      -4.4      4.095      5.710
REMARK  3 active torsions:
REMARK  status: ('A' for Active; 'I' for Inactive)
REMARK    1  A    between atoms: C_1  and  C_5 
REMARK    2  A    between atoms: C_2  and  N_3 
REMARK    3  A    between atoms: C_4  and  N_13 
ROOT
HETATM    1  C   UNL     1      63.749   7.295   3.331  1.00  0.00     0.057 C 
HETATM    2  C   UNL     1      64.893   6.450   3.376  1.00  0.00     0.053 C 
HETATM    3  C   UNL     1      65.700   7.629   5.382  1.00  0.00     0.050 C 
HETATM    4  C   UNL     1      65.811   6.600   4.439  1.00  0.00     0.047 C 
HETATM    5  C   UNL     1      63.778   8.421   4.184  1.00  0.00     0.032 C 
HETATM    6  C   UNL     1      64.727   8.598   5.189  1.00  0.00     0.018 C 
ENDROOT
BRANCH   1   7
HETATM    7  N   UNL     1      62.592   7.021   2.580  1.00  0.00    -0.375 N 
HETATM    8  C   UNL     1      61.596   6.084   3.137  1.00  0.00     0.149 C 
HETATM    9  C   UNL     1      60.496   6.892   3.845  1.00  0.00     0.187 C 
HETATM   10  O   UNL     1      59.864   7.879   3.011  1.00  0.00    -0.388 OA
HETATM   11  C   UNL     1      60.441   7.957   1.701  1.00  0.00     0.187 C 
HETATM   12  C   UNL     1      61.986   8.052   1.716  1.00  0.00     0.149 C 
ENDBRANCH   1   7
BRANCH   2  13
HETATM   13  N   UNL     1      65.038   5.290   2.589  1.00  0.00    -0.397 N 
HETATM   14  H   UNL     1      64.398   5.102   1.866  1.00  0.00     0.156 HD
HETATM   15  H   UNL     1      65.780   4.667   2.764  1.00  0.00     0.156 HD
ENDBRANCH   2  13
BRANCH   3  16
HETATM   16  C   UNL     1      66.520   7.658   6.643  1.00  0.00     0.417 C 
HETATM   17  F   UNL     1      65.890   7.127   7.726  1.00  0.00    -0.166 F 
HETATM   18  F   UNL     1      66.856   8.932   6.996  1.00  0.00    -0.166 F 
HETATM   19  F   UNL     1      67.699   6.985   6.523  1.00  0.00    -0.166 F 
ENDBRANCH   3  16
TORSDOF 3
ENDMDL
MODEL 9
REMARK VINA RESULT:      -4.3      4.396      6.193
REMARK  3 active torsions:
REMARK  status: ('A' for Active; 'I' for Inactive)
REMARK    1  A    between atoms: C_1  and  C_5 
REMARK    2  A    between atoms: C_2  and  N_3 
REMARK    3  A    between atoms: C_4  and  N_13 
ROOT
HETATM    1  C   UNL     1      61.023   8.200   3.123  1.00  0.00     0.057 C 
HETATM    2  C   UNL     1      61.737   9.381   3.466  1.00  0.00     0.053 C 
HETATM    3  C   UNL     1      63.430   8.031   4.639  1.00  0.00     0.050 C 
HETATM    4  C   UNL     1      62.959   9.261   4.166  1.00  0.00     0.047 C 
HETATM    5  C   UNL     1      61.437   7.015   3.774  1.00  0.00     0.032 C 
HETATM    6  C   UNL     1      62.609   6.920   4.519  1.00  0.00     0.018 C 
ENDROOT
BRANCH   1   7
HETATM    7  N   UNL     1      60.028   8.137   2.131  1.00  0.00    -0.375 N 
HETATM    8  C   UNL     1      60.444   8.156   0.714  1.00  0.00     0.149 C 
HETATM    9  C   UNL     1      60.525   6.708   0.201  1.00  0.00     0.187 C 
HETATM   10  O   UNL     1      59.309   5.957   0.371  1.00  0.00    -0.388 OA
HETATM   11  C   UNL     1      58.287   6.694   1.052  1.00  0.00     0.187 C 
HETATM   12  C   UNL     1      58.784   7.376   2.350  1.00  0.00     0.149 C 
ENDBRANCH   1   7
BRANCH   2  13
HETATM   13  N   UNL     1      61.456  10.650   2.922  1.00  0.00    -0.397 N 
HETATM   14  H   UNL     1      61.152  11.381   3.507  1.00  0.00     0.156 HD
HETATM   15  H   UNL     1      61.562  10.806   1.956  1.00  0.00     0.156 HD
ENDBRANCH   2  13
BRANCH   3  16
HETATM   16  C   UNL     1      64.828   7.854   5.168  1.00  0.00     0.417 C 
HETATM   17  F   UNL     1      65.714   7.384   4.248  1.00  0.00    -0.166 F 
HETATM   18  F   UNL     1      64.865   6.968   6.205  1.00  0.00    -0.166 F 
HETATM   19  F   UNL     1      65.361   9.011   5.652  1.00  0.00    -0.166 F 
ENDBRANCH   3  16
TORSDOF 3
ENDMDL
