MODEL 1
REMARK VINA RESULT:      -4.2      0.000      0.000
REMARK  1 active torsions:
REMARK  status: ('A' for Active; 'I' for Inactive)
REMARK    1  A    between atoms: C_5  and  N_9 
ROOT
HETATM    1  N   UNL     1      62.837   9.026   3.443  1.00  0.00    -0.359 N 
ATOM      2  HN  UNL     1      63.048   8.085   3.110  1.00  0.00     0.165 HD
HETATM    3  N   UNL     1      62.237  11.623   4.387  1.00  0.00    -0.349 N 
ATOM      4  HN  UNL     1      62.012  12.561   4.720  1.00  0.00     0.167 HD
HETATM    5  C   UNL     1      62.987  10.770   5.111  1.00  0.00     0.121 A 
HETATM    6  C   UNL     1      63.289   9.483   4.643  1.00  0.00     0.049 A 
HETATM    7  C   UNL     1      62.091   9.890   2.717  1.00  0.00     0.021 A 
HETATM    8  C   UNL     1      61.800  11.161   3.192  1.00  0.00     0.114 A 
HETATM    9  C   UNL     1      64.134   8.540   5.445  1.00  0.00     0.072 C 
HETATM   10  C   UNL     1      61.601   9.443   1.376  1.00  0.00     0.069 C 
ENDROOT
BRANCH   5  11
HETATM   11  N   UNL     1      63.465  11.271   6.322  1.00  0.00    -0.384 N 
HETATM   12  H   UNL     1      64.421  11.480   6.425  1.00  0.00     0.157 HD
HETATM   13  H   UNL     1      62.844  11.417   7.072  1.00  0.00     0.157 HD
ENDBRANCH   5  11
TORSDOF 1
ENDMDL
MODEL 2
REMARK VINA RESULT:      -3.9      1.029      3.203
REMARK  1 active torsions:
REMARK  status: ('A' for Active; 'I' for Inactive)
REMARK    1  A    between atoms: C_5  and  N_9 
ROOT
HETATM    1  N   UNL     1      62.845   8.474   3.257  1.00  0.00    -0.359 N 
ATOM      2  HN  UNL     1      63.068   7.544   2.904  1.00  0.00     0.165 HD
HETATM    3  N   UNL     1      62.245  11.065   4.221  1.00  0.00    -0.349 N 
ATOM      4  HN  UNL     1      62.035  11.997   4.578  1.00  0.00     0.167 HD
HETATM    5  C   UNL     1      62.013  10.722   2.939  1.00  0.00     0.121 A 
HETATM    6  C   UNL     1      62.306   9.437   2.460  1.00  0.00     0.049 A 
HETATM    7  C   UNL     1      63.067   8.821   4.546  1.00  0.00     0.021 A 
HETATM    8  C   UNL     1      62.772  10.097   5.007  1.00  0.00     0.114 A 
HETATM    9  C   UNL     1      62.036   9.056   1.036  1.00  0.00     0.072 C 
HETATM   10  C   UNL     1      63.626   7.784   5.468  1.00  0.00     0.069 C 
ENDROOT
BRANCH   5  11
HETATM   11  N   UNL     1      61.432  11.715   2.150  1.00  0.00    -0.384 N 
HETATM   12  H   UNL     1      60.701  11.487   1.533  1.00  0.00     0.157 HD
HETATM   13  H   UNL     1      61.755  12.643   2.211  1.00  0.00     0.157 HD
ENDBRANCH   5  11
TORSDOF 1
ENDMDL
MODEL 3
REMARK VINA RESULT:      -3.9      1.599      2.033
REMARK  1 active torsions:
REMARK  status: ('A' for Active; 'I' for Inactive)
REMARK    1  A    between atoms: C_5  and  N_9 
ROOT
HETATM    1  N   UNL     1      62.554   9.327   2.926  1.00  0.00    -0.359 N 
ATOM      2  HN  UNL     1      62.392   9.046   1.958  1.00  0.00     0.165 HD
HETATM    3  N   UNL     1      62.985  10.086   5.616  1.00  0.00    -0.349 N 
ATOM      4  HN  UNL     1      63.133  10.369   6.584  1.00  0.00     0.167 HD
HETATM    5  C   UNL     1      63.304   8.854   5.175  1.00  0.00     0.121 A 
HETATM    6  C   UNL     1      63.095   8.476   3.841  1.00  0.00     0.049 A 
HETATM    7  C   UNL     1      62.244  10.566   3.372  1.00  0.00     0.021 A 
HETATM    8  C   UNL     1      62.456  10.926   4.695  1.00  0.00     0.114 A 
HETATM    9  C   UNL     1      63.462   7.108   3.351  1.00  0.00     0.072 C 
HETATM   10  C   UNL     1      61.679  11.545   2.392  1.00  0.00     0.069 C 
ENDROOT
BRANCH   5  11
HETATM   11  N   UNL     1      63.885   8.011   6.123  1.00  0.00    -0.384 N 
HETATM   12  H   UNL     1      64.687   7.491   5.892  1.00  0.00     0.157 HD
HETATM   13  H   UNL     1      63.490   7.937   7.022  1.00  0.00     0.157 HD
ENDBRANCH   5  11
TORSDOF 1
ENDMDL
MODEL 4
REMARK VINA RESULT:      -3.9      1.553      2.777
REMARK  1 active torsions:
REMARK  status: ('A' for Active; 'I' for Inactive)
REMARK    1  A    between atoms: C_5  and  N_9 
ROOT
HETATM    1  N   UNL     1      62.795   8.893   3.191  1.00  0.00    -0.359 N 
ATOM      2  HN  UNL     1      62.322   8.809   2.291  1.00  0.00     0.165 HD
HETATM    3  N   UNL     1      64.120   9.144   5.676  1.00  0.00    -0.349 N 
ATOM      4  HN  UNL     1      64.605   9.225   6.570  1.00  0.00     0.167 HD
HETATM    5  C   UNL     1      63.350  10.135   5.189  1.00  0.00     0.121 A 
HETATM    6  C   UNL     1      62.688  10.011   3.959  1.00  0.00     0.049 A 
HETATM    7  C   UNL     1      63.563   7.897   3.689  1.00  0.00     0.021 A 
HETATM    8  C   UNL     1      64.212   8.033   4.908  1.00  0.00     0.114 A 
HETATM    9  C   UNL     1      61.822  11.112   3.425  1.00  0.00     0.072 C 
HETATM   10  C   UNL     1      63.681   6.635   2.895  1.00  0.00     0.069 C 
ENDROOT
BRANCH   5  11
HETATM   11  N   UNL     1      63.231  11.259   6.008  1.00  0.00    -0.384 N 
HETATM   12  H   UNL     1      63.230  11.157   6.986  1.00  0.00     0.157 HD
HETATM   13  H   UNL     1      63.148  12.154   5.605  1.00  0.00     0.157 HD
ENDBRANCH   5  11
TORSDOF 1
ENDMDL
MODEL 5
REMARK VINA RESULT:      -3.6      1.638      3.581
REMARK  1 active torsions:
REMARK  status: ('A' for Active; 'I' for Inactive)
REMARK    1  A    between atoms: C_5  and  N_9 
ROOT
HETATM    1  N   UNL     1      64.283   9.294   5.489  1.00  0.00    -0.359 N 
ATOM      2  HN  UNL     1      64.801   9.650   6.293  1.00  0.00     0.165 HD
HETATM    3  N   UNL     1      62.826   8.307   3.275  1.00  0.00    -0.349 N 
ATOM      4  HN  UNL     1      62.306   7.940   2.478  1.00  0.00     0.167 HD
HETATM    5  C   UNL     1      62.480   9.456   3.887  1.00  0.00     0.121 A 
HETATM    6  C   UNL     1      63.203   9.949   4.982  1.00  0.00     0.049 A 
HETATM    7  C   UNL     1      64.633   8.146   4.865  1.00  0.00     0.021 A 
HETATM    8  C   UNL     1      63.908   7.669   3.782  1.00  0.00     0.114 A 
HETATM    9  C   UNL     1      62.821  11.234   5.653  1.00  0.00     0.072 C 
HETATM   10  C   UNL     1      65.835   7.410   5.366  1.00  0.00     0.069 C 
ENDROOT
BRANCH   5  11
HETATM   11  N   UNL     1      61.389  10.124   3.331  1.00  0.00    -0.384 N 
HETATM   12  H   UNL     1      61.511  11.011   2.923  1.00  0.00     0.157 HD
HETATM   13  H   UNL     1      60.497   9.708   3.347  1.00  0.00     0.157 HD
ENDBRANCH   5  11
TORSDOF 1
ENDMDL
MODEL 6
REMARK VINA RESULT:      -3.5      4.350      6.794
REMARK  1 active torsions:
REMARK  status: ('A' for Active; 'I' for Inactive)
REMARK    1  A    between atoms: C_5  and  N_9 
ROOT
HETATM    1  N   UNL     1      65.834   7.383   7.215  1.00  0.00    -0.359 N 
ATOM      2  HN  UNL     1      65.089   7.903   7.678  1.00  0.00     0.165 HD
HETATM    3  N   UNL     1      67.883   5.927   5.918  1.00  0.00    -0.349 N 
ATOM      4  HN  UNL     1      68.623   5.395   5.460  1.00  0.00     0.167 HD
HETATM    5  C   UNL     1      67.045   6.724   5.228  1.00  0.00     0.121 A 
HETATM    6  C   UNL     1      66.031   7.450   5.870  1.00  0.00     0.049 A 
HETATM    7  C   UNL     1      66.685   6.587   7.904  1.00  0.00     0.021 A 
HETATM    8  C   UNL     1      67.684   5.874   7.256  1.00  0.00     0.114 A 
HETATM    9  C   UNL     1      65.107   8.345   5.100  1.00  0.00     0.072 C 
HETATM   10  C   UNL     1      66.528   6.510   9.389  1.00  0.00     0.069 C 
ENDROOT
BRANCH   5  11
HETATM   11  N   UNL     1      67.285   6.800   3.857  1.00  0.00    -0.384 N 
HETATM   12  H   UNL     1      66.883   7.525   3.327  1.00  0.00     0.157 HD
HETATM   13  H   UNL     1      67.858   6.129   3.419  1.00  0.00     0.157 HD
ENDBRANCH   5  11
TORSDOF 1
ENDMDL
MODEL 7
REMARK VINA RESULT:      -3.5      1.939      3.053
REMARK  1 active torsions:
REMARK  status: ('A' for Active; 'I' for Inactive)
REMARK    1  A    between atoms: C_5  and  N_9 
ROOT
HETATM    1  N   UNL     1      62.117   8.782   4.305  1.00  0.00    -0.359 N 
ATOM      2  HN  UNL     1      62.418   8.515   5.243  1.00  0.00     0.165 HD
HETATM    3  N   UNL     1      61.261   9.535   1.717  1.00  0.00    -0.349 N 
ATOM      4  HN  UNL     1      60.948   9.795   0.782  1.00  0.00     0.167 HD
HETATM    5  C   UNL     1      61.662  10.452   2.617  1.00  0.00     0.121 A 
HETATM    6  C   UNL     1      62.091  10.081   3.900  1.00  0.00     0.049 A 
HETATM    7  C   UNL     1      61.721   7.864   3.394  1.00  0.00     0.021 A 
HETATM    8  C   UNL     1      61.299   8.245   2.128  1.00  0.00     0.114 A 
HETATM    9  C   UNL     1      62.548  11.104   4.895  1.00  0.00     0.072 C 
HETATM   10  C   UNL     1      61.765   6.421   3.784  1.00  0.00     0.069 C 
ENDROOT
BRANCH   5  11
HETATM   11  N   UNL     1      61.657  11.773   2.169  1.00  0.00    -0.384 N 
HETATM   12  H   UNL     1      62.486  12.302   2.186  1.00  0.00     0.157 HD
HETATM   13  H   UNL     1      60.822  12.175   1.835  1.00  0.00     0.157 HD
ENDBRANCH   5  11
TORSDOF 1
ENDMDL
MODEL 8
REMARK VINA RESULT:      -3.4      2.020      3.068
REMARK  1 active torsions:
REMARK  status: ('A' for Active; 'I' for Inactive)
REMARK    1  A    between atoms: C_5  and  N_9 
ROOT
HETATM    1  N   UNL     1      61.770   8.292   3.830  1.00  0.00    -0.359 N 
ATOM      2  HN  UNL     1      61.303   8.136   2.936  1.00  0.00     0.165 HD
HETATM    3  N   UNL     1      63.089   8.730   6.292  1.00  0.00    -0.349 N 
ATOM      4  HN  UNL     1      63.566   8.876   7.182  1.00  0.00     0.167 HD
HETATM    5  C   UNL     1      62.906   9.728   5.408  1.00  0.00     0.121 A 
HETATM    6  C   UNL     1      62.249   9.514   4.188  1.00  0.00     0.049 A 
HETATM    7  C   UNL     1      61.949   7.294   4.726  1.00  0.00     0.021 A 
HETATM    8  C   UNL     1      62.601   7.520   5.930  1.00  0.00     0.114 A 
HETATM    9  C   UNL     1      62.037  10.631   3.211  1.00  0.00     0.072 C 
HETATM   10  C   UNL     1      61.409   5.941   4.389  1.00  0.00     0.069 C 
ENDROOT
BRANCH   5  11
HETATM   11  N   UNL     1      63.377  10.978   5.810  1.00  0.00    -0.384 N 
HETATM   12  H   UNL     1      63.695  11.111   6.731  1.00  0.00     0.157 HD
HETATM   13  H   UNL     1      63.391  11.727   5.170  1.00  0.00     0.157 HD
ENDBRANCH   5  11
TORSDOF 1
ENDMDL
MODEL 9
REMARK VINA RESULT:      -3.3      5.806      7.916
REMARK  1 active torsions:
REMARK  status: ('A' for Active; 'I' for Inactive)
REMARK    1  A    between atoms: C_5  and  N_9 
ROOT
HETATM    1  N   UNL     1      67.231   4.496   7.075  1.00  0.00    -0.359 N 
ATOM      2  HN  UNL     1      67.098   3.688   6.467  1.00  0.00     0.165 HD
HETATM    3  N   UNL     1      67.616   6.747   8.743  1.00  0.00    -0.349 N 
ATOM      4  HN  UNL     1      67.762   7.553   9.351  1.00  0.00     0.167 HD
HETATM    5  C   UNL     1      67.105   6.873   7.503  1.00  0.00     0.121 A 
HETATM    6  C   UNL     1      66.909   5.757   6.676  1.00  0.00     0.049 A 
HETATM    7  C   UNL     1      67.736   4.376   8.324  1.00  0.00     0.021 A 
HETATM    8  C   UNL     1      67.925   5.488   9.132  1.00  0.00     0.114 A 
HETATM    9  C   UNL     1      66.329   5.899   5.301  1.00  0.00     0.072 C 
HETATM   10  C   UNL     1      68.072   3.004   8.818  1.00  0.00     0.069 C 
ENDROOT
BRANCH   5  11
HETATM   11  N   UNL     1      66.754   8.170   7.128  1.00  0.00    -0.384 N 
HETATM   12  H   UNL     1      66.979   8.928   7.712  1.00  0.00     0.157 HD
HETATM   13  H   UNL     1      66.282   8.325   6.278  1.00  0.00     0.157 HD
ENDBRANCH   5  11
TORSDOF 1
ENDMDL
