MODEL 1
REMARK VINA RESULT:      -4.1      0.000      0.000
REMARK  1 active torsions:
REMARK  status: ('A' for Active; 'I' for Inactive)
REMARK    1  A    between atoms: C_1  and  C_2 
REMARK       I    between atoms: C_2  and  N_8 
ROOT
HETATM    1  C   UNL     1      62.487  10.250   4.003  1.00  0.00     0.072 A 
HETATM    2  S   UNL     1      62.518   8.917   2.922  1.00  0.00    -0.097 SA
HETATM    3  C   UNL     1      62.001  11.383   3.376  1.00  0.00     0.025 A 
HETATM    4  C   UNL     1      61.889   9.850   1.638  1.00  0.00     0.050 A 
HETATM    5  C   UNL     1      61.655  11.153   2.013  1.00  0.00     0.009 A 
ENDROOT
BRANCH   1   6
HETATM    6  C   UNL     1      62.926  10.140   5.383  1.00  0.00     0.256 C 
HETATM    7  O   UNL     1      62.971   9.084   6.010  1.00  0.00    -0.267 OA
HETATM    8  N   UNL     1      63.310  11.297   6.002  1.00  0.00    -0.366 N 
HETATM    9  H   UNL     1      63.279  12.151   5.512  1.00  0.00     0.159 HD
HETATM   10  H   UNL     1      63.616  11.277   6.938  1.00  0.00     0.159 HD
ENDBRANCH   1   6
TORSDOF 1
ENDMDL
MODEL 2
REMARK VINA RESULT:      -3.9      1.615      1.872
REMARK  1 active torsions:
REMARK  status: ('A' for Active; 'I' for Inactive)
REMARK    1  A    between atoms: C_1  and  C_2 
REMARK       I    between atoms: C_2  and  N_8 
ROOT
HETATM    1  C   UNL     1      62.006  10.026   3.409  1.00  0.00     0.072 A 
HETATM    2  S   UNL     1      61.601   8.378   3.665  1.00  0.00    -0.097 SA
HETATM    3  C   UNL     1      61.995  10.334   2.060  1.00  0.00     0.025 A 
HETATM    4  C   UNL     1      61.414   8.088   1.993  1.00  0.00     0.050 A 
HETATM    5  C   UNL     1      61.653   9.217   1.244  1.00  0.00     0.009 A 
ENDROOT
BRANCH   1   6
HETATM    6  C   UNL     1      62.311  10.929   4.505  1.00  0.00     0.256 C 
HETATM    7  O   UNL     1      61.939  12.100   4.557  1.00  0.00    -0.267 OA
HETATM    8  N   UNL     1      63.059  10.423   5.531  1.00  0.00    -0.366 N 
HETATM    9  H   UNL     1      63.364   9.487   5.503  1.00  0.00     0.159 HD
HETATM   10  H   UNL     1      63.294  10.994   6.298  1.00  0.00     0.159 HD
ENDBRANCH   1   6
TORSDOF 1
ENDMDL
MODEL 3
REMARK VINA RESULT:      -3.9      2.066      2.621
REMARK  1 active torsions:
REMARK  status: ('A' for Active; 'I' for Inactive)
REMARK    1  A    between atoms: C_1  and  C_2 
REMARK       I    between atoms: C_2  and  N_8 
ROOT
HETATM    1  C   UNL     1      62.995   9.750   4.474  1.00  0.00     0.072 A 
HETATM    2  S   UNL     1      62.077   9.148   3.154  1.00  0.00    -0.097 SA
HETATM    3  C   UNL     1      63.972   8.845   4.850  1.00  0.00     0.025 A 
HETATM    4  C   UNL     1      62.980   7.701   3.092  1.00  0.00     0.050 A 
HETATM    5  C   UNL     1      63.964   7.664   4.053  1.00  0.00     0.009 A 
ENDROOT
BRANCH   1   6
HETATM    6  C   UNL     1      62.732  11.046   5.075  1.00  0.00     0.256 C 
HETATM    7  O   UNL     1      61.960  11.879   4.606  1.00  0.00    -0.267 OA
HETATM    8  N   UNL     1      63.396  11.334   6.235  1.00  0.00    -0.366 N 
HETATM    9  H   UNL     1      64.018  10.675   6.622  1.00  0.00     0.159 HD
HETATM   10  H   UNL     1      63.253  12.199   6.683  1.00  0.00     0.159 HD
ENDBRANCH   1   6
TORSDOF 1
ENDMDL
MODEL 4
REMARK VINA RESULT:      -3.5      2.482      2.822
REMARK  1 active torsions:
REMARK  status: ('A' for Active; 'I' for Inactive)
REMARK    1  A    between atoms: C_1  and  C_2 
REMARK       I    between atoms: C_2  and  N_8 
ROOT
HETATM    1  C   UNL     1      63.751   8.960   4.661  1.00  0.00     0.072 A 
HETATM    2  S   UNL     1      62.964  10.398   5.168  1.00  0.00    -0.097 SA
HETATM    3  C   UNL     1      63.196   8.480   3.488  1.00  0.00     0.025 A 
HETATM    4  C   UNL     1      61.900  10.374   3.833  1.00  0.00     0.050 A 
HETATM    5  C   UNL     1      62.129   9.295   3.010  1.00  0.00     0.009 A 
ENDROOT
BRANCH   1   6
HETATM    6  C   UNL     1      64.849   8.371   5.409  1.00  0.00     0.256 C 
HETATM    7  O   UNL     1      66.036   8.575   5.164  1.00  0.00    -0.267 OA
HETATM    8  N   UNL     1      64.516   7.544   6.445  1.00  0.00    -0.366 N 
HETATM    9  H   UNL     1      63.568   7.372   6.652  1.00  0.00     0.159 HD
HETATM   10  H   UNL     1      65.223   7.119   6.983  1.00  0.00     0.159 HD
ENDBRANCH   1   6
TORSDOF 1
ENDMDL
MODEL 5
REMARK VINA RESULT:      -3.4      2.973      3.665
REMARK  1 active torsions:
REMARK  status: ('A' for Active; 'I' for Inactive)
REMARK    1  A    between atoms: C_1  and  C_2 
REMARK       I    between atoms: C_2  and  N_8 
ROOT
HETATM    1  C   UNL     1      62.130   9.659   2.865  1.00  0.00     0.072 A 
HETATM    2  S   UNL     1      63.032   8.647   3.919  1.00  0.00    -0.097 SA
HETATM    3  C   UNL     1      61.902  10.895   3.442  1.00  0.00     0.025 A 
HETATM    4  C   UNL     1      63.113   9.853   5.125  1.00  0.00     0.050 A 
HETATM    5  C   UNL     1      62.469  11.008   4.745  1.00  0.00     0.009 A 
ENDROOT
BRANCH   1   6
HETATM    6  C   UNL     1      61.693   9.217   1.552  1.00  0.00     0.256 C 
HETATM    7  O   UNL     1      62.432   9.124   0.575  1.00  0.00    -0.267 OA
HETATM    8  N   UNL     1      60.372   8.890   1.421  1.00  0.00    -0.366 N 
HETATM    9  H   UNL     1      59.768   8.959   2.196  1.00  0.00     0.159 HD
HETATM   10  H   UNL     1      60.024   8.585   0.551  1.00  0.00     0.159 HD
ENDBRANCH   1   6
TORSDOF 1
ENDMDL
MODEL 6
REMARK VINA RESULT:      -3.3      6.147      7.456
REMARK  1 active torsions:
REMARK  status: ('A' for Active; 'I' for Inactive)
REMARK    1  A    between atoms: C_1  and  C_2 
REMARK       I    between atoms: C_2  and  N_8 
ROOT
HETATM    1  C   UNL     1      66.690   6.596   7.281  1.00  0.00     0.072 A 
HETATM    2  S   UNL     1      66.998   6.490   8.966  1.00  0.00    -0.097 SA
HETATM    3  C   UNL     1      67.333   5.580   6.597  1.00  0.00     0.025 A 
HETATM    4  C   UNL     1      67.975   5.103   8.775  1.00  0.00     0.050 A 
HETATM    5  C   UNL     1      68.073   4.719   7.457  1.00  0.00     0.009 A 
ENDROOT
BRANCH   1   6
HETATM    6  C   UNL     1      65.857   7.639   6.709  1.00  0.00     0.256 C 
HETATM    7  O   UNL     1      66.263   8.760   6.410  1.00  0.00    -0.267 OA
HETATM    8  N   UNL     1      64.541   7.330   6.498  1.00  0.00    -0.366 N 
HETATM    9  H   UNL     1      64.202   6.436   6.732  1.00  0.00     0.159 HD
HETATM   10  H   UNL     1      63.934   8.002   6.112  1.00  0.00     0.159 HD
ENDBRANCH   1   6
TORSDOF 1
ENDMDL
MODEL 7
REMARK VINA RESULT:      -3.2      5.255      6.021
REMARK  1 active torsions:
REMARK  status: ('A' for Active; 'I' for Inactive)
REMARK    1  A    between atoms: C_1  and  C_2 
REMARK       I    between atoms: C_2  and  N_8 
ROOT
HETATM    1  C   UNL     1      65.903   6.805   7.263  1.00  0.00     0.072 A 
HETATM    2  S   UNL     1      66.660   8.068   6.380  1.00  0.00    -0.097 SA
HETATM    3  C   UNL     1      64.615   6.586   6.806  1.00  0.00     0.025 A 
HETATM    4  C   UNL     1      65.280   8.311   5.404  1.00  0.00     0.050 A 
HETATM    5  C   UNL     1      64.256   7.453   5.733  1.00  0.00     0.009 A 
ENDROOT
BRANCH   1   6
HETATM    6  C   UNL     1      66.577   6.098   8.337  1.00  0.00     0.256 C 
HETATM    7  O   UNL     1      66.150   5.071   8.861  1.00  0.00    -0.267 OA
HETATM    8  N   UNL     1      67.759   6.626   8.776  1.00  0.00    -0.366 N 
HETATM    9  H   UNL     1      68.114   7.448   8.366  1.00  0.00     0.159 HD
HETATM   10  H   UNL     1      68.256   6.184   9.503  1.00  0.00     0.159 HD
ENDBRANCH   1   6
TORSDOF 1
ENDMDL
MODEL 8
REMARK VINA RESULT:      -3.2      5.383      6.008
REMARK  1 active torsions:
REMARK  status: ('A' for Active; 'I' for Inactive)
REMARK    1  A    between atoms: C_1  and  C_2 
REMARK       I    between atoms: C_2  and  N_8 
ROOT
HETATM    1  C   UNL     1      66.539   6.967   5.544  1.00  0.00     0.072 A 
HETATM    2  S   UNL     1      66.465   5.464   6.368  1.00  0.00    -0.097 SA
HETATM    3  C   UNL     1      66.883   6.786   4.216  1.00  0.00     0.025 A 
HETATM    4  C   UNL     1      66.885   4.590   4.963  1.00  0.00     0.050 A 
HETATM    5  C   UNL     1      67.081   5.416   3.880  1.00  0.00     0.009 A 
ENDROOT
BRANCH   1   6
HETATM    6  C   UNL     1      66.268   8.230   6.208  1.00  0.00     0.256 C 
HETATM    7  O   UNL     1      65.398   9.023   5.852  1.00  0.00    -0.267 OA
HETATM    8  N   UNL     1      67.040   8.534   7.295  1.00  0.00    -0.366 N 
HETATM    9  H   UNL     1      67.740   7.908   7.591  1.00  0.00     0.159 HD
HETATM   10  H   UNL     1      66.896   9.379   7.780  1.00  0.00     0.159 HD
ENDBRANCH   1   6
TORSDOF 1
ENDMDL
MODEL 9
REMARK VINA RESULT:      -3.1     14.089     14.529
REMARK  1 active torsions:
REMARK  status: ('A' for Active; 'I' for Inactive)
REMARK    1  A    between atoms: C_1  and  C_2 
REMARK       I    between atoms: C_2  and  N_8 
ROOT
HETATM    1  C   UNL     1      56.795   1.697  13.687  1.00  0.00     0.072 A 
HETATM    2  S   UNL     1      56.418   0.027  13.804  1.00  0.00    -0.097 SA
HETATM    3  C   UNL     1      58.165   1.892  13.646  1.00  0.00     0.025 A 
HETATM    4  C   UNL     1      58.066  -0.421  13.799  1.00  0.00     0.050 A 
HETATM    5  C   UNL     1      58.897   0.672  13.709  1.00  0.00     0.009 A 
ENDROOT
BRANCH   1   6
HETATM    6  C   UNL     1      55.768   2.723  13.641  1.00  0.00     0.256 C 
HETATM    7  O   UNL     1      55.561   3.448  12.670  1.00  0.00    -0.267 OA
HETATM    8  N   UNL     1      54.996   2.872  14.760  1.00  0.00    -0.366 N 
HETATM    9  H   UNL     1      55.151   2.298  15.545  1.00  0.00     0.159 HD
HETATM   10  H   UNL     1      54.285   3.554  14.780  1.00  0.00     0.159 HD
ENDBRANCH   1   6
TORSDOF 1
ENDMDL
