MODEL 1
REMARK VINA RESULT:      -5.1      0.000      0.000
REMARK  2 active torsions:
REMARK  status: ('A' for Active; 'I' for Inactive)
REMARK    1  A    between atoms: N_2  and  C_3 
REMARK    2  A    between atoms: C_12  and  N_14 
ROOT
HETATM    1  C   UNL     1      62.934   9.429   4.418  1.00  0.00     0.073 A 
HETATM    2  C   UNL     1      63.662   8.228   4.329  1.00  0.00     0.059 A 
HETATM    3  C   UNL     1      63.099  10.401   5.460  1.00  0.00     0.102 C 
HETATM    4  N   UNL     1      63.211  11.210   6.287  1.00  0.00    -0.191 NA
HETATM    5  C   UNL     1      63.465   7.397   3.211  1.00  0.00     0.034 A 
HETATM    6  C   UNL     1      62.047   9.776   3.381  1.00  0.00     0.054 A 
HETATM    7  C   UNL     1      61.904   8.981   2.241  1.00  0.00     0.027 A 
HETATM    8  C   UNL     1      62.574   7.761   2.197  1.00  0.00     0.031 A 
ENDROOT
BRANCH   2   9
HETATM    9  N   UNL     1      64.600   7.810   5.321  1.00  0.00    -0.331 N 
HETATM   10  C   UNL     1      64.319   6.971   6.386  1.00  0.00     0.096 A 
HETATM   11  C   UNL     1      65.478   6.730   7.093  1.00  0.00     0.019 A 
HETATM   12  C   UNL     1      66.497   7.487   6.486  1.00  0.00     0.019 A 
HETATM   13  C   UNL     1      65.931   8.159   5.425  1.00  0.00     0.096 A 
ENDBRANCH   2   9
BRANCH   7  14
HETATM   14  N   UNL     1      60.942   9.297   1.278  1.00  0.00    -0.399 N 
HETATM   15  H   UNL     1      61.034   8.956   0.360  1.00  0.00     0.156 HD
HETATM   16  H   UNL     1      60.171   9.860   1.519  1.00  0.00     0.156 HD
ENDBRANCH   7  14
TORSDOF 2
ENDMDL
MODEL 2
REMARK VINA RESULT:      -5.1      1.290      2.824
REMARK  2 active torsions:
REMARK  status: ('A' for Active; 'I' for Inactive)
REMARK    1  A    between atoms: N_2  and  C_3 
REMARK    2  A    between atoms: C_12  and  N_14 
ROOT
HETATM    1  C   UNL     1      63.266   8.373   3.437  1.00  0.00     0.073 A 
HETATM    2  C   UNL     1      63.627   8.772   4.738  1.00  0.00     0.059 A 
HETATM    3  C   UNL     1      63.587   7.097   2.863  1.00  0.00     0.102 C 
HETATM    4  N   UNL     1      63.827   6.073   2.370  1.00  0.00    -0.191 NA
HETATM    5  C   UNL     1      63.179  10.018   5.212  1.00  0.00     0.034 A 
HETATM    6  C   UNL     1      62.456   9.218   2.655  1.00  0.00     0.054 A 
HETATM    7  C   UNL     1      61.959  10.425   3.155  1.00  0.00     0.027 A 
HETATM    8  C   UNL     1      62.379  10.842   4.414  1.00  0.00     0.031 A 
ENDROOT
BRANCH   2   9
HETATM    9  N   UNL     1      64.424   7.967   5.607  1.00  0.00    -0.331 N 
HETATM   10  C   UNL     1      65.791   8.094   5.784  1.00  0.00     0.096 A 
HETATM   11  C   UNL     1      66.209   7.202   6.748  1.00  0.00     0.019 A 
HETATM   12  C   UNL     1      65.080   6.458   7.141  1.00  0.00     0.019 A 
HETATM   13  C   UNL     1      64.009   6.925   6.410  1.00  0.00     0.096 A 
ENDBRANCH   2   9
BRANCH   7  14
HETATM   14  N   UNL     1      61.243  11.290   2.323  1.00  0.00    -0.399 N 
HETATM   15  H   UNL     1      60.378  11.009   1.948  1.00  0.00     0.156 HD
HETATM   16  H   UNL     1      61.604  12.181   2.113  1.00  0.00     0.156 HD
ENDBRANCH   7  14
TORSDOF 2
ENDMDL
MODEL 3
REMARK VINA RESULT:      -5.0      1.887      5.110
REMARK  2 active torsions:
REMARK  status: ('A' for Active; 'I' for Inactive)
REMARK    1  A    between atoms: N_2  and  C_3 
REMARK    2  A    between atoms: C_12  and  N_14 
ROOT
HETATM    1  C   UNL     1      63.243   8.865   4.258  1.00  0.00     0.073 A 
HETATM    2  C   UNL     1      62.269   9.397   3.393  1.00  0.00     0.059 A 
HETATM    3  C   UNL     1      63.871   7.587   4.084  1.00  0.00     0.102 C 
HETATM    4  N   UNL     1      64.401   6.560   3.969  1.00  0.00    -0.191 NA
HETATM    5  C   UNL     1      61.792  10.699   3.629  1.00  0.00     0.034 A 
HETATM    6  C   UNL     1      63.725   9.653   5.322  1.00  0.00     0.054 A 
HETATM    7  C   UNL     1      63.296  10.969   5.513  1.00  0.00     0.027 A 
HETATM    8  C   UNL     1      62.282  11.459   4.695  1.00  0.00     0.031 A 
ENDROOT
BRANCH   2   9
HETATM    9  N   UNL     1      61.743   8.679   2.277  1.00  0.00    -0.331 N 
HETATM   10  C   UNL     1      62.277   8.683   0.999  1.00  0.00     0.096 A 
HETATM   11  C   UNL     1      61.553   7.823   0.202  1.00  0.00     0.019 A 
HETATM   12  C   UNL     1      60.503   7.314   0.989  1.00  0.00     0.019 A 
HETATM   13  C   UNL     1      60.624   7.873   2.243  1.00  0.00     0.096 A 
ENDBRANCH   2   9
BRANCH   7  14
HETATM   14  N   UNL     1      63.714  11.690   6.634  1.00  0.00    -0.399 N 
HETATM   15  H   UNL     1      63.138  11.741   7.430  1.00  0.00     0.156 HD
HETATM   16  H   UNL     1      64.587  12.146   6.629  1.00  0.00     0.156 HD
ENDBRANCH   7  14
TORSDOF 2
ENDMDL
MODEL 4
REMARK VINA RESULT:      -4.8      1.669      4.849
REMARK  2 active torsions:
REMARK  status: ('A' for Active; 'I' for Inactive)
REMARK    1  A    between atoms: N_2  and  C_3 
REMARK    2  A    between atoms: C_12  and  N_14 
ROOT
HETATM    1  C   UNL     1      63.134   9.263   4.147  1.00  0.00     0.073 A 
HETATM    2  C   UNL     1      62.939   8.121   3.349  1.00  0.00     0.059 A 
HETATM    3  C   UNL     1      62.332  10.450   4.072  1.00  0.00     0.102 C 
HETATM    4  N   UNL     1      61.699  11.424   4.040  1.00  0.00    -0.191 NA
HETATM    5  C   UNL     1      63.743   6.989   3.577  1.00  0.00     0.034 A 
HETATM    6  C   UNL     1      64.112   9.238   5.160  1.00  0.00     0.054 A 
HETATM    7  C   UNL     1      64.862   8.090   5.427  1.00  0.00     0.027 A 
HETATM    8  C   UNL     1      64.711   6.991   4.587  1.00  0.00     0.031 A 
ENDROOT
BRANCH   2   9
HETATM    9  N   UNL     1      61.956   8.050   2.316  1.00  0.00    -0.331 N 
HETATM   10  C   UNL     1      62.172   8.354   0.983  1.00  0.00     0.096 A 
HETATM   11  C   UNL     1      61.021   8.103   0.267  1.00  0.00     0.019 A 
HETATM   12  C   UNL     1      60.042   7.688   1.190  1.00  0.00     0.019 A 
HETATM   13  C   UNL     1      60.629   7.691   2.437  1.00  0.00     0.096 A 
ENDBRANCH   2   9
BRANCH   7  14
HETATM   14  N   UNL     1      65.894   8.127   6.369  1.00  0.00    -0.399 N 
HETATM   15  H   UNL     1      66.032   8.932   6.917  1.00  0.00     0.156 HD
HETATM   16  H   UNL     1      66.482   7.345   6.485  1.00  0.00     0.156 HD
ENDBRANCH   7  14
TORSDOF 2
ENDMDL
MODEL 5
REMARK VINA RESULT:      -4.8      1.738      5.055
REMARK  2 active torsions:
REMARK  status: ('A' for Active; 'I' for Inactive)
REMARK    1  A    between atoms: N_2  and  C_3 
REMARK    2  A    between atoms: C_12  and  N_14 
ROOT
HETATM    1  C   UNL     1      63.865   7.174   6.196  1.00  0.00     0.073 A 
HETATM    2  C   UNL     1      64.283   8.155   5.278  1.00  0.00     0.059 A 
HETATM    3  C   UNL     1      62.495   6.824   6.440  1.00  0.00     0.102 C 
HETATM    4  N   UNL     1      61.396   6.514   6.658  1.00  0.00    -0.191 NA
HETATM    5  C   UNL     1      65.661   8.345   5.071  1.00  0.00     0.034 A 
HETATM    6  C   UNL     1      64.831   6.400   6.867  1.00  0.00     0.054 A 
HETATM    7  C   UNL     1      66.196   6.546   6.609  1.00  0.00     0.027 A 
HETATM    8  C   UNL     1      66.602   7.567   5.753  1.00  0.00     0.031 A 
ENDROOT
BRANCH   2   9
HETATM    9  N   UNL     1      63.372   8.967   4.537  1.00  0.00    -0.331 N 
HETATM   10  C   UNL     1      62.855  10.180   4.960  1.00  0.00     0.096 A 
HETATM   11  C   UNL     1      62.070  10.713   3.960  1.00  0.00     0.019 A 
HETATM   12  C   UNL     1      62.050   9.779   2.908  1.00  0.00     0.019 A 
HETATM   13  C   UNL     1      62.829   8.710   3.295  1.00  0.00     0.096 A 
ENDBRANCH   2   9
BRANCH   7  14
HETATM   14  N   UNL     1      67.136   5.837   7.362  1.00  0.00    -0.399 N 
HETATM   15  H   UNL     1      66.896   4.969   7.756  1.00  0.00     0.156 HD
HETATM   16  H   UNL     1      68.038   6.207   7.497  1.00  0.00     0.156 HD
ENDBRANCH   7  14
TORSDOF 2
ENDMDL
MODEL 6
REMARK VINA RESULT:      -4.7      2.281      4.707
REMARK  2 active torsions:
REMARK  status: ('A' for Active; 'I' for Inactive)
REMARK    1  A    between atoms: N_2  and  C_3 
REMARK    2  A    between atoms: C_12  and  N_14 
ROOT
HETATM    1  C   UNL     1      62.958   7.702   5.168  1.00  0.00     0.073 A 
HETATM    2  C   UNL     1      61.915   8.029   4.281  1.00  0.00     0.059 A 
HETATM    3  C   UNL     1      64.139   8.494   5.357  1.00  0.00     0.102 C 
HETATM    4  N   UNL     1      65.105   9.115   5.537  1.00  0.00    -0.191 NA
HETATM    5  C   UNL     1      60.771   7.211   4.250  1.00  0.00     0.034 A 
HETATM    6  C   UNL     1      62.822   6.581   6.010  1.00  0.00     0.054 A 
HETATM    7  C   UNL     1      61.656   5.810   6.023  1.00  0.00     0.027 A 
HETATM    8  C   UNL     1      60.662   6.100   5.093  1.00  0.00     0.031 A 
ENDROOT
BRANCH   2   9
HETATM    9  N   UNL     1      61.958   9.159   3.411  1.00  0.00    -0.331 N 
HETATM   10  C   UNL     1      62.180   9.110   2.045  1.00  0.00     0.096 A 
HETATM   11  C   UNL     1      62.081  10.381   1.522  1.00  0.00     0.019 A 
HETATM   12  C   UNL     1      61.851  11.256   2.601  1.00  0.00     0.019 A 
HETATM   13  C   UNL     1      61.808  10.489   3.746  1.00  0.00     0.096 A 
ENDBRANCH   2   9
BRANCH   7  14
HETATM   14  N   UNL     1      61.590   4.647   6.793  1.00  0.00    -0.399 N 
HETATM   15  H   UNL     1      62.235   3.919   6.643  1.00  0.00     0.156 HD
HETATM   16  H   UNL     1      60.898   4.555   7.488  1.00  0.00     0.156 HD
ENDBRANCH   7  14
TORSDOF 2
ENDMDL
MODEL 7
REMARK VINA RESULT:      -4.5      2.285      3.169
REMARK  2 active torsions:
REMARK  status: ('A' for Active; 'I' for Inactive)
REMARK    1  A    between atoms: N_2  and  C_3 
REMARK    2  A    between atoms: C_12  and  N_14 
ROOT
HETATM    1  C   UNL     1      62.545   8.697   3.863  1.00  0.00     0.073 A 
HETATM    2  C   UNL     1      62.680   7.807   2.782  1.00  0.00     0.059 A 
HETATM    3  C   UNL     1      62.863   8.372   5.224  1.00  0.00     0.102 C 
HETATM    4  N   UNL     1      63.115   8.143   6.335  1.00  0.00    -0.191 NA
HETATM    5  C   UNL     1      62.414   8.274   1.482  1.00  0.00     0.034 A 
HETATM    6  C   UNL     1      62.167  10.031   3.616  1.00  0.00     0.054 A 
HETATM    7  C   UNL     1      61.968  10.508   2.318  1.00  0.00     0.027 A 
HETATM    8  C   UNL     1      62.035   9.603   1.263  1.00  0.00     0.031 A 
ENDROOT
BRANCH   2   9
HETATM    9  N   UNL     1      63.082   6.446   2.938  1.00  0.00    -0.331 N 
HETATM   10  C   UNL     1      64.380   5.977   2.827  1.00  0.00     0.096 A 
HETATM   11  C   UNL     1      64.402   4.628   3.111  1.00  0.00     0.019 A 
HETATM   12  C   UNL     1      63.071   4.234   3.348  1.00  0.00     0.019 A 
HETATM   13  C   UNL     1      62.282   5.355   3.210  1.00  0.00     0.096 A 
ENDBRANCH   2   9
BRANCH   7  14
HETATM   14  N   UNL     1      61.495  11.806   2.110  1.00  0.00    -0.399 N 
HETATM   15  H   UNL     1      61.909  12.563   2.583  1.00  0.00     0.156 HD
HETATM   16  H   UNL     1      60.747  11.964   1.489  1.00  0.00     0.156 HD
ENDBRANCH   7  14
TORSDOF 2
ENDMDL
MODEL 8
REMARK VINA RESULT:      -4.4      1.620      4.606
REMARK  2 active torsions:
REMARK  status: ('A' for Active; 'I' for Inactive)
REMARK    1  A    between atoms: N_2  and  C_3 
REMARK    2  A    between atoms: C_12  and  N_14 
ROOT
HETATM    1  C   UNL     1      64.258   8.537   4.686  1.00  0.00     0.073 A 
HETATM    2  C   UNL     1      63.804   7.716   3.637  1.00  0.00     0.059 A 
HETATM    3  C   UNL     1      63.530   9.655   5.212  1.00  0.00     0.102 C 
HETATM    4  N   UNL     1      62.965  10.564   5.664  1.00  0.00    -0.191 NA
HETATM    5  C   UNL     1      64.576   6.598   3.269  1.00  0.00     0.034 A 
HETATM    6  C   UNL     1      65.457   8.210   5.349  1.00  0.00     0.054 A 
HETATM    7  C   UNL     1      66.186   7.063   5.024  1.00  0.00     0.027 A 
HETATM    8  C   UNL     1      65.766   6.298   3.939  1.00  0.00     0.031 A 
ENDROOT
BRANCH   2   9
HETATM    9  N   UNL     1      62.589   7.958   2.928  1.00  0.00    -0.331 N 
HETATM   10  C   UNL     1      61.354   7.423   3.251  1.00  0.00     0.096 A 
HETATM   11  C   UNL     1      60.401   7.931   2.394  1.00  0.00     0.019 A 
HETATM   12  C   UNL     1      61.071   8.760   1.475  1.00  0.00     0.019 A 
HETATM   13  C   UNL     1      62.409   8.738   1.805  1.00  0.00     0.096 A 
ENDBRANCH   2   9
BRANCH   7  14
HETATM   14  N   UNL     1      67.422   6.820   5.628  1.00  0.00    -0.399 N 
HETATM   15  H   UNL     1      68.247   6.851   5.091  1.00  0.00     0.156 HD
HETATM   16  H   UNL     1      67.469   6.618   6.590  1.00  0.00     0.156 HD
ENDBRANCH   7  14
TORSDOF 2
ENDMDL
MODEL 9
REMARK VINA RESULT:      -4.4      1.863      4.431
REMARK  2 active torsions:
REMARK  status: ('A' for Active; 'I' for Inactive)
REMARK    1  A    between atoms: N_2  and  C_3 
REMARK    2  A    between atoms: C_12  and  N_14 
ROOT
HETATM    1  C   UNL     1      63.861   7.814   4.138  1.00  0.00     0.073 A 
HETATM    2  C   UNL     1      62.860   8.141   3.204  1.00  0.00     0.059 A 
HETATM    3  C   UNL     1      64.489   8.759   5.016  1.00  0.00     0.102 C 
HETATM    4  N   UNL     1      65.014   9.497   5.744  1.00  0.00    -0.191 NA
HETATM    5  C   UNL     1      62.265   7.107   2.459  1.00  0.00     0.034 A 
HETATM    6  C   UNL     1      64.226   6.465   4.314  1.00  0.00     0.054 A 
HETATM    7  C   UNL     1      63.586   5.436   3.620  1.00  0.00     0.027 A 
HETATM    8  C   UNL     1      62.648   5.776   2.649  1.00  0.00     0.031 A 
ENDROOT
BRANCH   2   9
HETATM    9  N   UNL     1      62.412   9.478   2.978  1.00  0.00    -0.331 N 
HETATM   10  C   UNL     1      62.136  10.407   3.967  1.00  0.00     0.096 A 
HETATM   11  C   UNL     1      61.799  11.608   3.381  1.00  0.00     0.019 A 
HETATM   12  C   UNL     1      61.808  11.405   1.988  1.00  0.00     0.019 A 
HETATM   13  C   UNL     1      62.158  10.090   1.768  1.00  0.00     0.096 A 
ENDBRANCH   2   9
BRANCH   7  14
HETATM   14  N   UNL     1      64.037   4.119   3.739  1.00  0.00    -0.399 N 
HETATM   15  H   UNL     1      63.867   3.612   4.566  1.00  0.00     0.156 HD
HETATM   16  H   UNL     1      64.526   3.697   2.995  1.00  0.00     0.156 HD
ENDBRANCH   7  14
TORSDOF 2
ENDMDL
