MODEL 1
REMARK VINA RESULT:      -5.1      0.000      0.000
REMARK  3 active torsions:
REMARK  status: ('A' for Active; 'I' for Inactive)
REMARK    1  A    between atoms: C_1  and  C_6 
REMARK    2  A    between atoms: C_3  and  O_8 
REMARK    3  A    between atoms: C_6  and  O_9 
ROOT
HETATM    1  C   UNL     1      64.035   7.719   5.102  1.00  0.00     0.115 A 
HETATM    2  S   UNL     1      63.929   6.792   3.664  1.00  0.00    -0.081 SA
HETATM    3  C   UNL     1      63.405   8.936   4.938  1.00  0.00     0.100 A 
HETATM    4  C   UNL     1      62.834   9.127   3.639  1.00  0.00     0.016 A 
HETATM    5  C   UNL     1      63.048   8.013   2.827  1.00  0.00     0.018 A 
HETATM    6  C   UNL     1      62.123  10.225   3.093  1.00  0.00     0.015 A 
HETATM    7  C   UNL     1      62.574   7.966   1.500  1.00  0.00     0.020 A 
HETATM    8  C   UNL     1      61.652  10.185   1.779  1.00  0.00     0.001 A 
HETATM    9  C   UNL     1      61.875   9.065   0.991  1.00  0.00     0.001 A 
ENDROOT
BRANCH   1  10
HETATM   10  C   UNL     1      64.727   7.156   6.246  1.00  0.00     0.302 C 
HETATM   11  O   UNL     1      64.531   6.062   6.760  1.00  0.00    -0.259 OA
BRANCH  10  12
HETATM   12  O   UNL     1      65.670   8.048   6.695  1.00  0.00    -0.322 OA
HETATM   13  C   UNL     1      66.947   7.913   6.068  1.00  0.00     0.213 C 
ENDBRANCH  10  12
ENDBRANCH   1  10
BRANCH   3  14
HETATM   14  O   UNL     1      63.324   9.877   5.906  1.00  0.00    -0.358 OA
HETATM   15  H   UNL     1      64.098  10.315   6.201  1.00  0.00     0.217 HD
ENDBRANCH   3  14
TORSDOF 3
ENDMDL
MODEL 2
REMARK VINA RESULT:      -4.8      1.951      4.649
REMARK  3 active torsions:
REMARK  status: ('A' for Active; 'I' for Inactive)
REMARK    1  A    between atoms: C_1  and  C_6 
REMARK    2  A    between atoms: C_3  and  O_8 
REMARK    3  A    between atoms: C_6  and  O_9 
ROOT
HETATM    1  C   UNL     1      62.981   8.667   4.077  1.00  0.00     0.115 A 
HETATM    2  S   UNL     1      63.506   7.288   3.205  1.00  0.00    -0.081 SA
HETATM    3  C   UNL     1      63.934   9.044   5.001  1.00  0.00     0.100 A 
HETATM    4  C   UNL     1      65.099   8.210   5.011  1.00  0.00     0.016 A 
HETATM    5  C   UNL     1      64.997   7.194   4.060  1.00  0.00     0.018 A 
HETATM    6  C   UNL     1      66.272   8.269   5.804  1.00  0.00     0.015 A 
HETATM    7  C   UNL     1      66.026   6.247   3.881  1.00  0.00     0.020 A 
HETATM    8  C   UNL     1      67.294   7.332   5.632  1.00  0.00     0.001 A 
HETATM    9  C   UNL     1      67.171   6.332   4.678  1.00  0.00     0.001 A 
ENDROOT
BRANCH   1  10
HETATM   10  C   UNL     1      61.685   9.239   3.766  1.00  0.00     0.302 C 
HETATM   11  O   UNL     1      60.677   8.634   3.422  1.00  0.00    -0.259 OA
BRANCH  10  12
HETATM   12  O   UNL     1      61.738  10.603   3.912  1.00  0.00    -0.322 OA
HETATM   13  C   UNL     1      61.806  11.321   2.677  1.00  0.00     0.213 C 
ENDBRANCH  10  12
ENDBRANCH   1  10
BRANCH   3  14
HETATM   14  O   UNL     1      63.799  10.102   5.833  1.00  0.00    -0.358 OA
HETATM   15  H   UNL     1      62.971  10.533   5.912  1.00  0.00     0.217 HD
ENDBRANCH   3  14
TORSDOF 3
ENDMDL
MODEL 3
REMARK VINA RESULT:      -4.7      1.710      2.242
REMARK  3 active torsions:
REMARK  status: ('A' for Active; 'I' for Inactive)
REMARK    1  A    between atoms: C_1  and  C_6 
REMARK    2  A    between atoms: C_3  and  O_8 
REMARK    3  A    between atoms: C_6  and  O_9 
ROOT
HETATM    1  C   UNL     1      65.724   7.173   4.827  1.00  0.00     0.115 A 
HETATM    2  S   UNL     1      64.674   6.628   3.586  1.00  0.00    -0.081 SA
HETATM    3  C   UNL     1      65.273   8.369   5.348  1.00  0.00     0.100 A 
HETATM    4  C   UNL     1      64.072   8.855   4.738  1.00  0.00     0.016 A 
HETATM    5  C   UNL     1      63.626   7.985   3.743  1.00  0.00     0.018 A 
HETATM    6  C   UNL     1      63.316  10.028   4.989  1.00  0.00     0.015 A 
HETATM    7  C   UNL     1      62.456   8.251   3.002  1.00  0.00     0.020 A 
HETATM    8  C   UNL     1      62.157  10.297   4.257  1.00  0.00     0.001 A 
HETATM    9  C   UNL     1      61.731   9.415   3.274  1.00  0.00     0.001 A 
ENDROOT
BRANCH   1  10
HETATM   10  C   UNL     1      66.884   6.371   5.162  1.00  0.00     0.302 C 
HETATM   11  O   UNL     1      67.439   5.545   4.448  1.00  0.00    -0.259 OA
BRANCH  10  12
HETATM   12  O   UNL     1      67.296   6.670   6.438  1.00  0.00    -0.322 OA
HETATM   13  C   UNL     1      66.951   5.679   7.410  1.00  0.00     0.213 C 
ENDBRANCH  10  12
ENDBRANCH   1  10
BRANCH   3  14
HETATM   14  O   UNL     1      65.897   9.038   6.344  1.00  0.00    -0.358 OA
HETATM   15  H   UNL     1      65.767   9.962   6.442  1.00  0.00     0.217 HD
ENDBRANCH   3  14
TORSDOF 3
ENDMDL
MODEL 4
REMARK VINA RESULT:      -4.7      1.395      2.163
REMARK  3 active torsions:
REMARK  status: ('A' for Active; 'I' for Inactive)
REMARK    1  A    between atoms: C_1  and  C_6 
REMARK    2  A    between atoms: C_3  and  O_8 
REMARK    3  A    between atoms: C_6  and  O_9 
ROOT
HETATM    1  C   UNL     1      64.157   7.651   4.977  1.00  0.00     0.115 A 
HETATM    2  S   UNL     1      63.414   9.193   5.061  1.00  0.00    -0.081 SA
HETATM    3  C   UNL     1      63.930   7.074   3.744  1.00  0.00     0.100 A 
HETATM    4  C   UNL     1      63.145   7.879   2.858  1.00  0.00     0.016 A 
HETATM    5  C   UNL     1      62.790   9.088   3.460  1.00  0.00     0.018 A 
HETATM    6  C   UNL     1      62.704   7.637   1.533  1.00  0.00     0.015 A 
HETATM    7  C   UNL     1      62.018  10.050   2.778  1.00  0.00     0.020 A 
HETATM    8  C   UNL     1      61.936   8.586   0.854  1.00  0.00     0.001 A 
HETATM    9  C   UNL     1      61.598   9.782   1.472  1.00  0.00     0.001 A 
ENDROOT
BRANCH   1  10
HETATM   10  C   UNL     1      64.887   7.164   6.132  1.00  0.00     0.302 C 
HETATM   11  O   UNL     1      64.499   7.146   7.294  1.00  0.00    -0.259 OA
BRANCH  10  12
HETATM   12  O   UNL     1      66.121   6.709   5.736  1.00  0.00    -0.322 OA
HETATM   13  C   UNL     1      67.112   7.733   5.622  1.00  0.00     0.213 C 
ENDBRANCH  10  12
ENDBRANCH   1  10
BRANCH   3  14
HETATM   14  O   UNL     1      64.398   5.856   3.386  1.00  0.00    -0.358 OA
HETATM   15  H   UNL     1      64.465   5.173   4.024  1.00  0.00     0.217 HD
ENDBRANCH   3  14
TORSDOF 3
ENDMDL
MODEL 5
REMARK VINA RESULT:      -4.5      1.623      2.033
REMARK  3 active torsions:
REMARK  status: ('A' for Active; 'I' for Inactive)
REMARK    1  A    between atoms: C_1  and  C_6 
REMARK    2  A    between atoms: C_3  and  O_8 
REMARK    3  A    between atoms: C_6  and  O_9 
ROOT
HETATM    1  C   UNL     1      63.578   6.974   4.222  1.00  0.00     0.115 A 
HETATM    2  S   UNL     1      63.235   7.092   2.546  1.00  0.00    -0.081 SA
HETATM    3  C   UNL     1      63.264   8.156   4.861  1.00  0.00     0.100 A 
HETATM    4  C   UNL     1      62.746   9.170   3.992  1.00  0.00     0.016 A 
HETATM    5  C   UNL     1      62.674   8.714   2.675  1.00  0.00     0.018 A 
HETATM    6  C   UNL     1      62.322  10.494   4.265  1.00  0.00     0.015 A 
HETATM    7  C   UNL     1      62.191   9.536   1.637  1.00  0.00     0.020 A 
HETATM    8  C   UNL     1      61.844  11.314   3.240  1.00  0.00     0.001 A 
HETATM    9  C   UNL     1      61.779  10.837   1.938  1.00  0.00     0.001 A 
ENDROOT
BRANCH   1  10
HETATM   10  C   UNL     1      64.121   5.733   4.738  1.00  0.00     0.302 C 
HETATM   11  O   UNL     1      64.824   4.930   4.136  1.00  0.00    -0.259 OA
BRANCH  10  12
HETATM   12  O   UNL     1      63.728   5.568   6.044  1.00  0.00    -0.322 OA
HETATM   13  C   UNL     1      64.622   4.772   6.827  1.00  0.00     0.213 C 
ENDBRANCH  10  12
ENDBRANCH   1  10
BRANCH   3  14
HETATM   14  O   UNL     1      63.425   8.359   6.189  1.00  0.00    -0.358 OA
HETATM   15  H   UNL     1      62.818   8.898   6.658  1.00  0.00     0.217 HD
ENDBRANCH   3  14
TORSDOF 3
ENDMDL
MODEL 6
REMARK VINA RESULT:      -4.2     12.276     13.653
REMARK  3 active torsions:
REMARK  status: ('A' for Active; 'I' for Inactive)
REMARK    1  A    between atoms: C_1  and  C_6 
REMARK    2  A    between atoms: C_3  and  O_8 
REMARK    3  A    between atoms: C_6  and  O_9 
ROOT
HETATM    1  C   UNL     1      55.014   2.860  12.493  1.00  0.00     0.115 A 
HETATM    2  S   UNL     1      55.844   2.336  11.088  1.00  0.00    -0.081 SA
HETATM    3  C   UNL     1      55.802   2.683  13.612  1.00  0.00     0.100 A 
HETATM    4  C   UNL     1      57.087   2.115  13.336  1.00  0.00     0.016 A 
HETATM    5  C   UNL     1      57.247   1.873  11.971  1.00  0.00     0.018 A 
HETATM    6  C   UNL     1      58.158   1.783  14.204  1.00  0.00     0.015 A 
HETATM    7  C   UNL     1      58.436   1.318  11.455  1.00  0.00     0.020 A 
HETATM    8  C   UNL     1      59.338   1.231  13.699  1.00  0.00     0.001 A 
HETATM    9  C   UNL     1      59.475   1.003  12.337  1.00  0.00     0.001 A 
ENDROOT
BRANCH   1  10
HETATM   10  C   UNL     1      53.671   3.391  12.354  1.00  0.00     0.302 C 
HETATM   11  O   UNL     1      52.692   2.808  11.904  1.00  0.00    -0.259 OA
BRANCH  10  12
HETATM   12  O   UNL     1      53.640   4.685  12.811  1.00  0.00    -0.322 OA
HETATM   13  C   UNL     1      52.544   4.969  13.685  1.00  0.00     0.213 C 
ENDBRANCH  10  12
ENDBRANCH   1  10
BRANCH   3  14
HETATM   14  O   UNL     1      55.413   3.009  14.866  1.00  0.00    -0.358 OA
HETATM   15  H   UNL     1      55.411   3.906  15.138  1.00  0.00     0.217 HD
ENDBRANCH   3  14
TORSDOF 3
ENDMDL
MODEL 7
REMARK VINA RESULT:      -4.1      2.475      2.819
REMARK  3 active torsions:
REMARK  status: ('A' for Active; 'I' for Inactive)
REMARK    1  A    between atoms: C_1  and  C_6 
REMARK    2  A    between atoms: C_3  and  O_8 
REMARK    3  A    between atoms: C_6  and  O_9 
ROOT
HETATM    1  C   UNL     1      62.220   7.971   4.602  1.00  0.00     0.115 A 
HETATM    2  S   UNL     1      62.632   8.863   3.198  1.00  0.00    -0.081 SA
HETATM    3  C   UNL     1      61.053   7.263   4.398  1.00  0.00     0.100 A 
HETATM    4  C   UNL     1      60.481   7.445   3.098  1.00  0.00     0.016 A 
HETATM    5  C   UNL     1      61.257   8.309   2.324  1.00  0.00     0.018 A 
HETATM    6  C   UNL     1      59.306   6.902   2.520  1.00  0.00     0.015 A 
HETATM    7  C   UNL     1      60.895   8.638   1.001  1.00  0.00     0.020 A 
HETATM    8  C   UNL     1      58.942   7.226   1.211  1.00  0.00     0.001 A 
HETATM    9  C   UNL     1      59.731   8.086   0.459  1.00  0.00     0.001 A 
ENDROOT
BRANCH   1  10
HETATM   10  C   UNL     1      63.085   8.057   5.763  1.00  0.00     0.302 C 
HETATM   11  O   UNL     1      62.906   7.531   6.855  1.00  0.00    -0.259 OA
BRANCH  10  12
HETATM   12  O   UNL     1      64.175   8.838   5.467  1.00  0.00    -0.322 OA
HETATM   13  C   UNL     1      65.431   8.176   5.633  1.00  0.00     0.213 C 
ENDBRANCH  10  12
ENDBRANCH   1  10
BRANCH   3  14
HETATM   14  O   UNL     1      60.484   6.465   5.330  1.00  0.00    -0.358 OA
HETATM   15  H   UNL     1      59.679   6.720   5.737  1.00  0.00     0.217 HD
ENDBRANCH   3  14
TORSDOF 3
ENDMDL
MODEL 8
REMARK VINA RESULT:      -4.1      2.083      5.441
REMARK  3 active torsions:
REMARK  status: ('A' for Active; 'I' for Inactive)
REMARK    1  A    between atoms: C_1  and  C_6 
REMARK    2  A    between atoms: C_3  and  O_8 
REMARK    3  A    between atoms: C_6  and  O_9 
ROOT
HETATM    1  C   UNL     1      63.606   7.412   5.336  1.00  0.00     0.115 A 
HETATM    2  S   UNL     1      63.448   5.774   5.816  1.00  0.00    -0.081 SA
HETATM    3  C   UNL     1      64.762   7.956   5.858  1.00  0.00     0.100 A 
HETATM    4  C   UNL     1      65.527   7.047   6.656  1.00  0.00     0.016 A 
HETATM    5  C   UNL     1      64.914   5.794   6.718  1.00  0.00     0.018 A 
HETATM    6  C   UNL     1      66.748   7.228   7.353  1.00  0.00     0.015 A 
HETATM    7  C   UNL     1      65.484   4.730   7.446  1.00  0.00     0.020 A 
HETATM    8  C   UNL     1      67.317   6.178   8.078  1.00  0.00     0.001 A 
HETATM    9  C   UNL     1      66.690   4.940   8.122  1.00  0.00     0.001 A 
ENDROOT
BRANCH   1  10
HETATM   10  C   UNL     1      62.578   7.996   4.497  1.00  0.00     0.302 C 
HETATM   11  O   UNL     1      61.447   7.564   4.310  1.00  0.00    -0.259 OA
BRANCH  10  12
HETATM   12  O   UNL     1      63.058   9.144   3.915  1.00  0.00    -0.322 OA
HETATM   13  C   UNL     1      62.149  10.246   3.961  1.00  0.00     0.213 C 
ENDBRANCH  10  12
ENDBRANCH   1  10
BRANCH   3  14
HETATM   14  O   UNL     1      65.155   9.233   5.645  1.00  0.00    -0.358 OA
HETATM   15  H   UNL     1      64.631   9.803   5.116  1.00  0.00     0.217 HD
ENDBRANCH   3  14
TORSDOF 3
ENDMDL
MODEL 9
REMARK VINA RESULT:      -4.1      2.383      3.145
REMARK  3 active torsions:
REMARK  status: ('A' for Active; 'I' for Inactive)
REMARK    1  A    between atoms: C_1  and  C_6 
REMARK    2  A    between atoms: C_3  and  O_8 
REMARK    3  A    between atoms: C_6  and  O_9 
ROOT
HETATM    1  C   UNL     1      65.945   6.742   4.697  1.00  0.00     0.115 A 
HETATM    2  S   UNL     1      65.644   8.099   5.701  1.00  0.00    -0.081 SA
HETATM    3  C   UNL     1      64.999   6.665   3.695  1.00  0.00     0.100 A 
HETATM    4  C   UNL     1      64.017   7.706   3.739  1.00  0.00     0.016 A 
HETATM    5  C   UNL     1      64.255   8.577   4.803  1.00  0.00     0.018 A 
HETATM    6  C   UNL     1      62.902   7.962   2.902  1.00  0.00     0.015 A 
HETATM    7  C   UNL     1      63.420   9.686   5.048  1.00  0.00     0.020 A 
HETATM    8  C   UNL     1      62.070   9.059   3.141  1.00  0.00     0.001 A 
HETATM    9  C   UNL     1      62.329   9.913   4.204  1.00  0.00     0.001 A 
ENDROOT
BRANCH   1  10
HETATM   10  C   UNL     1      67.081   5.891   4.995  1.00  0.00     0.302 C 
HETATM   11  O   UNL     1      67.412   4.871   4.403  1.00  0.00    -0.259 OA
BRANCH  10  12
HETATM   12  O   UNL     1      67.762   6.397   6.074  1.00  0.00    -0.322 OA
HETATM   13  C   UNL     1      68.006   5.443   7.111  1.00  0.00     0.213 C 
ENDBRANCH  10  12
ENDBRANCH   1  10
BRANCH   3  14
HETATM   14  O   UNL     1      64.983   5.699   2.748  1.00  0.00    -0.358 OA
HETATM   15  H   UNL     1      65.732   5.566   2.201  1.00  0.00     0.217 HD
ENDBRANCH   3  14
TORSDOF 3
ENDMDL
