MODEL 1
REMARK VINA RESULT:      -5.9      0.000      0.000
REMARK  3 active torsions:
REMARK  status: ('A' for Active; 'I' for Inactive)
REMARK    1  A    between atoms: C_1  and  O_2 
REMARK    2  A    between atoms: O_2  and  C_3 
REMARK    3  A    between atoms: C_8  and  N_12 
ROOT
HETATM    1  C   UNL     1      64.320   7.668   4.803  1.00  0.00     0.174 A 
HETATM    2  N   UNL     1      64.919   8.373   5.799  1.00  0.00    -0.345 N 
ATOM      3  HN  UNL     1      64.392   9.037   6.365  1.00  0.00     0.167 HD
HETATM    4  C   UNL     1      65.015   6.755   3.978  1.00  0.00     0.077 A 
HETATM    5  C   UNL     1      66.233   8.163   6.012  1.00  0.00     0.090 A 
HETATM    6  C   UNL     1      66.373   6.569   4.252  1.00  0.00     0.035 A 
HETATM    7  C   UNL     1      66.993   7.269   5.284  1.00  0.00     0.019 A 
ENDROOT
BRANCH   1   8
HETATM    8  O   UNL     1      63.005   8.039   4.633  1.00  0.00    -0.288 OA
BRANCH   8   9
HETATM    9  C   UNL     1      62.662   9.185   3.961  1.00  0.00     0.116 A 
HETATM   10  C   UNL     1      62.474  10.453   4.518  1.00  0.00     0.153 A 
HETATM   11  C   UNL     1      61.991  11.503   3.743  1.00  0.00     0.087 A 
HETATM   12  F   UNL     1      62.704  10.685   5.817  1.00  0.00    -0.203 F 
HETATM   13  C   UNL     1      61.761  11.298   2.390  1.00  0.00     0.119 A 
HETATM   14  C   UNL     1      62.030  10.070   1.796  1.00  0.00     0.045 A 
HETATM   15  F   UNL     1      61.265  12.295   1.645  1.00  0.00    -0.206 F 
HETATM   16  C   UNL     1      62.484   9.013   2.582  1.00  0.00     0.043 A 
ENDBRANCH   8   9
ENDBRANCH   1   8
BRANCH   4  17
HETATM   17  N   UNL     1      64.522   6.205   2.776  1.00  0.00    -0.396 N 
HETATM   18  H   UNL     1      65.067   6.243   1.957  1.00  0.00     0.156 HD
HETATM   19  H   UNL     1      63.632   5.784   2.756  1.00  0.00     0.156 HD
ENDBRANCH   4  17
TORSDOF 3
ENDMDL
MODEL 2
REMARK VINA RESULT:      -5.8      0.590      1.764
REMARK  3 active torsions:
REMARK  status: ('A' for Active; 'I' for Inactive)
REMARK    1  A    between atoms: C_1  and  O_2 
REMARK    2  A    between atoms: O_2  and  C_3 
REMARK    3  A    between atoms: C_8  and  N_12 
ROOT
HETATM    1  C   UNL     1      64.298   7.406   4.223  1.00  0.00     0.174 A 
HETATM    2  N   UNL     1      64.344   6.360   3.357  1.00  0.00    -0.345 N 
ATOM      3  HN  UNL     1      63.519   6.074   2.831  1.00  0.00     0.167 HD
HETATM    4  C   UNL     1      65.408   7.822   4.990  1.00  0.00     0.077 A 
HETATM    5  C   UNL     1      65.519   5.713   3.218  1.00  0.00     0.090 A 
HETATM    6  C   UNL     1      66.603   7.123   4.797  1.00  0.00     0.035 A 
HETATM    7  C   UNL     1      66.669   6.063   3.897  1.00  0.00     0.019 A 
ENDROOT
BRANCH   1   8
HETATM    8  O   UNL     1      63.026   7.919   4.336  1.00  0.00    -0.288 OA
BRANCH   8   9
HETATM    9  C   UNL     1      62.673   9.106   3.744  1.00  0.00     0.116 A 
HETATM   10  C   UNL     1      62.478  10.333   4.385  1.00  0.00     0.153 A 
HETATM   11  C   UNL     1      61.986  11.429   3.684  1.00  0.00     0.087 A 
HETATM   12  F   UNL     1      62.708  10.477   5.697  1.00  0.00    -0.203 F 
HETATM   13  C   UNL     1      61.754  11.314   2.320  1.00  0.00     0.119 A 
HETATM   14  C   UNL     1      62.030  10.131   1.644  1.00  0.00     0.045 A 
HETATM   15  F   UNL     1      61.250  12.356   1.646  1.00  0.00    -0.206 F 
HETATM   16  C   UNL     1      62.493   9.026   2.357  1.00  0.00     0.043 A 
ENDBRANCH   8   9
ENDBRANCH   1   8
BRANCH   4  17
HETATM   17  N   UNL     1      65.355   8.711   6.086  1.00  0.00    -0.396 N 
HETATM   18  H   UNL     1      65.253   8.360   7.000  1.00  0.00     0.156 HD
HETATM   19  H   UNL     1      65.419   9.682   5.935  1.00  0.00     0.156 HD
ENDBRANCH   4  17
TORSDOF 3
ENDMDL
MODEL 3
REMARK VINA RESULT:      -5.7      2.071      2.624
REMARK  3 active torsions:
REMARK  status: ('A' for Active; 'I' for Inactive)
REMARK    1  A    between atoms: C_1  and  O_2 
REMARK    2  A    between atoms: O_2  and  C_3 
REMARK    3  A    between atoms: C_8  and  N_12 
ROOT
HETATM    1  C   UNL     1      66.027   7.814   6.183  1.00  0.00     0.174 A 
HETATM    2  N   UNL     1      65.407   7.235   7.244  1.00  0.00    -0.345 N 
ATOM      3  HN  UNL     1      64.565   7.642   7.651  1.00  0.00     0.167 HD
HETATM    4  C   UNL     1      67.207   7.299   5.602  1.00  0.00     0.077 A 
HETATM    5  C   UNL     1      65.943   6.102   7.741  1.00  0.00     0.090 A 
HETATM    6  C   UNL     1      67.711   6.116   6.150  1.00  0.00     0.035 A 
HETATM    7  C   UNL     1      67.074   5.500   7.223  1.00  0.00     0.019 A 
ENDROOT
BRANCH   1   8
HETATM    8  O   UNL     1      65.432   9.006   5.832  1.00  0.00    -0.288 OA
BRANCH   8   9
HETATM    9  C   UNL     1      64.310   9.045   5.044  1.00  0.00     0.116 A 
HETATM   10  C   UNL     1      63.323  10.034   5.046  1.00  0.00     0.153 A 
HETATM   11  C   UNL     1      62.163   9.882   4.292  1.00  0.00     0.087 A 
HETATM   12  F   UNL     1      63.436  11.129   5.809  1.00  0.00    -0.203 F 
HETATM   13  C   UNL     1      62.025   8.766   3.479  1.00  0.00     0.119 A 
HETATM   14  C   UNL     1      63.036   7.816   3.388  1.00  0.00     0.045 A 
HETATM   15  F   UNL     1      60.898   8.597   2.775  1.00  0.00    -0.206 F 
HETATM   16  C   UNL     1      64.182   7.957   4.169  1.00  0.00     0.043 A 
ENDBRANCH   8   9
ENDBRANCH   1   8
BRANCH   4  17
HETATM   17  N   UNL     1      68.035   7.989   4.691  1.00  0.00    -0.396 N 
HETATM   18  H   UNL     1      67.759   8.086   3.751  1.00  0.00     0.156 HD
HETATM   19  H   UNL     1      68.890   8.372   4.995  1.00  0.00     0.156 HD
ENDBRANCH   4  17
TORSDOF 3
ENDMDL
MODEL 4
REMARK VINA RESULT:      -5.7      1.367      2.518
REMARK  3 active torsions:
REMARK  status: ('A' for Active; 'I' for Inactive)
REMARK    1  A    between atoms: C_1  and  O_2 
REMARK    2  A    between atoms: O_2  and  C_3 
REMARK    3  A    between atoms: C_8  and  N_12 
ROOT
HETATM    1  C   UNL     1      64.535   7.366   4.221  1.00  0.00     0.174 A 
HETATM    2  N   UNL     1      64.711   6.341   3.348  1.00  0.00    -0.345 N 
ATOM      3  HN  UNL     1      63.934   5.976   2.798  1.00  0.00     0.167 HD
HETATM    4  C   UNL     1      65.576   7.888   5.020  1.00  0.00     0.077 A 
HETATM    5  C   UNL     1      65.950   5.822   3.232  1.00  0.00     0.090 A 
HETATM    6  C   UNL     1      66.842   7.320   4.851  1.00  0.00     0.035 A 
HETATM    7  C   UNL     1      67.041   6.283   3.943  1.00  0.00     0.019 A 
ENDROOT
BRANCH   1   8
HETATM    8  O   UNL     1      63.213   7.742   4.307  1.00  0.00    -0.288 OA
BRANCH   8   9
HETATM    9  C   UNL     1      62.713   8.787   3.573  1.00  0.00     0.116 A 
HETATM   10  C   UNL     1      62.502   8.810   2.191  1.00  0.00     0.153 A 
HETATM   11  C   UNL     1      62.119   9.985   1.551  1.00  0.00     0.087 A 
HETATM   12  F   UNL     1      62.709   7.723   1.437  1.00  0.00    -0.203 F 
HETATM   13  C   UNL     1      61.879  11.123   2.309  1.00  0.00     0.119 A 
HETATM   14  C   UNL     1      61.991  11.098   3.694  1.00  0.00     0.045 A 
HETATM   15  F   UNL     1      61.541  12.265   1.696  1.00  0.00    -0.206 F 
HETATM   16  C   UNL     1      62.406   9.928   4.328  1.00  0.00     0.043 A 
ENDBRANCH   8   9
ENDBRANCH   1   8
BRANCH   4  17
HETATM   17  N   UNL     1      65.403   8.753   6.122  1.00  0.00    -0.396 N 
HETATM   18  H   UNL     1      65.425   8.394   7.038  1.00  0.00     0.156 HD
HETATM   19  H   UNL     1      65.261   9.716   5.974  1.00  0.00     0.156 HD
ENDBRANCH   4  17
TORSDOF 3
ENDMDL
MODEL 5
REMARK VINA RESULT:      -5.7      2.861      5.975
REMARK  3 active torsions:
REMARK  status: ('A' for Active; 'I' for Inactive)
REMARK    1  A    between atoms: C_1  and  O_2 
REMARK    2  A    between atoms: O_2  and  C_3 
REMARK    3  A    between atoms: C_8  and  N_12 
ROOT
HETATM    1  C   UNL     1      63.985   9.208   5.001  1.00  0.00     0.174 A 
HETATM    2  N   UNL     1      63.914   8.308   3.986  1.00  0.00    -0.345 N 
ATOM      3  HN  UNL     1      64.593   7.552   3.902  1.00  0.00     0.167 HD
HETATM    4  C   UNL     1      63.081  10.284   5.144  1.00  0.00     0.077 A 
HETATM    5  C   UNL     1      62.914   8.449   3.092  1.00  0.00     0.090 A 
HETATM    6  C   UNL     1      62.058  10.374   4.196  1.00  0.00     0.035 A 
HETATM    7  C   UNL     1      61.961   9.446   3.163  1.00  0.00     0.019 A 
ENDROOT
BRANCH   1   8
HETATM    8  O   UNL     1      65.097   9.004   5.787  1.00  0.00    -0.288 OA
BRANCH   8   9
HETATM    9  C   UNL     1      65.721   7.783   5.850  1.00  0.00     0.116 A 
HETATM   10  C   UNL     1      65.215   6.617   6.432  1.00  0.00     0.153 A 
HETATM   11  C   UNL     1      66.010   5.481   6.550  1.00  0.00     0.087 A 
HETATM   12  F   UNL     1      63.976   6.573   6.938  1.00  0.00    -0.203 F 
HETATM   13  C   UNL     1      67.292   5.492   6.019  1.00  0.00     0.119 A 
HETATM   14  C   UNL     1      67.782   6.609   5.352  1.00  0.00     0.045 A 
HETATM   15  F   UNL     1      68.073   4.412   6.157  1.00  0.00    -0.206 F 
HETATM   16  C   UNL     1      66.994   7.756   5.264  1.00  0.00     0.043 A 
ENDBRANCH   8   9
ENDBRANCH   1   8
BRANCH   4  17
HETATM   17  N   UNL     1      63.259  11.389   6.004  1.00  0.00    -0.396 N 
HETATM   18  H   UNL     1      63.615  12.236   5.650  1.00  0.00     0.156 HD
HETATM   19  H   UNL     1      63.027  11.313   6.958  1.00  0.00     0.156 HD
ENDBRANCH   4  17
TORSDOF 3
ENDMDL
MODEL 6
REMARK VINA RESULT:      -5.3      2.664      3.564
REMARK  3 active torsions:
REMARK  status: ('A' for Active; 'I' for Inactive)
REMARK    1  A    between atoms: C_1  and  O_2 
REMARK    2  A    between atoms: O_2  and  C_3 
REMARK    3  A    between atoms: C_8  and  N_12 
ROOT
HETATM    1  C   UNL     1      65.338   6.552   6.993  1.00  0.00     0.174 A 
HETATM    2  N   UNL     1      65.129   5.213   7.082  1.00  0.00    -0.345 N 
ATOM      3  HN  UNL     1      64.185   4.828   7.125  1.00  0.00     0.167 HD
HETATM    4  C   UNL     1      66.625   7.131   6.954  1.00  0.00     0.077 A 
HETATM    5  C   UNL     1      66.211   4.410   7.112  1.00  0.00     0.090 A 
HETATM    6  C   UNL     1      67.711   6.251   6.976  1.00  0.00     0.035 A 
HETATM    7  C   UNL     1      67.510   4.875   7.046  1.00  0.00     0.019 A 
ENDROOT
BRANCH   1   8
HETATM    8  O   UNL     1      64.158   7.259   7.061  1.00  0.00    -0.288 OA
BRANCH   8   9
HETATM    9  C   UNL     1      63.382   7.472   5.949  1.00  0.00     0.116 A 
HETATM   10  C   UNL     1      63.659   8.344   4.892  1.00  0.00     0.153 A 
HETATM   11  C   UNL     1      62.719   8.568   3.892  1.00  0.00     0.087 A 
HETATM   12  F   UNL     1      64.810   9.026   4.836  1.00  0.00    -0.203 F 
HETATM   13  C   UNL     1      61.523   7.862   3.914  1.00  0.00     0.119 A 
HETATM   14  C   UNL     1      61.266   6.920   4.903  1.00  0.00     0.045 A 
HETATM   15  F   UNL     1      60.601   8.096   2.971  1.00  0.00    -0.206 F 
HETATM   16  C   UNL     1      62.198   6.722   5.921  1.00  0.00     0.043 A 
ENDBRANCH   8   9
ENDBRANCH   1   8
BRANCH   4  17
HETATM   17  N   UNL     1      66.908   8.503   7.132  1.00  0.00    -0.396 N 
HETATM   18  H   UNL     1      67.568   8.787   7.804  1.00  0.00     0.156 HD
HETATM   19  H   UNL     1      66.443   9.176   6.584  1.00  0.00     0.156 HD
ENDBRANCH   4  17
TORSDOF 3
ENDMDL
MODEL 7
REMARK VINA RESULT:      -5.2      2.778      3.631
REMARK  3 active torsions:
REMARK  status: ('A' for Active; 'I' for Inactive)
REMARK    1  A    between atoms: C_1  and  O_2 
REMARK    2  A    between atoms: O_2  and  C_3 
REMARK    3  A    between atoms: C_8  and  N_12 
ROOT
HETATM    1  C   UNL     1      65.257   6.644   6.965  1.00  0.00     0.174 A 
HETATM    2  N   UNL     1      65.019   5.310   7.061  1.00  0.00    -0.345 N 
ATOM      3  HN  UNL     1      64.069   4.948   7.142  1.00  0.00     0.167 HD
HETATM    4  C   UNL     1      66.556   7.192   6.875  1.00  0.00     0.077 A 
HETATM    5  C   UNL     1      66.082   4.481   7.045  1.00  0.00     0.090 A 
HETATM    6  C   UNL     1      67.620   6.285   6.850  1.00  0.00     0.035 A 
HETATM    7  C   UNL     1      67.388   4.914   6.926  1.00  0.00     0.019 A 
ENDROOT
BRANCH   1   8
HETATM    8  O   UNL     1      64.100   7.380   7.083  1.00  0.00    -0.288 OA
BRANCH   8   9
HETATM    9  C   UNL     1      63.241   7.544   6.025  1.00  0.00     0.116 A 
HETATM   10  C   UNL     1      62.030   6.875   5.822  1.00  0.00     0.153 A 
HETATM   11  C   UNL     1      61.322   7.035   4.635  1.00  0.00     0.087 A 
HETATM   12  F   UNL     1      61.542   6.026   6.736  1.00  0.00    -0.203 F 
HETATM   13  C   UNL     1      61.794   7.922   3.678  1.00  0.00     0.119 A 
HETATM   14  C   UNL     1      62.945   8.668   3.899  1.00  0.00     0.045 A 
HETATM   15  F   UNL     1      61.133   8.056   2.520  1.00  0.00    -0.206 F 
HETATM   16  C   UNL     1      63.669   8.481   5.076  1.00  0.00     0.043 A 
ENDBRANCH   8   9
ENDBRANCH   1   8
BRANCH   4  17
HETATM   17  N   UNL     1      66.880   8.556   7.043  1.00  0.00    -0.396 N 
HETATM   18  H   UNL     1      67.080   8.907   7.940  1.00  0.00     0.156 HD
HETATM   19  H   UNL     1      66.904   9.155   6.263  1.00  0.00     0.156 HD
ENDBRANCH   4  17
TORSDOF 3
ENDMDL
MODEL 8
REMARK VINA RESULT:      -5.1      2.780      3.520
REMARK  3 active torsions:
REMARK  status: ('A' for Active; 'I' for Inactive)
REMARK    1  A    between atoms: C_1  and  O_2 
REMARK    2  A    between atoms: O_2  and  C_3 
REMARK    3  A    between atoms: C_8  and  N_12 
ROOT
HETATM    1  C   UNL     1      61.585   6.782   4.622  1.00  0.00     0.174 A 
HETATM    2  N   UNL     1      61.855   6.707   5.951  1.00  0.00    -0.345 N 
ATOM      3  HN  UNL     1      62.679   7.157   6.348  1.00  0.00     0.167 HD
HETATM    4  C   UNL     1      60.469   6.155   4.024  1.00  0.00     0.077 A 
HETATM    5  C   UNL     1      60.996   6.016   6.727  1.00  0.00     0.090 A 
HETATM    6  C   UNL     1      59.606   5.463   4.879  1.00  0.00     0.035 A 
HETATM    7  C   UNL     1      59.860   5.396   6.246  1.00  0.00     0.019 A 
ENDROOT
BRANCH   1   8
HETATM    8  O   UNL     1      62.581   7.437   3.934  1.00  0.00    -0.288 OA
BRANCH   8   9
HETATM    9  C   UNL     1      62.415   8.718   3.472  1.00  0.00     0.116 A 
HETATM   10  C   UNL     1      62.375   9.884   4.242  1.00  0.00     0.153 A 
HETATM   11  C   UNL     1      62.061  11.108   3.661  1.00  0.00     0.087 A 
HETATM   12  F   UNL     1      62.586   9.852   5.565  1.00  0.00    -0.203 F 
HETATM   13  C   UNL     1      61.855  11.175   2.290  1.00  0.00     0.119 A 
HETATM   14  C   UNL     1      61.983  10.045   1.490  1.00  0.00     0.045 A 
HETATM   15  F   UNL     1      61.521  12.345   1.728  1.00  0.00    -0.206 F 
HETATM   16  C   UNL     1      62.266   8.815   2.082  1.00  0.00     0.043 A 
ENDBRANCH   8   9
ENDBRANCH   1   8
BRANCH   4  17
HETATM   17  N   UNL     1      60.283   5.971   2.637  1.00  0.00    -0.396 N 
HETATM   18  H   UNL     1      60.546   6.679   2.007  1.00  0.00     0.156 HD
HETATM   19  H   UNL     1      59.888   5.134   2.300  1.00  0.00     0.156 HD
ENDBRANCH   4  17
TORSDOF 3
ENDMDL
MODEL 9
REMARK VINA RESULT:      -5.0      2.331      5.165
REMARK  3 active torsions:
REMARK  status: ('A' for Active; 'I' for Inactive)
REMARK    1  A    between atoms: C_1  and  O_2 
REMARK    2  A    between atoms: O_2  and  C_3 
REMARK    3  A    between atoms: C_8  and  N_12 
ROOT
HETATM    1  C   UNL     1      62.441   9.141   3.477  1.00  0.00     0.174 A 
HETATM    2  N   UNL     1      62.216  10.272   4.196  1.00  0.00    -0.345 N 
ATOM      3  HN  UNL     1      62.298  10.276   5.212  1.00  0.00     0.167 HD
HETATM    4  C   UNL     1      62.317   9.083   2.071  1.00  0.00     0.077 A 
HETATM    5  C   UNL     1      61.883  11.389   3.519  1.00  0.00     0.090 A 
HETATM    6  C   UNL     1      61.980  10.273   1.421  1.00  0.00     0.035 A 
HETATM    7  C   UNL     1      61.769  11.444   2.143  1.00  0.00     0.019 A 
ENDROOT
BRANCH   1   8
HETATM    8  O   UNL     1      62.685   8.058   4.292  1.00  0.00    -0.288 OA
BRANCH   8   9
HETATM    9  C   UNL     1      63.945   7.537   4.437  1.00  0.00     0.116 A 
HETATM   10  C   UNL     1      65.049   8.172   5.013  1.00  0.00     0.153 A 
HETATM   11  C   UNL     1      66.309   7.581   4.973  1.00  0.00     0.087 A 
HETATM   12  F   UNL     1      64.942   9.383   5.574  1.00  0.00    -0.203 F 
HETATM   13  C   UNL     1      66.448   6.318   4.414  1.00  0.00     0.119 A 
HETATM   14  C   UNL     1      65.347   5.628   3.920  1.00  0.00     0.045 A 
HETATM   15  F   UNL     1      67.663   5.758   4.343  1.00  0.00    -0.206 F 
HETATM   16  C   UNL     1      64.093   6.237   3.934  1.00  0.00     0.043 A 
ENDBRANCH   8   9
ENDBRANCH   1   8
BRANCH   4  17
HETATM   17  N   UNL     1      62.272   7.898   1.306  1.00  0.00    -0.396 N 
HETATM   18  H   UNL     1      61.561   7.770   0.637  1.00  0.00     0.156 HD
HETATM   19  H   UNL     1      62.951   7.198   1.441  1.00  0.00     0.156 HD
ENDBRANCH   4  17
TORSDOF 3
ENDMDL
