MODEL 1
REMARK VINA RESULT:      -5.4      0.000      0.000
REMARK  2 active torsions:
REMARK  status: ('A' for Active; 'I' for Inactive)
REMARK    1  A    between atoms: C_1  and  C_2 
REMARK    2  A    between atoms: C_1  and  O_8 
ROOT
HETATM    1  C   UNL     1      63.261   7.603   5.761  1.00  0.00     0.088 C 
HETATM    2  N   UNL     1      64.675   5.075   6.313  1.00  0.00    -0.075 N 
HETATM    3  C   UNL     1      64.790   7.498   5.931  1.00  0.00     0.070 C 
HETATM    4  C   UNL     1      62.691   6.221   5.383  1.00  0.00     0.070 C 
HETATM    5  C   UNL     1      65.205   6.335   6.827  1.00  0.00     0.235 C 
HETATM    6  C   UNL     1      63.212   5.113   6.299  1.00  0.00     0.235 C 
HETATM    7  H   UNL     1      65.018   4.927   5.363  1.00  0.00     0.277 HD
HETATM    8  H   UNL     1      64.983   4.312   6.916  1.00  0.00     0.277 HD
ENDROOT
BRANCH   1   9
HETATM    9  C   UNL     1      62.823   8.694   4.767  1.00  0.00    -0.024 A 
HETATM   10  C   UNL     1      62.567   8.426   3.410  1.00  0.00     0.012 A 
HETATM   11  C   UNL     1      62.187   9.445   2.529  1.00  0.00     0.024 A 
HETATM   12  C   UNL     1      62.062  10.750   2.987  1.00  0.00     0.034 A 
HETATM   13  C   UNL     1      62.316  11.048   4.322  1.00  0.00     0.024 A 
HETATM   14 CL   UNL     1      61.604  11.998   1.896  1.00  0.00    -0.084 Cl
HETATM   15  C   UNL     1      62.699  10.029   5.202  1.00  0.00     0.012 A 
ENDBRANCH   1   9
BRANCH   1  16
HETATM   16  O   UNL     1      62.716   7.970   7.041  1.00  0.00    -0.385 OA
HETATM   17  H   UNL     1      63.290   8.631   7.459  1.00  0.00     0.211 HD
ENDBRANCH   1  16
TORSDOF 2
ENDMDL
MODEL 2
REMARK VINA RESULT:      -5.2      1.928      2.662
REMARK  2 active torsions:
REMARK  status: ('A' for Active; 'I' for Inactive)
REMARK    1  A    between atoms: C_1  and  C_2 
REMARK    2  A    between atoms: C_1  and  O_8 
ROOT
HETATM    1  C   UNL     1      65.244   7.882   5.494  1.00  0.00     0.088 C 
HETATM    2  N   UNL     1      66.996   5.980   6.911  1.00  0.00    -0.075 N 
HETATM    3  C   UNL     1      66.571   7.349   4.917  1.00  0.00     0.070 C 
HETATM    4  C   UNL     1      64.731   6.913   6.579  1.00  0.00     0.070 C 
HETATM    5  C   UNL     1      67.573   6.966   6.001  1.00  0.00     0.235 C 
HETATM    6  C   UNL     1      65.824   6.541   7.582  1.00  0.00     0.235 C 
HETATM    7  H   UNL     1      66.719   5.153   6.381  1.00  0.00     0.277 HD
HETATM    8  H   UNL     1      67.692   5.725   7.612  1.00  0.00     0.277 HD
ENDROOT
BRANCH   1   9
HETATM    9  C   UNL     1      64.172   8.163   4.426  1.00  0.00    -0.024 A 
HETATM   10  C   UNL     1      63.343   9.299   4.462  1.00  0.00     0.012 A 
HETATM   11  C   UNL     1      62.366   9.514   3.484  1.00  0.00     0.024 A 
HETATM   12  C   UNL     1      62.195   8.597   2.457  1.00  0.00     0.034 A 
HETATM   13  C   UNL     1      62.994   7.459   2.397  1.00  0.00     0.024 A 
HETATM   14 CL   UNL     1      60.986   8.864   1.263  1.00  0.00    -0.084 Cl
HETATM   15  C   UNL     1      63.969   7.243   3.378  1.00  0.00     0.012 A 
ENDBRANCH   1   9
BRANCH   1  16
HETATM   16  O   UNL     1      65.533   9.141   6.129  1.00  0.00    -0.385 OA
HETATM   17  H   UNL     1      65.557   9.020   7.090  1.00  0.00     0.211 HD
ENDBRANCH   1  16
TORSDOF 2
ENDMDL
MODEL 3
REMARK VINA RESULT:      -4.7      2.192      3.124
REMARK  2 active torsions:
REMARK  status: ('A' for Active; 'I' for Inactive)
REMARK    1  A    between atoms: C_1  and  C_2 
REMARK    2  A    between atoms: C_1  and  O_8 
ROOT
HETATM    1  C   UNL     1      65.345   6.814   5.219  1.00  0.00     0.088 C 
HETATM    2  N   UNL     1      67.316   7.077   7.396  1.00  0.00    -0.075 N 
HETATM    3  C   UNL     1      64.963   6.941   6.708  1.00  0.00     0.070 C 
HETATM    4  C   UNL     1      66.765   7.375   5.005  1.00  0.00     0.070 C 
HETATM    5  C   UNL     1      66.043   6.404   7.641  1.00  0.00     0.235 C 
HETATM    6  C   UNL     1      67.762   6.826   6.026  1.00  0.00     0.235 C 
HETATM    7  H   UNL     1      67.199   8.082   7.535  1.00  0.00     0.277 HD
HETATM    8  H   UNL     1      68.015   6.717   8.046  1.00  0.00     0.277 HD
ENDROOT
BRANCH   1   9
HETATM    9  C   UNL     1      64.326   7.456   4.261  1.00  0.00    -0.024 A 
HETATM   10  C   UNL     1      63.699   8.686   4.532  1.00  0.00     0.012 A 
HETATM   11  C   UNL     1      62.762   9.232   3.648  1.00  0.00     0.024 A 
HETATM   12  C   UNL     1      62.431   8.558   2.481  1.00  0.00     0.034 A 
HETATM   13  C   UNL     1      63.027   7.336   2.188  1.00  0.00     0.024 A 
HETATM   14 CL   UNL     1      61.273   9.233   1.403  1.00  0.00    -0.084 Cl
HETATM   15  C   UNL     1      63.962   6.788   3.075  1.00  0.00     0.012 A 
ENDBRANCH   1   9
BRANCH   1  16
HETATM   16  O   UNL     1      65.374   5.409   4.908  1.00  0.00    -0.385 OA
HETATM   17  H   UNL     1      64.710   4.946   5.442  1.00  0.00     0.211 HD
ENDBRANCH   1  16
TORSDOF 2
ENDMDL
MODEL 4
REMARK VINA RESULT:      -4.7      2.208      2.888
REMARK  2 active torsions:
REMARK  status: ('A' for Active; 'I' for Inactive)
REMARK    1  A    between atoms: C_1  and  C_2 
REMARK    2  A    between atoms: C_1  and  O_8 
ROOT
HETATM    1  C   UNL     1      65.355   6.772   5.288  1.00  0.00     0.088 C 
HETATM    2  N   UNL     1      67.263   7.157   7.503  1.00  0.00    -0.075 N 
HETATM    3  C   UNL     1      64.933   6.932   6.763  1.00  0.00     0.070 C 
HETATM    4  C   UNL     1      66.763   7.368   5.091  1.00  0.00     0.070 C 
HETATM    5  C   UNL     1      66.005   6.455   7.738  1.00  0.00     0.235 C 
HETATM    6  C   UNL     1      67.750   6.879   6.152  1.00  0.00     0.235 C 
HETATM    7  H   UNL     1      67.115   8.161   7.609  1.00  0.00     0.277 HD
HETATM    8  H   UNL     1      67.956   6.837   8.180  1.00  0.00     0.277 HD
ENDROOT
BRANCH   1   9
HETATM    9  C   UNL     1      64.342   7.355   4.288  1.00  0.00    -0.024 A 
HETATM   10  C   UNL     1      63.996   6.704   3.090  1.00  0.00     0.012 A 
HETATM   11  C   UNL     1      63.084   7.272   2.193  1.00  0.00     0.024 A 
HETATM   12  C   UNL     1      62.506   8.502   2.473  1.00  0.00     0.034 A 
HETATM   13  C   UNL     1      62.834   9.176   3.646  1.00  0.00     0.024 A 
HETATM   14 CL   UNL     1      61.393   9.198   1.362  1.00  0.00    -0.084 Cl
HETATM   15  C   UNL     1      63.749   8.608   4.541  1.00  0.00     0.012 A 
ENDBRANCH   1   9
BRANCH   1  16
HETATM   16  O   UNL     1      65.432   5.360   5.021  1.00  0.00    -0.385 OA
HETATM   17  H   UNL     1      64.637   4.923   5.362  1.00  0.00     0.211 HD
ENDBRANCH   1  16
TORSDOF 2
ENDMDL
MODEL 5
REMARK VINA RESULT:      -4.7      2.647      3.974
REMARK  2 active torsions:
REMARK  status: ('A' for Active; 'I' for Inactive)
REMARK    1  A    between atoms: C_1  and  C_2 
REMARK    2  A    between atoms: C_1  and  O_8 
ROOT
HETATM    1  C   UNL     1      66.592   6.591   6.963  1.00  0.00     0.088 C 
HETATM    2  N   UNL     1      67.840   4.676   8.826  1.00  0.00    -0.075 N 
HETATM    3  C   UNL     1      66.898   5.123   6.603  1.00  0.00     0.070 C 
HETATM    4  C   UNL     1      66.514   6.737   8.497  1.00  0.00     0.070 C 
HETATM    5  C   UNL     1      68.075   4.556   7.390  1.00  0.00     0.235 C 
HETATM    6  C   UNL     1      67.707   6.084   9.198  1.00  0.00     0.235 C 
HETATM    7  H   UNL     1      66.982   4.179   9.070  1.00  0.00     0.277 HD
HETATM    8  H   UNL     1      68.629   4.271   9.329  1.00  0.00     0.277 HD
ENDROOT
BRANCH   1   9
HETATM    9  C   UNL     1      65.336   7.150   6.272  1.00  0.00    -0.024 A 
HETATM   10  C   UNL     1      64.055   6.598   6.462  1.00  0.00     0.012 A 
HETATM   11  C   UNL     1      62.936   7.119   5.803  1.00  0.00     0.024 A 
HETATM   12  C   UNL     1      63.076   8.196   4.939  1.00  0.00     0.034 A 
HETATM   13  C   UNL     1      64.330   8.759   4.723  1.00  0.00     0.024 A 
HETATM   14 CL   UNL     1      61.698   8.826   4.126  1.00  0.00    -0.084 Cl
HETATM   15  C   UNL     1      65.450   8.235   5.380  1.00  0.00     0.012 A 
ENDBRANCH   1   9
BRANCH   1  16
HETATM   16  O   UNL     1      67.702   7.381   6.501  1.00  0.00    -0.385 OA
HETATM   17  H   UNL     1      68.162   6.907   5.791  1.00  0.00     0.211 HD
ENDBRANCH   1  16
TORSDOF 2
ENDMDL
MODEL 6
REMARK VINA RESULT:      -4.6      3.537      5.482
REMARK  2 active torsions:
REMARK  status: ('A' for Active; 'I' for Inactive)
REMARK    1  A    between atoms: C_1  and  C_2 
REMARK    2  A    between atoms: C_1  and  O_8 
ROOT
HETATM    1  C   UNL     1      62.344   9.118   3.762  1.00  0.00     0.088 C 
HETATM    2  N   UNL     1      62.137  11.150   1.635  1.00  0.00    -0.075 N 
HETATM    3  C   UNL     1      62.655   8.837   2.278  1.00  0.00     0.070 C 
HETATM    4  C   UNL     1      62.457  10.632   4.032  1.00  0.00     0.070 C 
HETATM    5  C   UNL     1      61.878   9.745   1.331  1.00  0.00     0.235 C 
HETATM    6  C   UNL     1      61.695  11.460   2.995  1.00  0.00     0.235 C 
HETATM    7  H   UNL     1      63.138  11.333   1.555  1.00  0.00     0.277 HD
HETATM    8  H   UNL     1      61.625  11.735   0.976  1.00  0.00     0.277 HD
ENDROOT
BRANCH   1   9
HETATM    9  C   UNL     1      63.203   8.298   4.741  1.00  0.00    -0.024 A 
HETATM   10  C   UNL     1      64.576   8.541   4.934  1.00  0.00     0.012 A 
HETATM   11  C   UNL     1      65.332   7.764   5.819  1.00  0.00     0.024 A 
HETATM   12  C   UNL     1      64.733   6.727   6.521  1.00  0.00     0.034 A 
HETATM   13  C   UNL     1      63.380   6.456   6.346  1.00  0.00     0.024 A 
HETATM   14 CL   UNL     1      65.671   5.771   7.600  1.00  0.00    -0.084 Cl
HETATM   15  C   UNL     1      62.624   7.232   5.458  1.00  0.00     0.012 A 
ENDBRANCH   1   9
BRANCH   1  16
HETATM   16  O   UNL     1      60.977   8.730   3.989  1.00  0.00    -0.385 OA
HETATM   17  H   UNL     1      60.952   7.825   4.338  1.00  0.00     0.211 HD
ENDBRANCH   1  16
TORSDOF 2
ENDMDL
MODEL 7
REMARK VINA RESULT:      -4.5      3.599      5.252
REMARK  2 active torsions:
REMARK  status: ('A' for Active; 'I' for Inactive)
REMARK    1  A    between atoms: C_1  and  C_2 
REMARK    2  A    between atoms: C_1  and  O_8 
ROOT
HETATM    1  C   UNL     1      63.262   7.877   4.265  1.00  0.00     0.088 C 
HETATM    2  N   UNL     1      60.658   9.049   3.528  1.00  0.00    -0.075 N 
HETATM    3  C   UNL     1      63.016   9.393   4.122  1.00  0.00     0.070 C 
HETATM    4  C   UNL     1      61.918   7.160   4.508  1.00  0.00     0.070 C 
HETATM    5  C   UNL     1      61.896   9.718   3.139  1.00  0.00     0.235 C 
HETATM    6  C   UNL     1      60.843   7.598   3.511  1.00  0.00     0.235 C 
HETATM    7  H   UNL     1      60.396   9.345   4.470  1.00  0.00     0.277 HD
HETATM    8  H   UNL     1      59.921   9.299   2.869  1.00  0.00     0.277 HD
ENDROOT
BRANCH   1   9
HETATM    9  C   UNL     1      64.304   7.517   5.338  1.00  0.00    -0.024 A 
HETATM   10  C   UNL     1      64.128   6.452   6.241  1.00  0.00     0.012 A 
HETATM   11  C   UNL     1      65.088   6.164   7.218  1.00  0.00     0.024 A 
HETATM   12  C   UNL     1      66.236   6.936   7.314  1.00  0.00     0.034 A 
HETATM   13  C   UNL     1      66.436   8.002   6.442  1.00  0.00     0.024 A 
HETATM   14 CL   UNL     1      67.407   6.581   8.523  1.00  0.00    -0.084 Cl
HETATM   15  C   UNL     1      65.474   8.291   5.467  1.00  0.00     0.012 A 
ENDBRANCH   1   9
BRANCH   1  16
HETATM   16  O   UNL     1      63.788   7.413   3.008  1.00  0.00    -0.385 OA
HETATM   17  H   UNL     1      63.702   8.113   2.344  1.00  0.00     0.211 HD
ENDBRANCH   1  16
TORSDOF 2
ENDMDL
MODEL 8
REMARK VINA RESULT:      -4.5      3.603      5.033
REMARK  2 active torsions:
REMARK  status: ('A' for Active; 'I' for Inactive)
REMARK    1  A    between atoms: C_1  and  C_2 
REMARK    2  A    between atoms: C_1  and  O_8 
ROOT
HETATM    1  C   UNL     1      61.412   8.420   3.061  1.00  0.00     0.088 C 
HETATM    2  N   UNL     1      59.253   7.397   1.332  1.00  0.00    -0.075 N 
HETATM    3  C   UNL     1      60.392   7.353   3.507  1.00  0.00     0.070 C 
HETATM    4  C   UNL     1      61.483   8.448   1.521  1.00  0.00     0.070 C 
HETATM    5  C   UNL     1      59.058   7.472   2.777  1.00  0.00     0.235 C 
HETATM    6  C   UNL     1      60.096   8.505   0.881  1.00  0.00     0.235 C 
HETATM    7  H   UNL     1      59.705   6.512   1.098  1.00  0.00     0.277 HD
HETATM    8  H   UNL     1      58.347   7.457   0.869  1.00  0.00     0.277 HD
ENDROOT
BRANCH   1   9
HETATM    9  C   UNL     1      62.804   8.249   3.695  1.00  0.00    -0.024 A 
HETATM   10  C   UNL     1      63.666   7.189   3.359  1.00  0.00     0.012 A 
HETATM   11  C   UNL     1      64.919   7.053   3.969  1.00  0.00     0.024 A 
HETATM   12  C   UNL     1      65.330   7.969   4.927  1.00  0.00     0.034 A 
HETATM   13  C   UNL     1      64.496   9.024   5.287  1.00  0.00     0.024 A 
HETATM   14 CL   UNL     1      66.866   7.790   5.678  1.00  0.00    -0.084 Cl
HETATM   15  C   UNL     1      63.242   9.158   4.679  1.00  0.00     0.012 A 
ENDBRANCH   1   9
BRANCH   1  16
HETATM   16  O   UNL     1      60.912   9.695   3.503  1.00  0.00    -0.385 OA
HETATM   17  H   UNL     1      60.610   9.623   4.421  1.00  0.00     0.211 HD
ENDBRANCH   1  16
TORSDOF 2
ENDMDL
MODEL 9
REMARK VINA RESULT:      -4.3     11.775     13.675
REMARK  2 active torsions:
REMARK  status: ('A' for Active; 'I' for Inactive)
REMARK    1  A    between atoms: C_1  and  C_2 
REMARK    2  A    between atoms: C_1  and  O_8 
ROOT
HETATM    1  C   UNL     1      55.217   2.225  13.918  1.00  0.00     0.088 C 
HETATM    2  N   UNL     1      52.313   2.089  13.423  1.00  0.00    -0.075 N 
HETATM    3  C   UNL     1      54.307   1.106  14.464  1.00  0.00     0.070 C 
HETATM    4  C   UNL     1      54.539   2.888  12.702  1.00  0.00     0.070 C 
HETATM    5  C   UNL     1      52.867   1.563  14.668  1.00  0.00     0.235 C 
HETATM    6  C   UNL     1      53.081   3.254  12.984  1.00  0.00     0.235 C 
HETATM    7  H   UNL     1      52.354   1.367  12.703  1.00  0.00     0.277 HD
HETATM    8  H   UNL     1      51.344   2.367  13.579  1.00  0.00     0.277 HD
ENDROOT
BRANCH   1   9
HETATM    9  C   UNL     1      56.646   1.758  13.592  1.00  0.00    -0.024 A 
HETATM   10  C   UNL     1      57.451   2.393  12.628  1.00  0.00     0.012 A 
HETATM   11  C   UNL     1      58.741   1.930  12.343  1.00  0.00     0.024 A 
HETATM   12  C   UNL     1      59.247   0.823  13.009  1.00  0.00     0.034 A 
HETATM   13  C   UNL     1      58.472   0.168  13.961  1.00  0.00     0.024 A 
HETATM   14 CL   UNL     1      60.829   0.255  12.646  1.00  0.00    -0.084 Cl
HETATM   15  C   UNL     1      57.181   0.629  14.245  1.00  0.00     0.012 A 
ENDBRANCH   1   9
BRANCH   1  16
HETATM   16  O   UNL     1      55.334   3.218  14.953  1.00  0.00    -0.385 OA
HETATM   17  H   UNL     1      56.272   3.393  15.128  1.00  0.00     0.211 HD
ENDBRANCH   1  16
TORSDOF 2
ENDMDL
