MODEL 1
REMARK VINA RESULT:      -4.8      0.000      0.000
REMARK  1 active torsions:
REMARK  status: ('A' for Active; 'I' for Inactive)
REMARK    1  A    between atoms: C_4  and  N_6 
ROOT
HETATM    1  C   UNL     1      62.596   9.486   4.044  1.00  0.00     0.109 A 
HETATM    2  C   UNL     1      62.983   8.808   5.242  1.00  0.00     0.105 C 
HETATM    3  N   UNL     1      63.268   8.218   6.202  1.00  0.00    -0.191 NA
HETATM    4  C   UNL     1      62.507   8.809   2.812  1.00  0.00     0.049 A 
HETATM    5  C   UNL     1      62.265  10.841   4.115  1.00  0.00     0.139 A 
HETATM    6  F   UNL     1      62.339  11.498   5.282  1.00  0.00    -0.204 F 
HETATM    7  C   UNL     1      61.801  10.896   1.759  1.00  0.00     0.005 A 
HETATM    8  C   UNL     1      62.151   9.546   1.671  1.00  0.00     0.031 A 
HETATM    9  C   UNL     1      61.858  11.547   2.986  1.00  0.00     0.044 A 
ENDROOT
BRANCH   4  10
HETATM   10  N   UNL     1      62.977   7.496   2.635  1.00  0.00    -0.398 N 
HETATM   11  H   UNL     1      63.530   7.073   3.329  1.00  0.00     0.156 HD
HETATM   12  H   UNL     1      62.753   7.000   1.814  1.00  0.00     0.156 HD
ENDBRANCH   4  10
TORSDOF 1
ENDMDL
MODEL 2
REMARK VINA RESULT:      -4.7      1.454      1.872
REMARK  1 active torsions:
REMARK  status: ('A' for Active; 'I' for Inactive)
REMARK    1  A    between atoms: C_4  and  N_6 
ROOT
HETATM    1  C   UNL     1      62.650  10.062   4.004  1.00  0.00     0.109 A 
HETATM    2  C   UNL     1      62.913  10.686   5.264  1.00  0.00     0.105 C 
HETATM    3  N   UNL     1      63.111  11.151   6.311  1.00  0.00    -0.191 NA
HETATM    4  C   UNL     1      62.954   8.706   3.778  1.00  0.00     0.049 A 
HETATM    5  C   UNL     1      62.042  10.814   2.996  1.00  0.00     0.139 A 
HETATM    6  F   UNL     1      61.741  12.106   3.199  1.00  0.00    -0.204 F 
HETATM    7  C   UNL     1      62.068   8.926   1.512  1.00  0.00     0.005 A 
HETATM    8  C   UNL     1      62.696   8.169   2.506  1.00  0.00     0.031 A 
HETATM    9  C   UNL     1      61.740  10.254   1.759  1.00  0.00     0.044 A 
ENDROOT
BRANCH   4  10
HETATM   10  N   UNL     1      63.707   7.938   4.682  1.00  0.00    -0.398 N 
HETATM   11  H   UNL     1      64.110   8.362   5.473  1.00  0.00     0.156 HD
HETATM   12  H   UNL     1      63.832   6.974   4.525  1.00  0.00     0.156 HD
ENDBRANCH   4  10
TORSDOF 1
ENDMDL
MODEL 3
REMARK VINA RESULT:      -4.7      2.052      2.806
REMARK  1 active torsions:
REMARK  status: ('A' for Active; 'I' for Inactive)
REMARK    1  A    between atoms: C_4  and  N_6 
ROOT
HETATM    1  C   UNL     1      63.188   9.302   4.586  1.00  0.00     0.109 A 
HETATM    2  C   UNL     1      63.927   8.407   5.422  1.00  0.00     0.105 C 
HETATM    3  N   UNL     1      64.556   7.719   6.116  1.00  0.00    -0.191 NA
HETATM    4  C   UNL     1      62.838  10.595   5.022  1.00  0.00     0.049 A 
HETATM    5  C   UNL     1      62.843   8.888   3.297  1.00  0.00     0.139 A 
HETATM    6  F   UNL     1      63.175   7.661   2.867  1.00  0.00    -0.204 F 
HETATM    7  C   UNL     1      61.765  10.989   2.863  1.00  0.00     0.005 A 
HETATM    8  C   UNL     1      62.084  11.407   4.158  1.00  0.00     0.031 A 
HETATM    9  C   UNL     1      62.146   9.724   2.431  1.00  0.00     0.044 A 
ENDROOT
BRANCH   4  10
HETATM   10  N   UNL     1      63.007  11.017   6.351  1.00  0.00    -0.398 N 
HETATM   11  H   UNL     1      63.334  10.386   7.031  1.00  0.00     0.156 HD
HETATM   12  H   UNL     1      62.798  11.946   6.603  1.00  0.00     0.156 HD
ENDBRANCH   4  10
TORSDOF 1
ENDMDL
MODEL 4
REMARK VINA RESULT:      -4.5      2.252      2.833
REMARK  1 active torsions:
REMARK  status: ('A' for Active; 'I' for Inactive)
REMARK    1  A    between atoms: C_4  and  N_6 
ROOT
HETATM    1  C   UNL     1      62.614   9.614   3.682  1.00  0.00     0.109 A 
HETATM    2  C   UNL     1      62.825  10.315   4.911  1.00  0.00     0.105 C 
HETATM    3  N   UNL     1      63.012  10.924   5.884  1.00  0.00    -0.191 NA
HETATM    4  C   UNL     1      62.071  10.257   2.553  1.00  0.00     0.049 A 
HETATM    5  C   UNL     1      62.996   8.272   3.600  1.00  0.00     0.139 A 
HETATM    6  F   UNL     1      63.521   7.649   4.665  1.00  0.00    -0.204 F 
HETATM    7  C   UNL     1      62.269   8.162   1.313  1.00  0.00     0.005 A 
HETATM    8  C   UNL     1      61.864   9.497   1.390  1.00  0.00     0.031 A 
HETATM    9  C   UNL     1      62.838   7.547   2.423  1.00  0.00     0.044 A 
ENDROOT
BRANCH   4  10
HETATM   10  N   UNL     1      61.518  11.548   2.610  1.00  0.00    -0.398 N 
HETATM   11  H   UNL     1      61.892  12.217   3.227  1.00  0.00     0.156 HD
HETATM   12  H   UNL     1      60.756  11.783   2.033  1.00  0.00     0.156 HD
ENDBRANCH   4  10
TORSDOF 1
ENDMDL
MODEL 5
REMARK VINA RESULT:      -4.5      2.545      3.731
REMARK  1 active torsions:
REMARK  status: ('A' for Active; 'I' for Inactive)
REMARK    1  A    between atoms: C_4  and  N_6 
ROOT
HETATM    1  C   UNL     1      62.451   9.465   2.746  1.00  0.00     0.109 A 
HETATM    2  C   UNL     1      62.228   8.915   1.445  1.00  0.00     0.105 C 
HETATM    3  N   UNL     1      61.999   8.485   0.389  1.00  0.00    -0.191 NA
HETATM    4  C   UNL     1      61.971  10.742   3.096  1.00  0.00     0.049 A 
HETATM    5  C   UNL     1      63.128   8.696   3.695  1.00  0.00     0.139 A 
HETATM    6  F   UNL     1      63.585   7.475   3.378  1.00  0.00    -0.204 F 
HETATM    7  C   UNL     1      62.915  10.443   5.329  1.00  0.00     0.005 A 
HETATM    8  C   UNL     1      62.255  11.231   4.382  1.00  0.00     0.031 A 
HETATM    9  C   UNL     1      63.353   9.169   4.984  1.00  0.00     0.044 A 
ENDROOT
BRANCH   4  10
HETATM   10  N   UNL     1      61.429  11.632   2.152  1.00  0.00    -0.398 N 
HETATM   11  H   UNL     1      61.003  11.284   1.336  1.00  0.00     0.156 HD
HETATM   12  H   UNL     1      61.475  12.603   2.308  1.00  0.00     0.156 HD
ENDBRANCH   4  10
TORSDOF 1
ENDMDL
MODEL 6
REMARK VINA RESULT:      -4.4      2.304      3.359
REMARK  1 active torsions:
REMARK  status: ('A' for Active; 'I' for Inactive)
REMARK    1  A    between atoms: C_4  and  N_6 
ROOT
HETATM    1  C   UNL     1      62.595   9.523   3.412  1.00  0.00     0.109 A 
HETATM    2  C   UNL     1      62.205  10.837   3.821  1.00  0.00     0.105 C 
HETATM    3  N   UNL     1      61.878  11.887   4.199  1.00  0.00    -0.191 NA
HETATM    4  C   UNL     1      63.351   8.686   4.254  1.00  0.00     0.049 A 
HETATM    5  C   UNL     1      62.178   9.056   2.163  1.00  0.00     0.139 A 
HETATM    6  F   UNL     1      61.451   9.841   1.353  1.00  0.00    -0.204 F 
HETATM    7  C   UNL     1      63.283   6.956   2.531  1.00  0.00     0.005 A 
HETATM    8  C   UNL     1      63.724   7.420   3.773  1.00  0.00     0.031 A 
HETATM    9  C   UNL     1      62.506   7.778   1.723  1.00  0.00     0.044 A 
ENDROOT
BRANCH   4  10
HETATM   10  N   UNL     1      63.939   9.143   5.446  1.00  0.00    -0.398 N 
HETATM   11  H   UNL     1      63.541   9.899   5.933  1.00  0.00     0.156 HD
HETATM   12  H   UNL     1      64.750   8.706   5.795  1.00  0.00     0.156 HD
ENDBRANCH   4  10
TORSDOF 1
ENDMDL
MODEL 7
REMARK VINA RESULT:      -4.3      1.547      3.074
REMARK  1 active torsions:
REMARK  status: ('A' for Active; 'I' for Inactive)
REMARK    1  A    between atoms: C_4  and  N_6 
ROOT
HETATM    1  C   UNL     1      62.390   9.584   2.792  1.00  0.00     0.109 A 
HETATM    2  C   UNL     1      62.148   9.088   1.472  1.00  0.00     0.105 C 
HETATM    3  N   UNL     1      61.998   8.666   0.399  1.00  0.00    -0.191 NA
HETATM    4  C   UNL     1      63.076   8.814   3.752  1.00  0.00     0.049 A 
HETATM    5  C   UNL     1      61.967  10.876   3.114  1.00  0.00     0.139 A 
HETATM    6  F   UNL     1      61.318  11.623   2.207  1.00  0.00    -0.204 F 
HETATM    7  C   UNL     1      62.841  10.655   5.340  1.00  0.00     0.005 A 
HETATM    8  C   UNL     1      63.250   9.354   5.037  1.00  0.00     0.031 A 
HETATM    9  C   UNL     1      62.197  11.420   4.373  1.00  0.00     0.044 A 
ENDROOT
BRANCH   4  10
HETATM   10  N   UNL     1      63.386   7.458   3.553  1.00  0.00    -0.398 N 
HETATM   11  H   UNL     1      63.358   7.074   2.648  1.00  0.00     0.156 HD
HETATM   12  H   UNL     1      63.629   6.891   4.321  1.00  0.00     0.156 HD
ENDBRANCH   4  10
TORSDOF 1
ENDMDL
MODEL 8
REMARK VINA RESULT:      -4.2      1.458      1.974
REMARK  1 active torsions:
REMARK  status: ('A' for Active; 'I' for Inactive)
REMARK    1  A    between atoms: C_4  and  N_6 
ROOT
HETATM    1  C   UNL     1      62.493   8.950   3.152  1.00  0.00     0.109 A 
HETATM    2  C   UNL     1      62.818   7.561   3.258  1.00  0.00     0.105 C 
HETATM    3  N   UNL     1      63.044   6.422   3.313  1.00  0.00    -0.191 NA
HETATM    4  C   UNL     1      62.116   9.525   1.923  1.00  0.00     0.049 A 
HETATM    5  C   UNL     1      62.516   9.736   4.307  1.00  0.00     0.139 A 
HETATM    6  F   UNL     1      62.868   9.201   5.486  1.00  0.00    -0.204 F 
HETATM    7  C   UNL     1      61.846  11.673   3.055  1.00  0.00     0.005 A 
HETATM    8  C   UNL     1      61.840  10.902   1.889  1.00  0.00     0.031 A 
HETATM    9  C   UNL     1      62.185  11.087   4.269  1.00  0.00     0.044 A 
ENDROOT
BRANCH   4  10
HETATM   10  N   UNL     1      62.226   8.839   0.701  1.00  0.00    -0.398 N 
HETATM   11  H   UNL     1      61.719   8.009   0.555  1.00  0.00     0.156 HD
HETATM   12  H   UNL     1      62.811   9.189  -0.009  1.00  0.00     0.156 HD
ENDBRANCH   4  10
TORSDOF 1
ENDMDL
MODEL 9
REMARK VINA RESULT:      -4.0      3.987      5.576
REMARK  1 active torsions:
REMARK  status: ('A' for Active; 'I' for Inactive)
REMARK    1  A    between atoms: C_4  and  N_6 
ROOT
HETATM    1  C   UNL     1      65.546   7.785   5.089  1.00  0.00     0.109 A 
HETATM    2  C   UNL     1      64.566   8.815   5.243  1.00  0.00     0.105 C 
HETATM    3  N   UNL     1      63.768   9.643   5.417  1.00  0.00    -0.191 NA
HETATM    4  C   UNL     1      66.591   7.621   6.019  1.00  0.00     0.049 A 
HETATM    5  C   UNL     1      65.433   6.905   4.010  1.00  0.00     0.139 A 
HETATM    6  F   UNL     1      64.439   7.046   3.120  1.00  0.00    -0.204 F 
HETATM    7  C   UNL     1      67.399   5.719   4.715  1.00  0.00     0.005 A 
HETATM    8  C   UNL     1      67.535   6.607   5.786  1.00  0.00     0.031 A 
HETATM    9  C   UNL     1      66.343   5.869   3.823  1.00  0.00     0.044 A 
ENDROOT
BRANCH   4  10
HETATM   10  N   UNL     1      66.860   8.559   7.030  1.00  0.00    -0.398 N 
HETATM   11  H   UNL     1      66.541   8.401   7.947  1.00  0.00     0.156 HD
HETATM   12  H   UNL     1      67.366   9.378   6.820  1.00  0.00     0.156 HD
ENDBRANCH   4  10
TORSDOF 1
ENDMDL
