MODEL 1
REMARK VINA RESULT:      -5.2      0.000      0.000
REMARK  2 active torsions:
REMARK  status: ('A' for Active; 'I' for Inactive)
REMARK    1  A    between atoms: C_4  and  O_10 
REMARK    2  A    between atoms: C_6  and  O_11 
ROOT
HETATM    1  C   UNL     1      63.322   7.840   3.132  1.00  0.00    -0.019 A 
HETATM    2  C   UNL     1      63.195   8.986   3.931  1.00  0.00     0.049 A 
HETATM    3  C   UNL     1      64.336   6.919   3.442  1.00  0.00    -0.045 A 
HETATM    4  C   UNL     1      64.082   9.248   4.983  1.00  0.00     0.102 A 
HETATM    5  C   UNL     1      65.247   7.192   4.476  1.00  0.00     0.047 A 
HETATM    6  C   UNL     1      65.135   8.354   5.245  1.00  0.00     0.102 A 
HETATM    7  N   UNL     1      62.754   6.481   1.102  1.00  0.00    -0.067 N 
HETATM    8  C   UNL     1      62.328   7.564   2.007  1.00  0.00     0.215 C 
HETATM    9  C   UNL     1      63.208   5.318   1.861  1.00  0.00     0.237 C 
HETATM   10  C   UNL     1      64.485   5.654   2.633  1.00  0.00     0.066 C 
HETATM   11  C   UNL     1      62.062   8.793   1.128  1.00  0.00     0.045 C 
HETATM   12  H   UNL     1      63.518   6.816   0.515  1.00  0.00     0.277 HD
HETATM   13  H   UNL     1      61.958   6.204   0.527  1.00  0.00     0.277 HD
ENDROOT
BRANCH   4  14
HETATM   14  O   UNL     1      64.006  10.374   5.769  1.00  0.00    -0.353 OA
HETATM   15  C   UNL     1      62.835  11.170   5.619  1.00  0.00     0.210 C 
ENDBRANCH   4  14
BRANCH   6  16
HETATM   16  O   UNL     1      65.980   8.690   6.274  1.00  0.00    -0.353 OA
HETATM   17  C   UNL     1      66.653   7.629   6.939  1.00  0.00     0.210 C 
ENDBRANCH   6  16
TORSDOF 2
ENDMDL
MODEL 2
REMARK VINA RESULT:      -5.1      1.824      3.518
REMARK  2 active torsions:
REMARK  status: ('A' for Active; 'I' for Inactive)
REMARK    1  A    between atoms: C_4  and  O_10 
REMARK    2  A    between atoms: C_6  and  O_11 
ROOT
HETATM    1  C   UNL     1      62.844   8.569   2.990  1.00  0.00    -0.019 A 
HETATM    2  C   UNL     1      63.586   7.383   3.099  1.00  0.00     0.049 A 
HETATM    3  C   UNL     1      62.922   9.502   4.036  1.00  0.00    -0.045 A 
HETATM    4  C   UNL     1      64.348   7.096   4.238  1.00  0.00     0.102 A 
HETATM    5  C   UNL     1      63.660   9.206   5.195  1.00  0.00     0.047 A 
HETATM    6  C   UNL     1      64.368   8.006   5.310  1.00  0.00     0.102 A 
HETATM    7  N   UNL     1      61.115  10.005   1.880  1.00  0.00    -0.067 N 
HETATM    8  C   UNL     1      62.041   8.869   1.727  1.00  0.00     0.215 C 
HETATM    9  C   UNL     1      61.786  11.144   2.503  1.00  0.00     0.237 C 
HETATM   10  C   UNL     1      62.171  10.808   3.945  1.00  0.00     0.066 C 
HETATM   11  C   UNL     1      61.201   7.676   1.254  1.00  0.00     0.045 C 
HETATM   12  H   UNL     1      60.329   9.720   2.464  1.00  0.00     0.277 HD
HETATM   13  H   UNL     1      60.788  10.286   0.955  1.00  0.00     0.277 HD
ENDROOT
BRANCH   4  14
HETATM   14  O   UNL     1      65.065   5.932   4.392  1.00  0.00    -0.353 OA
HETATM   15  C   UNL     1      66.218   5.790   3.570  1.00  0.00     0.210 C 
ENDBRANCH   4  14
BRANCH   6  16
HETATM   16  O   UNL     1      65.115   7.647   6.404  1.00  0.00    -0.353 OA
HETATM   17  C   UNL     1      66.431   8.174   6.499  1.00  0.00     0.210 C 
ENDBRANCH   6  16
TORSDOF 2
ENDMDL
MODEL 3
REMARK VINA RESULT:      -4.9      1.707      3.091
REMARK  2 active torsions:
REMARK  status: ('A' for Active; 'I' for Inactive)
REMARK    1  A    between atoms: C_4  and  O_10 
REMARK    2  A    between atoms: C_6  and  O_11 
ROOT
HETATM    1  C   UNL     1      62.894   8.798   4.015  1.00  0.00    -0.019 A 
HETATM    2  C   UNL     1      63.601   8.665   5.219  1.00  0.00     0.049 A 
HETATM    3  C   UNL     1      63.138   7.868   2.991  1.00  0.00    -0.045 A 
HETATM    4  C   UNL     1      64.569   7.669   5.394  1.00  0.00     0.102 A 
HETATM    5  C   UNL     1      64.129   6.885   3.151  1.00  0.00     0.047 A 
HETATM    6  C   UNL     1      64.855   6.782   4.341  1.00  0.00     0.102 A 
HETATM    7  N   UNL     1      61.378  10.057   2.464  1.00  0.00    -0.067 N 
HETATM    8  C   UNL     1      61.826   9.878   3.857  1.00  0.00     0.215 C 
HETATM    9  C   UNL     1      61.088   8.768   1.840  1.00  0.00     0.237 C 
HETATM   10  C   UNL     1      62.372   7.950   1.693  1.00  0.00     0.066 C 
HETATM   11  C   UNL     1      62.289  11.255   4.351  1.00  0.00     0.045 C 
HETATM   12  H   UNL     1      62.111  10.528   1.934  1.00  0.00     0.277 HD
HETATM   13  H   UNL     1      60.525  10.617   2.466  1.00  0.00     0.277 HD
ENDROOT
BRANCH   4  14
HETATM   14  O   UNL     1      65.302   7.525   6.549  1.00  0.00    -0.353 OA
HETATM   15  C   UNL     1      66.514   8.268   6.622  1.00  0.00     0.210 C 
ENDBRANCH   4  14
BRANCH   6  16
HETATM   16  O   UNL     1      65.834   5.848   4.576  1.00  0.00    -0.353 OA
HETATM   17  C   UNL     1      66.924   5.801   3.666  1.00  0.00     0.210 C 
ENDBRANCH   6  16
TORSDOF 2
ENDMDL
MODEL 4
REMARK VINA RESULT:      -4.7      0.734      3.181
REMARK  2 active torsions:
REMARK  status: ('A' for Active; 'I' for Inactive)
REMARK    1  A    between atoms: C_4  and  O_10 
REMARK    2  A    between atoms: C_6  and  O_11 
ROOT
HETATM    1  C   UNL     1      64.345   6.889   3.420  1.00  0.00    -0.019 A 
HETATM    2  C   UNL     1      65.189   7.277   4.472  1.00  0.00     0.049 A 
HETATM    3  C   UNL     1      63.270   7.728   3.084  1.00  0.00    -0.045 A 
HETATM    4  C   UNL     1      64.949   8.439   5.214  1.00  0.00     0.102 A 
HETATM    5  C   UNL     1      63.007   8.880   3.844  1.00  0.00     0.047 A 
HETATM    6  C   UNL     1      63.832   9.239   4.914  1.00  0.00     0.102 A 
HETATM    7  N   UNL     1      63.529   5.221   1.735  1.00  0.00    -0.067 N 
HETATM    8  C   UNL     1      64.642   5.630   2.611  1.00  0.00     0.215 C 
HETATM    9  C   UNL     1      63.010   6.363   0.985  1.00  0.00     0.237 C 
HETATM   10  C   UNL     1      62.360   7.370   1.935  1.00  0.00     0.066 C 
HETATM   11  C   UNL     1      64.979   4.418   3.490  1.00  0.00     0.045 C 
HETATM   12  H   UNL     1      62.780   4.829   2.307  1.00  0.00     0.277 HD
HETATM   13  H   UNL     1      63.873   4.525   1.073  1.00  0.00     0.277 HD
ENDROOT
BRANCH   4  14
HETATM   14  O   UNL     1      65.736   8.836   6.270  1.00  0.00    -0.353 OA
HETATM   15  C   UNL     1      66.780   7.944   6.647  1.00  0.00     0.210 C 
ENDBRANCH   4  14
BRANCH   6  16
HETATM   16  O   UNL     1      63.645  10.350   5.700  1.00  0.00    -0.353 OA
HETATM   17  C   UNL     1      62.633  11.266   5.307  1.00  0.00     0.210 C 
ENDBRANCH   6  16
TORSDOF 2
ENDMDL
MODEL 5
REMARK VINA RESULT:      -4.7      3.153      3.730
REMARK  2 active torsions:
REMARK  status: ('A' for Active; 'I' for Inactive)
REMARK    1  A    between atoms: C_4  and  O_10 
REMARK    2  A    between atoms: C_6  and  O_11 
ROOT
HETATM    1  C   UNL     1      60.782   7.490   3.652  1.00  0.00    -0.019 A 
HETATM    2  C   UNL     1      60.617   6.659   4.770  1.00  0.00     0.049 A 
HETATM    3  C   UNL     1      61.930   8.296   3.584  1.00  0.00    -0.045 A 
HETATM    4  C   UNL     1      61.536   6.660   5.827  1.00  0.00     0.102 A 
HETATM    5  C   UNL     1      62.840   8.324   4.654  1.00  0.00     0.047 A 
HETATM    6  C   UNL     1      62.649   7.519   5.781  1.00  0.00     0.102 A 
HETATM    7  N   UNL     1      59.943   8.564   1.547  1.00  0.00    -0.067 N 
HETATM    8  C   UNL     1      59.779   7.453   2.502  1.00  0.00     0.215 C 
HETATM    9  C   UNL     1      61.347   8.726   1.173  1.00  0.00     0.237 C 
HETATM   10  C   UNL     1      62.168   9.177   2.382  1.00  0.00     0.066 C 
HETATM   11  C   UNL     1      58.321   7.493   2.978  1.00  0.00     0.045 C 
HETATM   12  H   UNL     1      59.610   9.427   1.976  1.00  0.00     0.277 HD
HETATM   13  H   UNL     1      59.404   8.353   0.707  1.00  0.00     0.277 HD
ENDROOT
BRANCH   4  14
HETATM   14  O   UNL     1      61.392   5.881   6.951  1.00  0.00    -0.353 OA
HETATM   15  C   UNL     1      60.063   5.703   7.428  1.00  0.00     0.210 C 
ENDBRANCH   4  14
BRANCH   6  16
HETATM   16  O   UNL     1      63.493   7.485   6.864  1.00  0.00    -0.353 OA
HETATM   17  C   UNL     1      64.757   6.861   6.687  1.00  0.00     0.210 C 
ENDBRANCH   6  16
TORSDOF 2
ENDMDL
MODEL 6
REMARK VINA RESULT:      -4.5      2.237      2.931
REMARK  2 active torsions:
REMARK  status: ('A' for Active; 'I' for Inactive)
REMARK    1  A    between atoms: C_4  and  O_10 
REMARK    2  A    between atoms: C_6  and  O_11 
ROOT
HETATM    1  C   UNL     1      62.257   8.303   4.025  1.00  0.00    -0.019 A 
HETATM    2  C   UNL     1      63.522   8.814   4.354  1.00  0.00     0.049 A 
HETATM    3  C   UNL     1      61.752   7.234   4.784  1.00  0.00    -0.045 A 
HETATM    4  C   UNL     1      64.298   8.251   5.374  1.00  0.00     0.102 A 
HETATM    5  C   UNL     1      62.539   6.646   5.788  1.00  0.00     0.047 A 
HETATM    6  C   UNL     1      63.813   7.139   6.085  1.00  0.00     0.102 A 
HETATM    7  N   UNL     1      60.256   8.140   2.523  1.00  0.00    -0.067 N 
HETATM    8  C   UNL     1      61.421   8.950   2.925  1.00  0.00     0.215 C 
HETATM    9  C   UNL     1      59.524   7.663   3.695  1.00  0.00     0.237 C 
HETATM   10  C   UNL     1      60.381   6.677   4.491  1.00  0.00     0.066 C 
HETATM   11  C   UNL     1      62.224   9.231   1.648  1.00  0.00     0.045 C 
HETATM   12  H   UNL     1      60.578   7.338   1.981  1.00  0.00     0.277 HD
HETATM   13  H   UNL     1      59.632   8.721   1.963  1.00  0.00     0.277 HD
ENDROOT
BRANCH   4  14
HETATM   14  O   UNL     1      65.553   8.707   5.705  1.00  0.00    -0.353 OA
HETATM   15  C   UNL     1      66.646   8.069   5.056  1.00  0.00     0.210 C 
ENDBRANCH   4  14
BRANCH   6  16
HETATM   16  O   UNL     1      64.640   6.624   7.053  1.00  0.00    -0.353 OA
HETATM   17  C   UNL     1      65.033   5.265   6.921  1.00  0.00     0.210 C 
ENDBRANCH   6  16
TORSDOF 2
ENDMDL
MODEL 7
REMARK VINA RESULT:      -4.5      2.138      4.122
REMARK  2 active torsions:
REMARK  status: ('A' for Active; 'I' for Inactive)
REMARK    1  A    between atoms: C_4  and  O_10 
REMARK    2  A    between atoms: C_6  and  O_11 
ROOT
HETATM    1  C   UNL     1      65.120   7.603   4.691  1.00  0.00    -0.019 A 
HETATM    2  C   UNL     1      64.379   8.753   5.001  1.00  0.00     0.049 A 
HETATM    3  C   UNL     1      64.717   6.827   3.592  1.00  0.00    -0.045 A 
HETATM    4  C   UNL     1      63.233   9.105   4.278  1.00  0.00     0.102 A 
HETATM    5  C   UNL     1      63.551   7.158   2.881  1.00  0.00     0.047 A 
HETATM    6  C   UNL     1      62.799   8.286   3.220  1.00  0.00     0.102 A 
HETATM    7  N   UNL     1      66.878   5.894   5.213  1.00  0.00    -0.067 N 
HETATM    8  C   UNL     1      66.379   7.255   5.480  1.00  0.00     0.215 C 
HETATM    9  C   UNL     1      66.923   5.628   3.777  1.00  0.00     0.237 C 
HETATM   10  C   UNL     1      65.507   5.603   3.198  1.00  0.00     0.066 C 
HETATM   11  C   UNL     1      66.184   7.363   6.998  1.00  0.00     0.045 C 
HETATM   12  H   UNL     1      66.260   5.217   5.659  1.00  0.00     0.277 HD
HETATM   13  H   UNL     1      67.824   5.814   5.588  1.00  0.00     0.277 HD
ENDROOT
BRANCH   4  14
HETATM   14  O   UNL     1      62.466  10.208   4.571  1.00  0.00    -0.353 OA
HETATM   15  C   UNL     1      62.939  11.044   5.621  1.00  0.00     0.210 C 
ENDBRANCH   4  14
BRANCH   6  16
HETATM   16  O   UNL     1      61.653   8.679   2.573  1.00  0.00    -0.353 OA
HETATM   17  C   UNL     1      61.780   9.117   1.227  1.00  0.00     0.210 C 
ENDBRANCH   6  16
TORSDOF 2
ENDMDL
MODEL 8
REMARK VINA RESULT:      -4.4      2.381      3.676
REMARK  2 active torsions:
REMARK  status: ('A' for Active; 'I' for Inactive)
REMARK    1  A    between atoms: C_4  and  O_10 
REMARK    2  A    between atoms: C_6  and  O_11 
ROOT
HETATM    1  C   UNL     1      63.044   6.892   5.462  1.00  0.00    -0.019 A 
HETATM    2  C   UNL     1      63.885   6.409   6.475  1.00  0.00     0.049 A 
HETATM    3  C   UNL     1      63.550   7.860   4.580  1.00  0.00    -0.045 A 
HETATM    4  C   UNL     1      65.182   6.907   6.651  1.00  0.00     0.102 A 
HETATM    5  C   UNL     1      64.840   8.385   4.770  1.00  0.00     0.047 A 
HETATM    6  C   UNL     1      65.658   7.924   5.805  1.00  0.00     0.102 A 
HETATM    7  N   UNL     1      60.802   7.107   4.359  1.00  0.00    -0.067 N 
HETATM    8  C   UNL     1      61.643   6.315   5.276  1.00  0.00     0.215 C 
HETATM    9  C   UNL     1      61.532   7.437   3.137  1.00  0.00     0.237 C 
HETATM   10  C   UNL     1      62.694   8.380   3.451  1.00  0.00     0.066 C 
HETATM   11  C   UNL     1      60.865   6.193   6.593  1.00  0.00     0.045 C 
HETATM   12  H   UNL     1      60.521   7.970   4.824  1.00  0.00     0.277 HD
HETATM   13  H   UNL     1      59.982   6.554   4.110  1.00  0.00     0.277 HD
ENDROOT
BRANCH   4  14
HETATM   14  O   UNL     1      66.024   6.478   7.650  1.00  0.00    -0.353 OA
HETATM   15  C   UNL     1      66.395   5.104   7.616  1.00  0.00     0.210 C 
ENDBRANCH   4  14
BRANCH   6  16
HETATM   16  O   UNL     1      66.929   8.381   6.053  1.00  0.00    -0.353 OA
HETATM   17  C   UNL     1      67.968   7.919   5.202  1.00  0.00     0.210 C 
ENDBRANCH   6  16
TORSDOF 2
ENDMDL
MODEL 9
REMARK VINA RESULT:      -4.1      2.976      4.967
REMARK  2 active torsions:
REMARK  status: ('A' for Active; 'I' for Inactive)
REMARK    1  A    between atoms: C_4  and  O_10 
REMARK    2  A    between atoms: C_6  and  O_11 
ROOT
HETATM    1  C   UNL     1      64.484   6.594   6.210  1.00  0.00    -0.019 A 
HETATM    2  C   UNL     1      63.153   6.459   5.786  1.00  0.00     0.049 A 
HETATM    3  C   UNL     1      65.187   7.752   5.840  1.00  0.00    -0.045 A 
HETATM    4  C   UNL     1      62.543   7.418   4.969  1.00  0.00     0.102 A 
HETATM    5  C   UNL     1      64.590   8.703   4.995  1.00  0.00     0.047 A 
HETATM    6  C   UNL     1      63.276   8.542   4.548  1.00  0.00     0.102 A 
HETATM    7  N   UNL     1      66.580   5.692   7.248  1.00  0.00    -0.067 N 
HETATM    8  C   UNL     1      65.119   5.547   7.120  1.00  0.00     0.215 C 
HETATM    9  C   UNL     1      66.944   7.082   7.513  1.00  0.00     0.237 C 
HETATM   10  C   UNL     1      66.608   7.958   6.305  1.00  0.00     0.066 C 
HETATM   11  C   UNL     1      64.858   4.109   6.652  1.00  0.00     0.045 C 
HETATM   12  H   UNL     1      67.024   5.390   6.381  1.00  0.00     0.277 HD
HETATM   13  H   UNL     1      66.898   5.118   8.030  1.00  0.00     0.277 HD
ENDROOT
BRANCH   4  14
HETATM   14  O   UNL     1      61.251   7.306   4.511  1.00  0.00    -0.353 OA
HETATM   15  C   UNL     1      60.998   6.247   3.593  1.00  0.00     0.210 C 
ENDBRANCH   4  14
BRANCH   6  16
HETATM   16  O   UNL     1      62.620   9.427   3.727  1.00  0.00    -0.353 OA
HETATM   17  C   UNL     1      62.233  10.674   4.287  1.00  0.00     0.210 C 
ENDBRANCH   6  16
TORSDOF 2
ENDMDL
