MODEL 1
REMARK VINA RESULT:      -5.1      0.000      0.000
REMARK  0 active torsions:
REMARK  status: ('A' for Active; 'I' for Inactive)
ROOT
HETATM    1  C   UNL     1      62.917   8.734   3.308  1.00  0.00     0.040 A 
HETATM    2  N   UNL     1      63.094   7.508   2.680  1.00  0.00    -0.389 N 
HETATM    3  C   UNL     1      62.160   9.748   2.682  1.00  0.00    -0.031 A 
HETATM    4  C   UNL     1      63.421   8.961   4.605  1.00  0.00    -0.035 A 
HETATM    5  C   UNL     1      62.387  11.163   4.632  1.00  0.00     0.001 A 
HETATM    6  C   UNL     1      62.332   7.183   1.494  1.00  0.00     0.120 C 
HETATM    7  C   UNL     1      61.894  10.951   3.349  1.00  0.00     0.009 A 
HETATM    8  C   UNL     1      63.151  10.178   5.252  1.00  0.00     0.009 A 
HETATM    9  C   UNL     1      61.603   9.543   1.292  1.00  0.00     0.042 C 
HETATM   10  C   UNL     1      64.232   7.916   5.322  1.00  0.00     0.050 C 
HETATM   11  C   UNL     1      62.289   8.388   0.570  1.00  0.00     0.024 C 
HETATM   12  H   UNL     1      63.739   6.858   3.042  1.00  0.00     0.159 HD
ENDROOT
TORSDOF 0
ENDMDL
MODEL 2
REMARK VINA RESULT:      -5.0      0.955      3.194
REMARK  0 active torsions:
REMARK  status: ('A' for Active; 'I' for Inactive)
ROOT
HETATM    1  C   UNL     1      62.663   8.807   2.999  1.00  0.00     0.040 A 
HETATM    2  N   UNL     1      63.163   7.512   2.961  1.00  0.00    -0.389 N 
HETATM    3  C   UNL     1      62.657   9.528   4.213  1.00  0.00    -0.031 A 
HETATM    4  C   UNL     1      62.227   9.448   1.822  1.00  0.00    -0.035 A 
HETATM    5  C   UNL     1      61.827  11.496   3.074  1.00  0.00     0.001 A 
HETATM    6  C   UNL     1      63.876   6.975   4.100  1.00  0.00     0.120 C 
HETATM    7  C   UNL     1      62.247  10.868   4.241  1.00  0.00     0.009 A 
HETATM    8  C   UNL     1      61.810  10.789   1.874  1.00  0.00     0.009 A 
HETATM    9  C   UNL     1      63.118   8.877   5.496  1.00  0.00     0.042 C 
HETATM   10  C   UNL     1      62.214   8.729   0.500  1.00  0.00     0.050 C 
HETATM   11  C   UNL     1      63.152   7.357   5.380  1.00  0.00     0.024 C 
HETATM   12  H   UNL     1      63.032   6.958   2.158  1.00  0.00     0.159 HD
ENDROOT
TORSDOF 0
ENDMDL
MODEL 3
REMARK VINA RESULT:      -4.9      1.360      3.093
REMARK  0 active torsions:
REMARK  status: ('A' for Active; 'I' for Inactive)
ROOT
HETATM    1  C   UNL     1      63.197   9.171   4.399  1.00  0.00     0.040 A 
HETATM    2  N   UNL     1      63.810   8.621   5.517  1.00  0.00    -0.389 N 
HETATM    3  C   UNL     1      63.062   8.409   3.218  1.00  0.00    -0.031 A 
HETATM    4  C   UNL     1      62.635  10.463   4.445  1.00  0.00    -0.035 A 
HETATM    5  C   UNL     1      61.800  10.191   2.176  1.00  0.00     0.001 A 
HETATM    6  C   UNL     1      64.114   7.207   5.557  1.00  0.00     0.120 C 
HETATM    7  C   UNL     1      62.359   8.920   2.119  1.00  0.00     0.009 A 
HETATM    8  C   UNL     1      61.943  10.960   3.328  1.00  0.00     0.009 A 
HETATM    9  C   UNL     1      63.650   7.020   3.129  1.00  0.00     0.042 C 
HETATM   10  C   UNL     1      62.746  11.320   5.677  1.00  0.00     0.050 C 
HETATM   11  C   UNL     1      64.688   6.772   4.219  1.00  0.00     0.024 C 
HETATM   12  H   UNL     1      64.038   9.194   6.285  1.00  0.00     0.159 HD
ENDROOT
TORSDOF 0
ENDMDL
MODEL 4
REMARK VINA RESULT:      -4.5      1.124      3.414
REMARK  0 active torsions:
REMARK  status: ('A' for Active; 'I' for Inactive)
ROOT
HETATM    1  C   UNL     1      62.893   8.629   3.211  1.00  0.00     0.040 A 
HETATM    2  N   UNL     1      63.408   8.874   4.478  1.00  0.00    -0.389 N 
HETATM    3  C   UNL     1      62.230   9.656   2.505  1.00  0.00    -0.031 A 
HETATM    4  C   UNL     1      63.088   7.383   2.582  1.00  0.00    -0.035 A 
HETATM    5  C   UNL     1      61.998   8.217   0.572  1.00  0.00     0.001 A 
HETATM    6  C   UNL     1      63.465  10.227   4.988  1.00  0.00     0.120 C 
HETATM    7  C   UNL     1      61.794   9.446   1.190  1.00  0.00     0.009 A 
HETATM    8  C   UNL     1      62.634   7.191   1.266  1.00  0.00     0.009 A 
HETATM    9  C   UNL     1      62.002  11.005   3.146  1.00  0.00     0.042 C 
HETATM   10  C   UNL     1      63.790   6.253   3.285  1.00  0.00     0.050 C 
HETATM   11  C   UNL     1      62.169  10.950   4.660  1.00  0.00     0.024 C 
HETATM   12  H   UNL     1      63.735   8.127   5.029  1.00  0.00     0.159 HD
ENDROOT
TORSDOF 0
ENDMDL
MODEL 5
REMARK VINA RESULT:      -4.5      2.287      4.711
REMARK  0 active torsions:
REMARK  status: ('A' for Active; 'I' for Inactive)
ROOT
HETATM    1  C   UNL     1      64.821   8.314   4.939  1.00  0.00     0.040 A 
HETATM    2  N   UNL     1      65.534   8.803   6.026  1.00  0.00    -0.389 N 
HETATM    3  C   UNL     1      65.282   7.176   4.243  1.00  0.00    -0.031 A 
HETATM    4  C   UNL     1      63.594   8.895   4.560  1.00  0.00    -0.035 A 
HETATM    5  C   UNL     1      63.305   7.191   2.847  1.00  0.00     0.001 A 
HETATM    6  C   UNL     1      66.622   8.031   6.587  1.00  0.00     0.120 C 
HETATM    7  C   UNL     1      64.519   6.618   3.209  1.00  0.00     0.009 A 
HETATM    8  C   UNL     1      62.849   8.325   3.514  1.00  0.00     0.009 A 
HETATM    9  C   UNL     1      66.593   6.524   4.619  1.00  0.00     0.042 C 
HETATM   10  C   UNL     1      63.052  10.107   5.268  1.00  0.00     0.050 C 
HETATM   11  C   UNL     1      67.464   7.448   5.464  1.00  0.00     0.024 C 
HETATM   12  H   UNL     1      65.299   9.675   6.417  1.00  0.00     0.159 HD
ENDROOT
TORSDOF 0
ENDMDL
MODEL 6
REMARK VINA RESULT:      -4.4      1.179      2.593
REMARK  0 active torsions:
REMARK  status: ('A' for Active; 'I' for Inactive)
ROOT
HETATM    1  C   UNL     1      63.028   8.213   2.834  1.00  0.00     0.040 A 
HETATM    2  N   UNL     1      62.403   8.254   1.594  1.00  0.00    -0.389 N 
HETATM    3  C   UNL     1      62.834   9.261   3.760  1.00  0.00    -0.031 A 
HETATM    4  C   UNL     1      63.798   7.097   3.218  1.00  0.00    -0.035 A 
HETATM    5  C   UNL     1      64.131   8.072   5.422  1.00  0.00     0.001 A 
HETATM    6  C   UNL     1      61.387   9.248   1.326  1.00  0.00     0.120 C 
HETATM    7  C   UNL     1      63.379   9.181   5.048  1.00  0.00     0.009 A 
HETATM    8  C   UNL     1      64.344   7.041   4.512  1.00  0.00     0.009 A 
HETATM    9  C   UNL     1      62.014  10.474   3.386  1.00  0.00     0.042 C 
HETATM   10  C   UNL     1      64.035   5.949   2.275  1.00  0.00     0.050 C 
HETATM   11  C   UNL     1      61.831  10.592   1.877  1.00  0.00     0.024 C 
HETATM   12  H   UNL     1      62.652   7.606   0.896  1.00  0.00     0.159 HD
ENDROOT
TORSDOF 0
ENDMDL
MODEL 7
REMARK VINA RESULT:      -4.4      1.275      2.684
REMARK  0 active torsions:
REMARK  status: ('A' for Active; 'I' for Inactive)
ROOT
HETATM    1  C   UNL     1      62.774   9.175   3.471  1.00  0.00     0.040 A 
HETATM    2  N   UNL     1      62.015  10.167   2.864  1.00  0.00    -0.389 N 
HETATM    3  C   UNL     1      63.061   7.979   2.779  1.00  0.00    -0.031 A 
HETATM    4  C   UNL     1      63.331   9.374   4.751  1.00  0.00    -0.035 A 
HETATM    5  C   UNL     1      64.460   7.223   4.604  1.00  0.00     0.001 A 
HETATM    6  C   UNL     1      61.701  10.079   1.454  1.00  0.00     0.120 C 
HETATM    7  C   UNL     1      63.907   7.016   3.345  1.00  0.00     0.009 A 
HETATM    8  C   UNL     1      64.169   8.391   5.304  1.00  0.00     0.009 A 
HETATM    9  C   UNL     1      62.483   7.728   1.405  1.00  0.00     0.042 C 
HETATM   10  C   UNL     1      63.062  10.630   5.534  1.00  0.00     0.050 C 
HETATM   11  C   UNL     1      61.308   8.654   1.107  1.00  0.00     0.024 C 
HETATM   12  H   UNL     1      61.690  10.931   3.392  1.00  0.00     0.159 HD
ENDROOT
TORSDOF 0
ENDMDL
MODEL 8
REMARK VINA RESULT:      -4.3      1.534      2.825
REMARK  0 active torsions:
REMARK  status: ('A' for Active; 'I' for Inactive)
ROOT
HETATM    1  C   UNL     1      61.541   9.255   2.703  1.00  0.00     0.040 A 
HETATM    2  N   UNL     1      60.973   9.053   1.452  1.00  0.00    -0.389 N 
HETATM    3  C   UNL     1      61.787   8.157   3.556  1.00  0.00    -0.031 A 
HETATM    4  C   UNL     1      61.949  10.541   3.112  1.00  0.00    -0.035 A 
HETATM    5  C   UNL     1      62.856   9.610   5.169  1.00  0.00     0.001 A 
HETATM    6  C   UNL     1      60.833   7.712   0.927  1.00  0.00     0.120 C 
HETATM    7  C   UNL     1      62.449   8.340   4.777  1.00  0.00     0.009 A 
HETATM    8  C   UNL     1      62.602  10.704   4.345  1.00  0.00     0.009 A 
HETATM    9  C   UNL     1      61.365   6.763   3.154  1.00  0.00     0.042 C 
HETATM   10  C   UNL     1      61.715  11.748   2.244  1.00  0.00     0.050 C 
HETATM   11  C   UNL     1      60.340   6.784   2.024  1.00  0.00     0.024 C 
HETATM   12  H   UNL     1      60.665   9.822   0.921  1.00  0.00     0.159 HD
ENDROOT
TORSDOF 0
ENDMDL
MODEL 9
REMARK VINA RESULT:      -4.2      5.602      8.056
REMARK  0 active torsions:
REMARK  status: ('A' for Active; 'I' for Inactive)
ROOT
HETATM    1  C   UNL     1      67.446   5.998   6.569  1.00  0.00     0.040 A 
HETATM    2  N   UNL     1      67.382   7.052   7.471  1.00  0.00    -0.389 N 
HETATM    3  C   UNL     1      67.546   4.670   7.037  1.00  0.00    -0.031 A 
HETATM    4  C   UNL     1      67.337   6.227   5.182  1.00  0.00    -0.035 A 
HETATM    5  C   UNL     1      67.395   3.829   4.773  1.00  0.00     0.001 A 
HETATM    6  C   UNL     1      67.196   6.790   8.882  1.00  0.00     0.120 C 
HETATM    7  C   UNL     1      67.512   3.596   6.138  1.00  0.00     0.009 A 
HETATM    8  C   UNL     1      67.315   5.136   4.298  1.00  0.00     0.009 A 
HETATM    9  C   UNL     1      67.665   4.384   8.516  1.00  0.00     0.042 C 
HETATM   10  C   UNL     1      67.225   7.621   4.627  1.00  0.00     0.050 C 
HETATM   11  C   UNL     1      68.075   5.624   9.303  1.00  0.00     0.024 C 
HETATM   12  H   UNL     1      67.462   7.980   7.151  1.00  0.00     0.159 HD
ENDROOT
TORSDOF 0
ENDMDL
