MODEL 1
REMARK VINA RESULT:      -4.9      0.000      0.000
REMARK  2 active torsions:
REMARK  status: ('A' for Active; 'I' for Inactive)
REMARK    1  A    between atoms: S_1  and  C_2 
REMARK    2  A    between atoms: S_1  and  N_9 
ROOT
HETATM    1  C   UNL     1      63.648   8.466   4.598  1.00  0.00     0.077 A 
HETATM    2  C   UNL     1      63.223   9.751   4.946  1.00  0.00     0.048 A 
HETATM    3  C   UNL     1      63.310   7.907   3.362  1.00  0.00     0.048 A 
HETATM    4  C   UNL     1      62.447  10.474   4.043  1.00  0.00     0.037 A 
HETATM    5  C   UNL     1      62.535   8.647   2.475  1.00  0.00     0.037 A 
HETATM    6  C   UNL     1      62.101   9.930   2.807  1.00  0.00     0.047 A 
HETATM    7 CL   UNL     1      61.918  12.057   4.456  1.00  0.00    -0.084 Cl
HETATM    8 CL   UNL     1      62.113   7.973   0.950  1.00  0.00    -0.084 Cl
ENDROOT
BRANCH   1   9
HETATM    9  S   UNL     1      64.676   7.559   5.710  1.00  0.00     0.239 S 
HETATM   10  O   UNL     1      65.372   6.533   4.975  1.00  0.00    -0.206 OA
HETATM   11  O   UNL     1      63.938   7.289   6.919  1.00  0.00    -0.206 OA
BRANCH   9  12
HETATM   12  N   UNL     1      65.827   8.712   6.112  1.00  0.00    -0.225 NA
HETATM   13  H   UNL     1      65.408   9.410   6.726  1.00  0.00     0.136 HD
HETATM   14  H   UNL     1      66.165   9.163   5.263  1.00  0.00     0.136 HD
ENDBRANCH   9  12
ENDBRANCH   1   9
TORSDOF 2
ENDMDL
MODEL 2
REMARK VINA RESULT:      -4.8      0.069      2.606
REMARK  2 active torsions:
REMARK  status: ('A' for Active; 'I' for Inactive)
REMARK    1  A    between atoms: S_1  and  C_2 
REMARK    2  A    between atoms: S_1  and  N_9 
ROOT
HETATM    1  C   UNL     1      63.723   8.482   4.615  1.00  0.00     0.077 A 
HETATM    2  C   UNL     1      63.355   7.892   3.403  1.00  0.00     0.048 A 
HETATM    3  C   UNL     1      63.287   9.766   4.952  1.00  0.00     0.048 A 
HETATM    4  C   UNL     1      62.546   8.606   2.523  1.00  0.00     0.037 A 
HETATM    5  C   UNL     1      62.479  10.462   4.059  1.00  0.00     0.037 A 
HETATM    6  C   UNL     1      62.104   9.889   2.843  1.00  0.00     0.047 A 
HETATM    7 CL   UNL     1      62.082   7.894   1.027  1.00  0.00    -0.084 Cl
HETATM    8 CL   UNL     1      61.933  12.042   4.461  1.00  0.00    -0.084 Cl
ENDROOT
BRANCH   1   9
HETATM    9  S   UNL     1      64.704   7.567   5.763  1.00  0.00     0.239 S 
HETATM   10  O   UNL     1      65.408   6.527   5.054  1.00  0.00    -0.206 OA
HETATM   11  O   UNL     1      63.926   7.313   6.950  1.00  0.00    -0.206 OA
BRANCH   9  12
HETATM   12  N   UNL     1      65.858   8.706   6.195  1.00  0.00    -0.225 NA
HETATM   13  H   UNL     1      66.745   8.238   6.379  1.00  0.00     0.136 HD
HETATM   14  H   UNL     1      65.552   9.197   7.034  1.00  0.00     0.136 HD
ENDBRANCH   9  12
ENDBRANCH   1   9
TORSDOF 2
ENDMDL
MODEL 3
REMARK VINA RESULT:      -4.8      1.162      1.291
REMARK  2 active torsions:
REMARK  status: ('A' for Active; 'I' for Inactive)
REMARK    1  A    between atoms: S_1  and  C_2 
REMARK    2  A    between atoms: S_1  and  N_9 
ROOT
HETATM    1  C   UNL     1      63.108   8.333   4.002  1.00  0.00     0.077 A 
HETATM    2  C   UNL     1      62.688   9.654   3.822  1.00  0.00     0.048 A 
HETATM    3  C   UNL     1      63.030   7.405   2.960  1.00  0.00     0.048 A 
HETATM    4  C   UNL     1      62.181  10.038   2.583  1.00  0.00     0.037 A 
HETATM    5  C   UNL     1      62.520   7.811   1.731  1.00  0.00     0.037 A 
HETATM    6  C   UNL     1      62.095   9.124   1.534  1.00  0.00     0.047 A 
HETATM    7 CL   UNL     1      61.662  11.661   2.345  1.00  0.00    -0.084 Cl
HETATM    8 CL   UNL     1      62.421   6.680   0.438  1.00  0.00    -0.084 Cl
ENDROOT
BRANCH   1   9
HETATM    9  S   UNL     1      63.802   7.846   5.551  1.00  0.00     0.239 S 
HETATM   10  O   UNL     1      64.485   6.587   5.383  1.00  0.00    -0.206 OA
HETATM   11  O   UNL     1      62.833   8.075   6.594  1.00  0.00    -0.206 OA
BRANCH   9  12
HETATM   12  N   UNL     1      64.997   9.005   5.758  1.00  0.00    -0.225 NA
HETATM   13  H   UNL     1      65.908   8.549   5.806  1.00  0.00     0.136 HD
HETATM   14  H   UNL     1      64.826   9.516   6.623  1.00  0.00     0.136 HD
ENDBRANCH   9  12
ENDBRANCH   1   9
TORSDOF 2
ENDMDL
MODEL 4
REMARK VINA RESULT:      -4.7      1.888      3.143
REMARK  2 active torsions:
REMARK  status: ('A' for Active; 'I' for Inactive)
REMARK    1  A    between atoms: S_1  and  C_2 
REMARK    2  A    between atoms: S_1  and  N_9 
ROOT
HETATM    1  C   UNL     1      62.882   9.446   3.954  1.00  0.00     0.077 A 
HETATM    2  C   UNL     1      62.894   8.328   3.116  1.00  0.00     0.048 A 
HETATM    3  C   UNL     1      62.378  10.672   3.511  1.00  0.00     0.048 A 
HETATM    4  C   UNL     1      62.401   8.450   1.819  1.00  0.00     0.037 A 
HETATM    5  C   UNL     1      61.889  10.772   2.212  1.00  0.00     0.037 A 
HETATM    6  C   UNL     1      61.896   9.667   1.361  1.00  0.00     0.047 A 
HETATM    7 CL   UNL     1      62.409   7.083   0.775  1.00  0.00    -0.084 Cl
HETATM    8 CL   UNL     1      61.263  12.273   1.653  1.00  0.00    -0.084 Cl
ENDROOT
BRANCH   1   9
HETATM    9  S   UNL     1      63.455   9.292   5.617  1.00  0.00     0.239 S 
HETATM   10  O   UNL     1      64.897   9.292   5.617  1.00  0.00    -0.206 OA
HETATM   11  O   UNL     1      62.674   8.285   6.292  1.00  0.00    -0.206 OA
BRANCH   9  12
HETATM   12  N   UNL     1      62.984  10.765   6.268  1.00  0.00    -0.225 NA
HETATM   13  H   UNL     1      62.001  10.932   6.056  1.00  0.00     0.136 HD
HETATM   14  H   UNL     1      63.551  11.510   5.865  1.00  0.00     0.136 HD
ENDBRANCH   9  12
ENDBRANCH   1   9
TORSDOF 2
ENDMDL
MODEL 5
REMARK VINA RESULT:      -4.4      1.939      2.112
REMARK  2 active torsions:
REMARK  status: ('A' for Active; 'I' for Inactive)
REMARK    1  A    between atoms: S_1  and  C_2 
REMARK    2  A    between atoms: S_1  and  N_9 
ROOT
HETATM    1  C   UNL     1      63.388   8.140   4.853  1.00  0.00     0.077 A 
HETATM    2  C   UNL     1      63.220   9.399   4.271  1.00  0.00     0.048 A 
HETATM    3  C   UNL     1      62.389   7.167   4.764  1.00  0.00     0.048 A 
HETATM    4  C   UNL     1      62.033   9.681   3.601  1.00  0.00     0.037 A 
HETATM    5  C   UNL     1      61.210   7.469   4.089  1.00  0.00     0.037 A 
HETATM    6  C   UNL     1      61.025   8.722   3.505  1.00  0.00     0.047 A 
HETATM    7 CL   UNL     1      61.811  11.226   2.879  1.00  0.00    -0.084 Cl
HETATM    8 CL   UNL     1      59.971   6.282   3.970  1.00  0.00    -0.084 Cl
ENDROOT
BRANCH   1   9
HETATM    9  S   UNL     1      64.911   7.751   5.659  1.00  0.00     0.239 S 
HETATM   10  O   UNL     1      65.590   8.978   5.994  1.00  0.00    -0.206 OA
HETATM   11  O   UNL     1      65.554   6.670   4.954  1.00  0.00    -0.206 OA
BRANCH   9  12
HETATM   12  N   UNL     1      64.364   7.106   7.107  1.00  0.00    -0.225 NA
HETATM   13  H   UNL     1      63.658   7.722   7.509  1.00  0.00     0.136 HD
HETATM   14  H   UNL     1      65.146   7.016   7.755  1.00  0.00     0.136 HD
ENDBRANCH   9  12
ENDBRANCH   1   9
TORSDOF 2
ENDMDL
MODEL 6
REMARK VINA RESULT:      -4.3      1.551      2.923
REMARK  2 active torsions:
REMARK  status: ('A' for Active; 'I' for Inactive)
REMARK    1  A    between atoms: S_1  and  C_2 
REMARK    2  A    between atoms: S_1  and  N_9 
ROOT
HETATM    1  C   UNL     1      63.500   8.123   4.456  1.00  0.00     0.077 A 
HETATM    2  C   UNL     1      62.733   7.094   3.904  1.00  0.00     0.048 A 
HETATM    3  C   UNL     1      63.215   9.462   4.176  1.00  0.00     0.048 A 
HETATM    4  C   UNL     1      61.675   7.418   3.059  1.00  0.00     0.037 A 
HETATM    5  C   UNL     1      62.152   9.764   3.330  1.00  0.00     0.037 A 
HETATM    6  C   UNL     1      61.378   8.749   2.769  1.00  0.00     0.047 A 
HETATM    7 CL   UNL     1      60.721   6.162   2.372  1.00  0.00    -0.084 Cl
HETATM    8 CL   UNL     1      61.787  11.408   2.978  1.00  0.00    -0.084 Cl
ENDROOT
BRANCH   1   9
HETATM    9  S   UNL     1      64.811   7.728   5.571  1.00  0.00     0.239 S 
HETATM   10  O   UNL     1      65.504   8.941   5.928  1.00  0.00    -0.206 OA
HETATM   11  O   UNL     1      65.494   6.550   5.096  1.00  0.00    -0.206 OA
BRANCH   9  12
HETATM   12  N   UNL     1      63.956   7.256   6.935  1.00  0.00    -0.225 NA
HETATM   13  H   UNL     1      63.177   6.658   6.658  1.00  0.00     0.136 HD
HETATM   14  H   UNL     1      63.598   8.082   7.413  1.00  0.00     0.136 HD
ENDBRANCH   9  12
ENDBRANCH   1   9
TORSDOF 2
ENDMDL
MODEL 7
REMARK VINA RESULT:      -4.3      3.810      4.156
REMARK  2 active torsions:
REMARK  status: ('A' for Active; 'I' for Inactive)
REMARK    1  A    between atoms: S_1  and  C_2 
REMARK    2  A    between atoms: S_1  and  N_9 
ROOT
HETATM    1  C   UNL     1      63.172   8.754   3.621  1.00  0.00     0.077 A 
HETATM    2  C   UNL     1      64.061   8.955   4.681  1.00  0.00     0.048 A 
HETATM    3  C   UNL     1      63.239   7.600   2.835  1.00  0.00     0.048 A 
HETATM    4  C   UNL     1      65.027   7.988   4.944  1.00  0.00     0.037 A 
HETATM    5  C   UNL     1      64.213   6.647   3.116  1.00  0.00     0.037 A 
HETATM    6  C   UNL     1      65.109   6.832   4.168  1.00  0.00     0.047 A 
HETATM    7 CL   UNL     1      66.128   8.220   6.245  1.00  0.00    -0.084 Cl
HETATM    8 CL   UNL     1      64.306   5.221   2.158  1.00  0.00    -0.084 Cl
ENDROOT
BRANCH   1   9
HETATM    9  S   UNL     1      61.908   9.946   3.309  1.00  0.00     0.239 S 
HETATM   10  O   UNL     1      61.976  10.352   1.927  1.00  0.00    -0.206 OA
HETATM   11  O   UNL     1      61.872  10.890   4.399  1.00  0.00    -0.206 OA
BRANCH   9  12
HETATM   12  N   UNL     1      60.524   9.009   3.456  1.00  0.00    -0.225 NA
HETATM   13  H   UNL     1      60.734   8.177   4.008  1.00  0.00     0.136 HD
HETATM   14  H   UNL     1      60.204   8.730   2.529  1.00  0.00     0.136 HD
ENDBRANCH   9  12
ENDBRANCH   1   9
TORSDOF 2
ENDMDL
MODEL 8
REMARK VINA RESULT:      -4.3      2.601      3.491
REMARK  2 active torsions:
REMARK  status: ('A' for Active; 'I' for Inactive)
REMARK    1  A    between atoms: S_1  and  C_2 
REMARK    2  A    between atoms: S_1  and  N_9 
ROOT
HETATM    1  C   UNL     1      65.077   7.697   5.630  1.00  0.00     0.077 A 
HETATM    2  C   UNL     1      64.317   6.616   6.086  1.00  0.00     0.048 A 
HETATM    3  C   UNL     1      64.470   8.789   5.004  1.00  0.00     0.048 A 
HETATM    4  C   UNL     1      62.937   6.636   5.903  1.00  0.00     0.037 A 
HETATM    5  C   UNL     1      63.089   8.789   4.832  1.00  0.00     0.037 A 
HETATM    6  C   UNL     1      62.317   7.717   5.279  1.00  0.00     0.047 A 
HETATM    7 CL   UNL     1      61.988   5.313   6.459  1.00  0.00    -0.084 Cl
HETATM    8 CL   UNL     1      62.328  10.127   4.066  1.00  0.00    -0.084 Cl
ENDROOT
BRANCH   1   9
HETATM    9  S   UNL     1      66.821   7.710   5.903  1.00  0.00     0.239 S 
HETATM   10  O   UNL     1      67.472   8.274   4.747  1.00  0.00    -0.206 OA
HETATM   11  O   UNL     1      67.216   6.450   6.484  1.00  0.00    -0.206 OA
BRANCH   9  12
HETATM   12  N   UNL     1      66.957   8.852   7.124  1.00  0.00    -0.225 NA
HETATM   13  H   UNL     1      66.028   9.181   7.388  1.00  0.00     0.136 HD
HETATM   14  H   UNL     1      67.516   9.638   6.793  1.00  0.00     0.136 HD
ENDBRANCH   9  12
ENDBRANCH   1   9
TORSDOF 2
ENDMDL
MODEL 9
REMARK VINA RESULT:      -4.1      5.081      6.297
REMARK  2 active torsions:
REMARK  status: ('A' for Active; 'I' for Inactive)
REMARK    1  A    between atoms: S_1  and  C_2 
REMARK    2  A    between atoms: S_1  and  N_9 
ROOT
HETATM    1  C   UNL     1      65.635   6.693   6.246  1.00  0.00     0.077 A 
HETATM    2  C   UNL     1      66.026   5.746   5.296  1.00  0.00     0.048 A 
HETATM    3  C   UNL     1      66.259   6.760   7.495  1.00  0.00     0.048 A 
HETATM    4  C   UNL     1      67.051   4.857   5.611  1.00  0.00     0.037 A 
HETATM    5  C   UNL     1      67.282   5.862   7.788  1.00  0.00     0.037 A 
HETATM    6  C   UNL     1      67.683   4.909   6.852  1.00  0.00     0.047 A 
HETATM    7 CL   UNL     1      67.545   3.686   4.451  1.00  0.00    -0.084 Cl
HETATM    8 CL   UNL     1      68.061   5.934   9.319  1.00  0.00    -0.084 Cl
ENDROOT
BRANCH   1   9
HETATM    9  S   UNL     1      64.374   7.861   5.841  1.00  0.00     0.239 S 
HETATM   10  O   UNL     1      64.980   9.154   5.641  1.00  0.00    -0.206 OA
HETATM   11  O   UNL     1      63.244   7.655   6.714  1.00  0.00    -0.206 OA
BRANCH   9  12
HETATM   12  N   UNL     1      63.899   7.324   4.325  1.00  0.00    -0.225 NA
HETATM   13  H   UNL     1      62.915   7.057   4.351  1.00  0.00     0.136 HD
HETATM   14  H   UNL     1      64.464   6.518   4.059  1.00  0.00     0.136 HD
ENDBRANCH   9  12
ENDBRANCH   1   9
TORSDOF 2
ENDMDL
