MODEL 1
REMARK VINA RESULT:      -6.0      0.000      0.000
REMARK  2 active torsions:
REMARK  status: ('A' for Active; 'I' for Inactive)
REMARK    1  A    between atoms: C_3  and  C_7 
REMARK    2  A    between atoms: C_4  and  N_13 
ROOT
HETATM    1  N   UNL     1      64.201   8.121   5.846  1.00  0.00    -0.336 N 
ATOM      2  HN  UNL     1      64.748   8.974   5.961  1.00  0.00     0.168 HD
HETATM    3  C   UNL     1      63.147   7.968   4.958  1.00  0.00     0.051 A 
HETATM    4  C   UNL     1      64.391   7.013   6.517  1.00  0.00     0.142 A 
HETATM    5  S   UNL     1      63.387   5.696   6.067  1.00  0.00    -0.064 SA
HETATM    6  C   UNL     1      62.597   6.702   4.927  1.00  0.00     0.083 A 
ENDROOT
BRANCH   3   7
HETATM    7  C   UNL     1      62.686   9.079   4.133  1.00  0.00    -0.006 A 
HETATM    8  C   UNL     1      62.494  10.359   4.672  1.00  0.00     0.059 A 
HETATM    9  C   UNL     1      62.068  11.402   3.855  1.00  0.00     0.155 A 
HETATM   10  C   UNL     1      61.829  11.191   2.503  1.00  0.00     0.154 A 
HETATM   11  F   UNL     1      61.894  12.620   4.387  1.00  0.00    -0.203 F 
HETATM   12  C   UNL     1      62.019   9.931   1.948  1.00  0.00     0.046 A 
HETATM   13  F   UNL     1      61.419  12.200   1.723  1.00  0.00    -0.203 F 
HETATM   14  C   UNL     1      62.452   8.877   2.762  1.00  0.00     0.017 A 
ENDBRANCH   3   7
BRANCH   4  15
HETATM   15  N   UNL     1      65.299   6.888   7.495  1.00  0.00    -0.380 N 
HETATM   16  H   UNL     1      66.149   6.422   7.320  1.00  0.00     0.158 HD
HETATM   17  H   UNL     1      65.116   7.262   8.387  1.00  0.00     0.158 HD
ENDBRANCH   4  15
TORSDOF 2
ENDMDL
MODEL 2
REMARK VINA RESULT:      -5.8      1.192      1.259
REMARK  2 active torsions:
REMARK  status: ('A' for Active; 'I' for Inactive)
REMARK    1  A    between atoms: C_3  and  C_7 
REMARK    2  A    between atoms: C_4  and  N_13 
ROOT
HETATM    1  N   UNL     1      65.516   8.344   6.027  1.00  0.00    -0.336 N 
ATOM      2  HN  UNL     1      65.985   9.229   5.835  1.00  0.00     0.168 HD
HETATM    3  C   UNL     1      64.269   7.985   5.539  1.00  0.00     0.051 A 
HETATM    4  C   UNL     1      66.005   7.383   6.771  1.00  0.00     0.142 A 
HETATM    5  S   UNL     1      65.050   5.960   6.859  1.00  0.00    -0.064 SA
HETATM    6  C   UNL     1      63.863   6.708   5.875  1.00  0.00     0.083 A 
ENDROOT
BRANCH   3   7
HETATM    7  C   UNL     1      63.477   8.907   4.734  1.00  0.00    -0.006 A 
HETATM    8  C   UNL     1      63.126  10.177   5.211  1.00  0.00     0.059 A 
HETATM    9  C   UNL     1      62.382  11.041   4.412  1.00  0.00     0.155 A 
HETATM   10  C   UNL     1      61.981  10.658   3.138  1.00  0.00     0.154 A 
HETATM   11  F   UNL     1      62.060  12.254   4.883  1.00  0.00    -0.203 F 
HETATM   12  C   UNL     1      62.323   9.405   2.644  1.00  0.00     0.046 A 
HETATM   13  F   UNL     1      61.265  11.495   2.374  1.00  0.00    -0.203 F 
HETATM   14  C   UNL     1      63.074   8.532   3.440  1.00  0.00     0.017 A 
ENDBRANCH   3   7
BRANCH   4  15
HETATM   15  N   UNL     1      67.168   7.479   7.430  1.00  0.00    -0.380 N 
HETATM   16  H   UNL     1      68.001   7.651   6.934  1.00  0.00     0.158 HD
HETATM   17  H   UNL     1      67.188   7.377   8.408  1.00  0.00     0.158 HD
ENDBRANCH   4  15
TORSDOF 2
ENDMDL
MODEL 3
REMARK VINA RESULT:      -5.8      0.771      1.822
REMARK  2 active torsions:
REMARK  status: ('A' for Active; 'I' for Inactive)
REMARK    1  A    between atoms: C_3  and  C_7 
REMARK    2  A    between atoms: C_4  and  N_13 
ROOT
HETATM    1  N   UNL     1      64.298   8.061   5.877  1.00  0.00    -0.336 N 
ATOM      2  HN  UNL     1      64.846   8.916   5.962  1.00  0.00     0.168 HD
HETATM    3  C   UNL     1      63.241   7.880   4.998  1.00  0.00     0.051 A 
HETATM    4  C   UNL     1      64.489   6.975   6.584  1.00  0.00     0.142 A 
HETATM    5  S   UNL     1      63.482   5.645   6.180  1.00  0.00    -0.064 SA
HETATM    6  C   UNL     1      62.689   6.614   5.011  1.00  0.00     0.083 A 
ENDROOT
BRANCH   3   7
HETATM    7  C   UNL     1      62.779   8.963   4.138  1.00  0.00    -0.006 A 
HETATM    8  C   UNL     1      62.563   8.765   2.766  1.00  0.00     0.059 A 
HETATM    9  C   UNL     1      62.106   9.814   1.974  1.00  0.00     0.155 A 
HETATM   10  C   UNL     1      61.858  11.064   2.528  1.00  0.00     0.154 A 
HETATM   11  F   UNL     1      61.901   9.605   0.666  1.00  0.00    -0.203 F 
HETATM   12  C   UNL     1      62.061  11.279   3.886  1.00  0.00     0.046 A 
HETATM   13  F   UNL     1      61.419  12.069   1.759  1.00  0.00    -0.203 F 
HETATM   14  C   UNL     1      62.516  10.228   4.691  1.00  0.00     0.017 A 
ENDBRANCH   3   7
BRANCH   4  15
HETATM   15  N   UNL     1      65.400   6.882   7.563  1.00  0.00    -0.380 N 
HETATM   16  H   UNL     1      66.340   6.685   7.343  1.00  0.00     0.158 HD
HETATM   17  H   UNL     1      65.129   7.010   8.500  1.00  0.00     0.158 HD
ENDBRANCH   4  15
TORSDOF 2
ENDMDL
MODEL 4
REMARK VINA RESULT:      -5.0      1.629      1.711
REMARK  2 active torsions:
REMARK  status: ('A' for Active; 'I' for Inactive)
REMARK    1  A    between atoms: C_3  and  C_7 
REMARK    2  A    between atoms: C_4  and  N_13 
ROOT
HETATM    1  N   UNL     1      62.200   7.095   5.125  1.00  0.00    -0.336 N 
ATOM      2  HN  UNL     1      61.950   7.784   5.834  1.00  0.00     0.168 HD
HETATM    3  C   UNL     1      62.400   7.374   3.782  1.00  0.00     0.051 A 
HETATM    4  C   UNL     1      62.379   5.818   5.353  1.00  0.00     0.142 A 
HETATM    5  S   UNL     1      62.884   4.891   3.999  1.00  0.00    -0.064 SA
HETATM    6  C   UNL     1      62.800   6.294   3.020  1.00  0.00     0.083 A 
ENDROOT
BRANCH   3   7
HETATM    7  C   UNL     1      62.199   8.717   3.250  1.00  0.00    -0.006 A 
HETATM    8  C   UNL     1      62.187   9.841   4.089  1.00  0.00     0.059 A 
HETATM    9  C   UNL     1      62.008  11.111   3.550  1.00  0.00     0.155 A 
HETATM   10  C   UNL     1      61.841  11.283   2.182  1.00  0.00     0.154 A 
HETATM   11  F   UNL     1      62.003  12.174   4.367  1.00  0.00    -0.203 F 
HETATM   12  C   UNL     1      61.856  10.183   1.332  1.00  0.00     0.046 A 
HETATM   13  F   UNL     1      61.669  12.509   1.669  1.00  0.00    -0.203 F 
HETATM   14  C   UNL     1      62.039   8.902   1.866  1.00  0.00     0.017 A 
ENDBRANCH   3   7
BRANCH   4  15
HETATM   15  N   UNL     1      62.187   5.247   6.550  1.00  0.00    -0.380 N 
HETATM   16  H   UNL     1      61.355   4.751   6.730  1.00  0.00     0.158 HD
HETATM   17  H   UNL     1      62.876   5.324   7.248  1.00  0.00     0.158 HD
ENDBRANCH   4  15
TORSDOF 2
ENDMDL
MODEL 5
REMARK VINA RESULT:      -4.8      2.253      3.101
REMARK  2 active torsions:
REMARK  status: ('A' for Active; 'I' for Inactive)
REMARK    1  A    between atoms: C_3  and  C_7 
REMARK    2  A    between atoms: C_4  and  N_13 
ROOT
HETATM    1  N   UNL     1      65.094   7.374   6.934  1.00  0.00    -0.336 N 
ATOM      2  HN  UNL     1      64.240   7.633   7.427  1.00  0.00     0.168 HD
HETATM    3  C   UNL     1      65.325   7.580   5.582  1.00  0.00     0.051 A 
HETATM    4  C   UNL     1      66.133   6.797   7.486  1.00  0.00     0.142 A 
HETATM    5  S   UNL     1      67.477   6.549   6.449  1.00  0.00    -0.064 SA
HETATM    6  C   UNL     1      66.582   7.210   5.147  1.00  0.00     0.083 A 
ENDROOT
BRANCH   3   7
HETATM    7  C   UNL     1      64.298   8.151   4.718  1.00  0.00    -0.006 A 
HETATM    8  C   UNL     1      63.940   7.540   3.507  1.00  0.00     0.059 A 
HETATM    9  C   UNL     1      62.945   8.101   2.712  1.00  0.00     0.155 A 
HETATM   10  C   UNL     1      62.295   9.264   3.105  1.00  0.00     0.154 A 
HETATM   11  F   UNL     1      62.614   7.501   1.560  1.00  0.00    -0.203 F 
HETATM   12  C   UNL     1      62.631   9.881   4.304  1.00  0.00     0.046 A 
HETATM   13  F   UNL     1      61.338   9.798   2.334  1.00  0.00    -0.203 F 
HETATM   14  C   UNL     1      63.628   9.322   5.112  1.00  0.00     0.017 A 
ENDBRANCH   3   7
BRANCH   4  15
HETATM   15  N   UNL     1      66.168   6.414   8.770  1.00  0.00    -0.380 N 
HETATM   16  H   UNL     1      66.940   5.905   9.110  1.00  0.00     0.158 HD
HETATM   17  H   UNL     1      65.424   6.641   9.372  1.00  0.00     0.158 HD
ENDBRANCH   4  15
TORSDOF 2
ENDMDL
MODEL 6
REMARK VINA RESULT:      -4.6      2.288      2.982
REMARK  2 active torsions:
REMARK  status: ('A' for Active; 'I' for Inactive)
REMARK    1  A    between atoms: C_3  and  C_7 
REMARK    2  A    between atoms: C_4  and  N_13 
ROOT
HETATM    1  N   UNL     1      65.490   7.624   6.820  1.00  0.00    -0.336 N 
ATOM      2  HN  UNL     1      64.785   7.794   7.537  1.00  0.00     0.168 HD
HETATM    3  C   UNL     1      65.252   7.631   5.454  1.00  0.00     0.051 A 
HETATM    4  C   UNL     1      66.752   7.367   7.058  1.00  0.00     0.142 A 
HETATM    5  S   UNL     1      67.747   7.208   5.668  1.00  0.00    -0.064 SA
HETATM    6  C   UNL     1      66.374   7.443   4.671  1.00  0.00     0.083 A 
ENDROOT
BRANCH   3   7
HETATM    7  C   UNL     1      63.909   7.829   4.922  1.00  0.00    -0.006 A 
HETATM    8  C   UNL     1      63.441   9.106   4.578  1.00  0.00     0.059 A 
HETATM    9  C   UNL     1      62.159   9.261   4.057  1.00  0.00     0.155 A 
HETATM   10  C   UNL     1      61.332   8.160   3.871  1.00  0.00     0.154 A 
HETATM   11  F   UNL     1      61.731  10.488   3.730  1.00  0.00    -0.203 F 
HETATM   12  C   UNL     1      61.779   6.886   4.201  1.00  0.00     0.046 A 
HETATM   13  F   UNL     1      60.100   8.317   3.370  1.00  0.00    -0.203 F 
HETATM   14  C   UNL     1      63.068   6.721   4.721  1.00  0.00     0.017 A 
ENDBRANCH   3   7
BRANCH   4  15
HETATM   15  N   UNL     1      67.259   7.229   8.291  1.00  0.00    -0.380 N 
HETATM   16  H   UNL     1      68.196   6.948   8.409  1.00  0.00     0.158 HD
HETATM   17  H   UNL     1      66.695   7.409   9.077  1.00  0.00     0.158 HD
ENDBRANCH   4  15
TORSDOF 2
ENDMDL
MODEL 7
REMARK VINA RESULT:      -4.5      3.074      4.425
REMARK  2 active torsions:
REMARK  status: ('A' for Active; 'I' for Inactive)
REMARK    1  A    between atoms: C_3  and  C_7 
REMARK    2  A    between atoms: C_4  and  N_13 
ROOT
HETATM    1  N   UNL     1      65.868   4.993   7.584  1.00  0.00    -0.336 N 
ATOM      2  HN  UNL     1      65.189   4.349   7.178  1.00  0.00     0.168 HD
HETATM    3  C   UNL     1      65.879   6.365   7.384  1.00  0.00     0.051 A 
HETATM    4  C   UNL     1      66.854   4.642   8.371  1.00  0.00     0.142 A 
HETATM    5  S   UNL     1      67.799   5.935   8.990  1.00  0.00    -0.064 SA
HETATM    6  C   UNL     1      66.852   7.044   8.091  1.00  0.00     0.083 A 
ENDROOT
BRANCH   3   7
HETATM    7  C   UNL     1      64.921   7.007   6.492  1.00  0.00    -0.006 A 
HETATM    8  C   UNL     1      63.582   6.594   6.439  1.00  0.00     0.059 A 
HETATM    9  C   UNL     1      62.687   7.237   5.589  1.00  0.00     0.155 A 
HETATM   10  C   UNL     1      63.105   8.291   4.787  1.00  0.00     0.154 A 
HETATM   11  F   UNL     1      61.410   6.831   5.555  1.00  0.00    -0.203 F 
HETATM   12  C   UNL     1      64.427   8.720   4.828  1.00  0.00     0.046 A 
HETATM   13  F   UNL     1      62.238   8.906   3.971  1.00  0.00    -0.203 F 
HETATM   14  C   UNL     1      65.332   8.081   5.684  1.00  0.00     0.017 A 
ENDBRANCH   3   7
BRANCH   4  15
HETATM   15  N   UNL     1      67.132   3.370   8.686  1.00  0.00    -0.380 N 
HETATM   16  H   UNL     1      66.435   2.799   9.085  1.00  0.00     0.158 HD
HETATM   17  H   UNL     1      68.031   3.006   8.518  1.00  0.00     0.158 HD
ENDBRANCH   4  15
TORSDOF 2
ENDMDL
MODEL 8
REMARK VINA RESULT:      -4.3      2.510      3.126
REMARK  2 active torsions:
REMARK  status: ('A' for Active; 'I' for Inactive)
REMARK    1  A    between atoms: C_3  and  C_7 
REMARK    2  A    between atoms: C_4  and  N_13 
ROOT
HETATM    1  N   UNL     1      65.199   8.153   5.900  1.00  0.00    -0.336 N 
ATOM      2  HN  UNL     1      65.271   9.039   5.401  1.00  0.00     0.168 HD
HETATM    3  C   UNL     1      64.188   7.221   5.720  1.00  0.00     0.051 A 
HETATM    4  C   UNL     1      66.047   7.731   6.804  1.00  0.00     0.142 A 
HETATM    5  S   UNL     1      65.740   6.161   7.427  1.00  0.00    -0.064 SA
HETATM    6  C   UNL     1      64.333   6.061   6.456  1.00  0.00     0.083 A 
ENDROOT
BRANCH   3   7
HETATM    7  C   UNL     1      63.076   7.477   4.811  1.00  0.00    -0.006 A 
HETATM    8  C   UNL     1      61.828   6.865   4.994  1.00  0.00     0.059 A 
HETATM    9  C   UNL     1      60.781   7.142   4.119  1.00  0.00     0.155 A 
HETATM   10  C   UNL     1      60.958   8.023   3.059  1.00  0.00     0.154 A 
HETATM   11  F   UNL     1      59.594   6.551   4.312  1.00  0.00    -0.203 F 
HETATM   12  C   UNL     1      62.186   8.644   2.864  1.00  0.00     0.046 A 
HETATM   13  F   UNL     1      59.947   8.284   2.221  1.00  0.00    -0.203 F 
HETATM   14  C   UNL     1      63.242   8.374   3.742  1.00  0.00     0.017 A 
ENDBRANCH   3   7
BRANCH   4  15
HETATM   15  N   UNL     1      67.089   8.455   7.234  1.00  0.00    -0.380 N 
HETATM   16  H   UNL     1      68.008   8.139   7.071  1.00  0.00     0.158 HD
HETATM   17  H   UNL     1      66.937   9.301   7.713  1.00  0.00     0.158 HD
ENDBRANCH   4  15
TORSDOF 2
ENDMDL
MODEL 9
REMARK VINA RESULT:      -4.1      2.799      3.473
REMARK  2 active torsions:
REMARK  status: ('A' for Active; 'I' for Inactive)
REMARK    1  A    between atoms: C_3  and  C_7 
REMARK    2  A    between atoms: C_4  and  N_13 
ROOT
HETATM    1  N   UNL     1      65.582   6.785   3.914  1.00  0.00    -0.336 N 
ATOM      2  HN  UNL     1      65.529   6.165   3.106  1.00  0.00     0.168 HD
HETATM    3  C   UNL     1      64.645   7.756   4.232  1.00  0.00     0.051 A 
HETATM    4  C   UNL     1      66.545   6.777   4.802  1.00  0.00     0.142 A 
HETATM    5  S   UNL     1      66.345   7.863   6.116  1.00  0.00    -0.064 SA
HETATM    6  C   UNL     1      64.889   8.429   5.414  1.00  0.00     0.083 A 
ENDROOT
BRANCH   3   7
HETATM    7  C   UNL     1      63.501   8.017   3.366  1.00  0.00    -0.006 A 
HETATM    8  C   UNL     1      63.133   7.120   2.353  1.00  0.00     0.059 A 
HETATM    9  C   UNL     1      62.026   7.388   1.553  1.00  0.00     0.155 A 
HETATM   10  C   UNL     1      61.276   8.542   1.746  1.00  0.00     0.154 A 
HETATM   11  F   UNL     1      61.687   6.517   0.592  1.00  0.00    -0.203 F 
HETATM   12  C   UNL     1      61.621   9.441   2.748  1.00  0.00     0.046 A 
HETATM   13  F   UNL     1      60.213   8.794   0.971  1.00  0.00    -0.203 F 
HETATM   14  C   UNL     1      62.730   9.176   3.560  1.00  0.00     0.017 A 
ENDBRANCH   3   7
BRANCH   4  15
HETATM   15  N   UNL     1      67.624   5.987   4.715  1.00  0.00    -0.380 N 
HETATM   16  H   UNL     1      68.507   6.381   4.529  1.00  0.00     0.158 HD
HETATM   17  H   UNL     1      67.533   5.014   4.835  1.00  0.00     0.158 HD
ENDBRANCH   4  15
TORSDOF 2
ENDMDL
