MODEL 1
REMARK VINA RESULT:      -5.9      0.000      0.000
REMARK  3 active torsions:
REMARK  status: ('A' for Active; 'I' for Inactive)
REMARK    1  A    between atoms: C_1  and  C_2 
REMARK    2  A    between atoms: C_1  and  C_5 
REMARK    3  A    between atoms: C_6  and  N_7 
ROOT
HETATM    1  C   UNL     1      64.586   7.354   4.534  1.00  0.00     0.017 A 
HETATM    2  C   UNL     1      65.093   7.931   5.707  1.00  0.00     0.044 A 
HETATM    3  C   UNL     1      66.448   7.817   6.027  1.00  0.00     0.026 A 
HETATM    4  C   UNL     1      65.431   6.619   3.698  1.00  0.00     0.015 A 
HETATM    5  C   UNL     1      66.789   6.526   3.996  1.00  0.00     0.003 A 
HETATM    6  C   UNL     1      67.295   7.154   5.136  1.00  0.00     0.029 A 
ENDROOT
BRANCH   1   7
HETATM    7  C   UNL     1      63.163   7.510   4.134  1.00  0.00     0.192 C 
HETATM    8  O   UNL     1      62.362   6.628   4.432  1.00  0.00    -0.287 OA
BRANCH   7   9
HETATM    9  C   UNL     1      62.688   8.698   3.372  1.00  0.00     0.015 A 
HETATM   10  C   UNL     1      62.397   9.868   4.082  1.00  0.00     0.015 A 
HETATM   11  C   UNL     1      61.949  11.007   3.409  1.00  0.00     0.001 A 
HETATM   12  C   UNL     1      61.789  10.982   2.024  1.00  0.00     0.000 A 
HETATM   13  C   UNL     1      62.057   9.814   1.312  1.00  0.00     0.001 A 
HETATM   14  C   UNL     1      62.489   8.668   1.984  1.00  0.00     0.015 A 
ENDBRANCH   7   9
ENDBRANCH   1   7
BRANCH   3  15
HETATM   15  N   UNL     1      66.983   8.567   7.082  1.00  0.00    -0.399 N 
HETATM   16  H   UNL     1      67.753   8.223   7.588  1.00  0.00     0.156 HD
HETATM   17  H   UNL     1      66.587   9.437   7.318  1.00  0.00     0.156 HD
ENDBRANCH   3  15
TORSDOF 3
ENDMDL
MODEL 2
REMARK VINA RESULT:      -5.8      1.365      1.842
REMARK  3 active torsions:
REMARK  status: ('A' for Active; 'I' for Inactive)
REMARK    1  A    between atoms: C_1  and  C_2 
REMARK    2  A    between atoms: C_1  and  C_5 
REMARK    3  A    between atoms: C_6  and  N_7 
ROOT
HETATM    1  C   UNL     1      64.727   7.648   4.645  1.00  0.00     0.017 A 
HETATM    2  C   UNL     1      65.353   6.732   3.787  1.00  0.00     0.044 A 
HETATM    3  C   UNL     1      66.708   6.429   3.938  1.00  0.00     0.026 A 
HETATM    4  C   UNL     1      65.472   8.300   5.631  1.00  0.00     0.015 A 
HETATM    5  C   UNL     1      66.817   7.980   5.806  1.00  0.00     0.003 A 
HETATM    6  C   UNL     1      67.417   7.024   4.985  1.00  0.00     0.029 A 
ENDROOT
BRANCH   1   7
HETATM    7  C   UNL     1      63.274   7.945   4.549  1.00  0.00     0.192 C 
HETATM    8  O   UNL     1      62.487   7.289   5.227  1.00  0.00    -0.287 OA
BRANCH   7   9
HETATM    9  C   UNL     1      62.747   9.004   3.644  1.00  0.00     0.015 A 
HETATM   10  C   UNL     1      62.413  10.244   4.201  1.00  0.00     0.015 A 
HETATM   11  C   UNL     1      61.916  11.267   3.390  1.00  0.00     0.001 A 
HETATM   12  C   UNL     1      61.751  11.056   2.021  1.00  0.00     0.000 A 
HETATM   13  C   UNL     1      62.063   9.817   1.464  1.00  0.00     0.001 A 
HETATM   14  C   UNL     1      62.544   8.787   2.275  1.00  0.00     0.015 A 
ENDBRANCH   7   9
ENDBRANCH   1   7
BRANCH   3  15
HETATM   15  N   UNL     1      67.271   5.367   3.220  1.00  0.00    -0.399 N 
HETATM   16  H   UNL     1      67.263   5.379   2.236  1.00  0.00     0.156 HD
HETATM   17  H   UNL     1      67.674   4.607   3.700  1.00  0.00     0.156 HD
ENDBRANCH   3  15
TORSDOF 3
ENDMDL
MODEL 3
REMARK VINA RESULT:      -5.6      2.286      5.402
REMARK  3 active torsions:
REMARK  status: ('A' for Active; 'I' for Inactive)
REMARK    1  A    between atoms: C_1  and  C_2 
REMARK    2  A    between atoms: C_1  and  C_5 
REMARK    3  A    between atoms: C_6  and  N_7 
ROOT
HETATM    1  C   UNL     1      62.946   9.142   4.434  1.00  0.00     0.017 A 
HETATM    2  C   UNL     1      62.657   8.743   3.121  1.00  0.00     0.044 A 
HETATM    3  C   UNL     1      62.079   9.638   2.217  1.00  0.00     0.026 A 
HETATM    4  C   UNL     1      62.613  10.431   4.860  1.00  0.00     0.015 A 
HETATM    5  C   UNL     1      62.064  11.337   3.955  1.00  0.00     0.003 A 
HETATM    6  C   UNL     1      61.834  10.948   2.634  1.00  0.00     0.029 A 
ENDROOT
BRANCH   1   7
HETATM    7  C   UNL     1      63.617   8.233   5.400  1.00  0.00     0.192 C 
HETATM    8  O   UNL     1      63.014   7.896   6.415  1.00  0.00    -0.287 OA
BRANCH   7   9
HETATM    9  C   UNL     1      65.003   7.734   5.176  1.00  0.00     0.015 A 
HETATM   10  C   UNL     1      66.029   8.252   5.974  1.00  0.00     0.015 A 
HETATM   11  C   UNL     1      67.344   7.814   5.799  1.00  0.00     0.001 A 
HETATM   12  C   UNL     1      67.639   6.857   4.828  1.00  0.00     0.000 A 
HETATM   13  C   UNL     1      66.624   6.353   4.017  1.00  0.00     0.001 A 
HETATM   14  C   UNL     1      65.311   6.801   4.177  1.00  0.00     0.015 A 
ENDBRANCH   7   9
ENDBRANCH   1   7
BRANCH   3  15
HETATM   15  N   UNL     1      61.987   9.301   0.861  1.00  0.00    -0.399 N 
HETATM   16  H   UNL     1      61.129   8.995   0.488  1.00  0.00     0.156 HD
HETATM   17  H   UNL     1      62.781   9.368   0.283  1.00  0.00     0.156 HD
ENDBRANCH   3  15
TORSDOF 3
ENDMDL
MODEL 4
REMARK VINA RESULT:      -5.5      2.298      5.353
REMARK  3 active torsions:
REMARK  status: ('A' for Active; 'I' for Inactive)
REMARK    1  A    between atoms: C_1  and  C_2 
REMARK    2  A    between atoms: C_1  and  C_5 
REMARK    3  A    between atoms: C_6  and  N_7 
ROOT
HETATM    1  C   UNL     1      63.111   8.293   4.380  1.00  0.00     0.017 A 
HETATM    2  C   UNL     1      62.704   9.617   4.162  1.00  0.00     0.044 A 
HETATM    3  C   UNL     1      62.159  10.000   2.934  1.00  0.00     0.026 A 
HETATM    4  C   UNL     1      63.015   7.356   3.348  1.00  0.00     0.015 A 
HETATM    5  C   UNL     1      62.446   7.723   2.131  1.00  0.00     0.003 A 
HETATM    6  C   UNL     1      61.990   9.030   1.943  1.00  0.00     0.029 A 
ENDROOT
BRANCH   1   7
HETATM    7  C   UNL     1      63.636   7.841   5.695  1.00  0.00     0.192 C 
HETATM    8  O   UNL     1      62.879   7.821   6.662  1.00  0.00    -0.287 OA
BRANCH   7   9
HETATM    9  C   UNL     1      65.056   7.427   5.872  1.00  0.00     0.015 A 
HETATM   10  C   UNL     1      65.354   6.497   6.875  1.00  0.00     0.015 A 
HETATM   11  C   UNL     1      66.672   6.080   7.077  1.00  0.00     0.001 A 
HETATM   12  C   UNL     1      67.696   6.589   6.279  1.00  0.00     0.000 A 
HETATM   13  C   UNL     1      67.409   7.530   5.293  1.00  0.00     0.001 A 
HETATM   14  C   UNL     1      66.095   7.963   5.099  1.00  0.00     0.015 A 
ENDBRANCH   7   9
ENDBRANCH   1   7
BRANCH   3  15
HETATM   15  N   UNL     1      61.566  11.261   2.795  1.00  0.00    -0.399 N 
HETATM   16  H   UNL     1      62.074  12.071   3.027  1.00  0.00     0.156 HD
HETATM   17  H   UNL     1      60.641  11.336   2.466  1.00  0.00     0.156 HD
ENDBRANCH   3  15
TORSDOF 3
ENDMDL
MODEL 5
REMARK VINA RESULT:      -5.4      1.908      2.358
REMARK  3 active torsions:
REMARK  status: ('A' for Active; 'I' for Inactive)
REMARK    1  A    between atoms: C_1  and  C_2 
REMARK    2  A    between atoms: C_1  and  C_5 
REMARK    3  A    between atoms: C_6  and  N_7 
ROOT
HETATM    1  C   UNL     1      65.569   7.685   5.650  1.00  0.00     0.017 A 
HETATM    2  C   UNL     1      65.224   6.740   6.627  1.00  0.00     0.044 A 
HETATM    3  C   UNL     1      66.146   5.778   7.043  1.00  0.00     0.026 A 
HETATM    4  C   UNL     1      66.831   7.638   5.051  1.00  0.00     0.015 A 
HETATM    5  C   UNL     1      67.766   6.700   5.482  1.00  0.00     0.003 A 
HETATM    6  C   UNL     1      67.432   5.801   6.497  1.00  0.00     0.029 A 
ENDROOT
BRANCH   1   7
HETATM    7  C   UNL     1      64.630   8.759   5.231  1.00  0.00     0.192 C 
HETATM    8  O   UNL     1      64.643   9.828   5.836  1.00  0.00    -0.287 OA
BRANCH   7   9
HETATM    9  C   UNL     1      63.669   8.567   4.110  1.00  0.00     0.015 A 
HETATM   10  C   UNL     1      62.674   9.533   3.918  1.00  0.00     0.015 A 
HETATM   11  C   UNL     1      61.750   9.394   2.880  1.00  0.00     0.001 A 
HETATM   12  C   UNL     1      61.816   8.291   2.029  1.00  0.00     0.000 A 
HETATM   13  C   UNL     1      62.791   7.316   2.227  1.00  0.00     0.001 A 
HETATM   14  C   UNL     1      63.706   7.442   3.275  1.00  0.00     0.015 A 
ENDBRANCH   7   9
ENDBRANCH   1   7
BRANCH   3  15
HETATM   15  N   UNL     1      65.869   4.978   8.159  1.00  0.00    -0.399 N 
HETATM   16  H   UNL     1      66.578   4.783   8.812  1.00  0.00     0.156 HD
HETATM   17  H   UNL     1      64.965   4.610   8.288  1.00  0.00     0.156 HD
ENDBRANCH   3  15
TORSDOF 3
ENDMDL
MODEL 6
REMARK VINA RESULT:      -5.1      2.675      5.648
REMARK  3 active torsions:
REMARK  status: ('A' for Active; 'I' for Inactive)
REMARK    1  A    between atoms: C_1  and  C_2 
REMARK    2  A    between atoms: C_1  and  C_5 
REMARK    3  A    between atoms: C_6  and  N_7 
ROOT
HETATM    1  C   UNL     1      64.157   8.127   4.274  1.00  0.00     0.017 A 
HETATM    2  C   UNL     1      63.109   8.981   3.902  1.00  0.00     0.044 A 
HETATM    3  C   UNL     1      62.271   8.655   2.834  1.00  0.00     0.026 A 
HETATM    4  C   UNL     1      64.398   6.960   3.543  1.00  0.00     0.015 A 
HETATM    5  C   UNL     1      63.547   6.614   2.495  1.00  0.00     0.003 A 
HETATM    6  C   UNL     1      62.471   7.442   2.170  1.00  0.00     0.029 A 
ENDROOT
BRANCH   1   7
HETATM    7  C   UNL     1      65.027   8.416   5.444  1.00  0.00     0.192 C 
HETATM    8  O   UNL     1      65.105   9.571   5.855  1.00  0.00    -0.287 OA
BRANCH   7   9
HETATM    9  C   UNL     1      65.815   7.348   6.119  1.00  0.00     0.015 A 
HETATM   10  C   UNL     1      65.167   6.544   7.064  1.00  0.00     0.015 A 
HETATM   11  C   UNL     1      65.867   5.530   7.722  1.00  0.00     0.001 A 
HETATM   12  C   UNL     1      67.215   5.314   7.438  1.00  0.00     0.000 A 
HETATM   13  C   UNL     1      67.871   6.123   6.513  1.00  0.00     0.001 A 
HETATM   14  C   UNL     1      67.179   7.149   5.866  1.00  0.00     0.015 A 
ENDBRANCH   7   9
ENDBRANCH   1   7
BRANCH   3  15
HETATM   15  N   UNL     1      61.108   9.400   2.603  1.00  0.00    -0.399 N 
HETATM   16  H   UNL     1      60.834  10.094   3.245  1.00  0.00     0.156 HD
HETATM   17  H   UNL     1      60.565   9.229   1.800  1.00  0.00     0.156 HD
ENDBRANCH   3  15
TORSDOF 3
ENDMDL
MODEL 7
REMARK VINA RESULT:      -5.0      2.844      4.074
REMARK  3 active torsions:
REMARK  status: ('A' for Active; 'I' for Inactive)
REMARK    1  A    between atoms: C_1  and  C_2 
REMARK    2  A    between atoms: C_1  and  C_5 
REMARK    3  A    between atoms: C_6  and  N_7 
ROOT
HETATM    1  C   UNL     1      67.126   6.654   6.539  1.00  0.00     0.017 A 
HETATM    2  C   UNL     1      67.626   5.356   6.370  1.00  0.00     0.044 A 
HETATM    3  C   UNL     1      67.775   4.503   7.466  1.00  0.00     0.026 A 
HETATM    4  C   UNL     1      66.816   7.120   7.820  1.00  0.00     0.015 A 
HETATM    5  C   UNL     1      66.933   6.265   8.914  1.00  0.00     0.003 A 
HETATM    6  C   UNL     1      67.377   4.954   8.727  1.00  0.00     0.029 A 
ENDROOT
BRANCH   1   7
HETATM    7  C   UNL     1      66.899   7.564   5.385  1.00  0.00     0.192 C 
HETATM    8  O   UNL     1      67.828   8.260   4.986  1.00  0.00    -0.287 OA
BRANCH   7   9
HETATM    9  C   UNL     1      65.573   7.663   4.714  1.00  0.00     0.015 A 
HETATM   10  C   UNL     1      64.718   8.705   5.088  1.00  0.00     0.015 A 
HETATM   11  C   UNL     1      63.465   8.836   4.485  1.00  0.00     0.001 A 
HETATM   12  C   UNL     1      63.062   7.928   3.506  1.00  0.00     0.000 A 
HETATM   13  C   UNL     1      63.901   6.877   3.143  1.00  0.00     0.001 A 
HETATM   14  C   UNL     1      65.147   6.732   3.756  1.00  0.00     0.015 A 
ENDBRANCH   7   9
ENDBRANCH   1   7
BRANCH   3  15
HETATM   15  N   UNL     1      68.073   3.149   7.264  1.00  0.00    -0.399 N 
HETATM   16  H   UNL     1      67.368   2.470   7.368  1.00  0.00     0.156 HD
HETATM   17  H   UNL     1      68.988   2.878   7.021  1.00  0.00     0.156 HD
ENDBRANCH   3  15
TORSDOF 3
ENDMDL
MODEL 8
REMARK VINA RESULT:      -4.9      2.147      2.525
REMARK  3 active torsions:
REMARK  status: ('A' for Active; 'I' for Inactive)
REMARK    1  A    between atoms: C_1  and  C_2 
REMARK    2  A    between atoms: C_1  and  C_5 
REMARK    3  A    between atoms: C_6  and  N_7 
ROOT
HETATM    1  C   UNL     1      63.914   7.141   4.543  1.00  0.00     0.017 A 
HETATM    2  C   UNL     1      63.311   5.877   4.476  1.00  0.00     0.044 A 
HETATM    3  C   UNL     1      64.066   4.744   4.167  1.00  0.00     0.026 A 
HETATM    4  C   UNL     1      65.274   7.280   4.253  1.00  0.00     0.015 A 
HETATM    5  C   UNL     1      66.040   6.150   3.974  1.00  0.00     0.003 A 
HETATM    6  C   UNL     1      65.442   4.888   3.967  1.00  0.00     0.029 A 
ENDROOT
BRANCH   1   7
HETATM    7  C   UNL     1      63.149   8.356   4.930  1.00  0.00     0.192 C 
HETATM    8  O   UNL     1      62.907   8.552   6.118  1.00  0.00    -0.287 OA
BRANCH   7   9
HETATM    9  C   UNL     1      62.658   9.329   3.915  1.00  0.00     0.015 A 
HETATM   10  C   UNL     1      62.351  10.628   4.338  1.00  0.00     0.015 A 
HETATM   11  C   UNL     1      61.887  11.574   3.422  1.00  0.00     0.001 A 
HETATM   12  C   UNL     1      61.729  11.229   2.080  1.00  0.00     0.000 A 
HETATM   13  C   UNL     1      62.014   9.932   1.656  1.00  0.00     0.001 A 
HETATM   14  C   UNL     1      62.462   8.978   2.573  1.00  0.00     0.015 A 
ENDBRANCH   7   9
ENDBRANCH   1   7
BRANCH   3  15
HETATM   15  N   UNL     1      63.505   3.469   4.308  1.00  0.00    -0.399 N 
HETATM   16  H   UNL     1      63.025   3.057   3.553  1.00  0.00     0.156 HD
HETATM   17  H   UNL     1      63.588   2.985   5.161  1.00  0.00     0.156 HD
ENDBRANCH   3  15
TORSDOF 3
ENDMDL
MODEL 9
REMARK VINA RESULT:      -4.7      2.543      5.446
REMARK  3 active torsions:
REMARK  status: ('A' for Active; 'I' for Inactive)
REMARK    1  A    between atoms: C_1  and  C_2 
REMARK    2  A    between atoms: C_1  and  C_5 
REMARK    3  A    between atoms: C_6  and  N_7 
ROOT
HETATM    1  C   UNL     1      62.357   7.663   4.690  1.00  0.00     0.017 A 
HETATM    2  C   UNL     1      62.367   8.665   3.709  1.00  0.00     0.044 A 
HETATM    3  C   UNL     1      61.315   8.779   2.798  1.00  0.00     0.026 A 
HETATM    4  C   UNL     1      61.310   6.738   4.730  1.00  0.00     0.015 A 
HETATM    5  C   UNL     1      60.243   6.863   3.843  1.00  0.00     0.003 A 
HETATM    6  C   UNL     1      60.234   7.900   2.908  1.00  0.00     0.029 A 
ENDROOT
BRANCH   1   7
HETATM    7  C   UNL     1      63.431   7.555   5.712  1.00  0.00     0.192 C 
HETATM    8  O   UNL     1      63.125   7.590   6.901  1.00  0.00    -0.287 OA
BRANCH   7   9
HETATM    9  C   UNL     1      64.865   7.421   5.332  1.00  0.00     0.015 A 
HETATM   10  C   UNL     1      65.195   6.547   4.290  1.00  0.00     0.015 A 
HETATM   11  C   UNL     1      66.527   6.389   3.901  1.00  0.00     0.001 A 
HETATM   12  C   UNL     1      67.534   7.104   4.548  1.00  0.00     0.000 A 
HETATM   13  C   UNL     1      67.214   7.961   5.600  1.00  0.00     0.001 A 
HETATM   14  C   UNL     1      65.886   8.108   6.004  1.00  0.00     0.015 A 
ENDBRANCH   7   9
ENDBRANCH   1   7
BRANCH   3  15
HETATM   15  N   UNL     1      61.229   9.900   1.964  1.00  0.00    -0.399 N 
HETATM   16  H   UNL     1      61.097   9.784   0.995  1.00  0.00     0.156 HD
HETATM   17  H   UNL     1      61.304  10.804   2.346  1.00  0.00     0.156 HD
ENDBRANCH   3  15
TORSDOF 3
ENDMDL
