MODEL 1
REMARK VINA RESULT:      -5.1      0.000      0.000
REMARK  2 active torsions:
REMARK  status: ('A' for Active; 'I' for Inactive)
REMARK    1  A    between atoms: N_1  and  C_2 
REMARK    2  A    between atoms: C_3  and  N_4 
ROOT
HETATM    1  C   UNL     1      63.138   9.264   4.547  1.00  0.00     0.056 A 
HETATM    2  C   UNL     1      62.847  10.626   4.840  1.00  0.00     0.052 A 
HETATM    3  C   UNL     1      62.752   8.794   3.277  1.00  0.00     0.031 A 
HETATM    4  C   UNL     1      62.075  11.395   3.952  1.00  0.00     0.031 A 
HETATM    5  C   UNL     1      62.059   9.598   2.363  1.00  0.00     0.002 A 
HETATM    6  C   UNL     1      61.703  10.894   2.710  1.00  0.00     0.002 A 
ENDROOT
BRANCH   1   7
HETATM    7  N   UNL     1      63.817   8.431   5.438  1.00  0.00    -0.379 N 
HETATM    8  C   UNL     1      65.280   8.346   5.450  1.00  0.00     0.123 C 
HETATM    9  C   UNL     1      65.748   6.950   5.040  1.00  0.00     0.020 C 
HETATM   10  C   UNL     1      65.095   5.883   5.914  1.00  0.00     0.003 C 
HETATM   11  C   UNL     1      63.578   6.002   5.842  1.00  0.00     0.020 C 
HETATM   12  C   UNL     1      63.092   7.406   6.200  1.00  0.00     0.123 C 
ENDBRANCH   1   7
BRANCH   2  13
HETATM   13  N   UNL     1      63.200  11.206   6.082  1.00  0.00    -0.397 N 
HETATM   14  H   UNL     1      64.106  11.076   6.446  1.00  0.00     0.156 HD
HETATM   15  H   UNL     1      62.540  11.737   6.583  1.00  0.00     0.156 HD
ENDBRANCH   2  13
TORSDOF 2
ENDMDL
MODEL 2
REMARK VINA RESULT:      -4.7      1.041      2.048
REMARK  2 active torsions:
REMARK  status: ('A' for Active; 'I' for Inactive)
REMARK    1  A    between atoms: N_1  and  C_2 
REMARK    2  A    between atoms: C_3  and  N_4 
ROOT
HETATM    1  C   UNL     1      62.893   9.267   4.080  1.00  0.00     0.056 A 
HETATM    2  C   UNL     1      62.706   8.668   2.803  1.00  0.00     0.052 A 
HETATM    3  C   UNL     1      62.413  10.581   4.238  1.00  0.00     0.031 A 
HETATM    4  C   UNL     1      62.208   9.425   1.729  1.00  0.00     0.031 A 
HETATM    5  C   UNL     1      61.837  11.297   3.182  1.00  0.00     0.002 A 
HETATM    6  C   UNL     1      61.752  10.724   1.921  1.00  0.00     0.002 A 
ENDROOT
BRANCH   1   7
HETATM    7  N   UNL     1      63.473   8.587   5.153  1.00  0.00    -0.379 N 
HETATM    8  C   UNL     1      64.927   8.494   5.310  1.00  0.00     0.123 C 
HETATM    9  C   UNL     1      65.399   7.047   5.177  1.00  0.00     0.020 C 
HETATM   10  C   UNL     1      64.648   6.143   6.151  1.00  0.00     0.003 C 
HETATM   11  C   UNL     1      63.147   6.260   5.926  1.00  0.00     0.020 C 
HETATM   12  C   UNL     1      62.662   7.707   6.004  1.00  0.00     0.123 C 
ENDBRANCH   1   7
BRANCH   2  13
HETATM   13  N   UNL     1      63.140   7.348   2.536  1.00  0.00    -0.397 N 
HETATM   14  H   UNL     1      63.882   6.959   3.055  1.00  0.00     0.156 HD
HETATM   15  H   UNL     1      62.702   6.818   1.832  1.00  0.00     0.156 HD
ENDBRANCH   2  13
TORSDOF 2
ENDMDL
MODEL 3
REMARK VINA RESULT:      -4.5      1.486      2.753
REMARK  2 active torsions:
REMARK  status: ('A' for Active; 'I' for Inactive)
REMARK    1  A    between atoms: N_1  and  C_2 
REMARK    2  A    between atoms: C_3  and  N_4 
ROOT
HETATM    1  C   UNL     1      63.796   8.538   4.448  1.00  0.00     0.056 A 
HETATM    2  C   UNL     1      63.064   8.347   3.243  1.00  0.00     0.052 A 
HETATM    3  C   UNL     1      63.489   9.690   5.198  1.00  0.00     0.031 A 
HETATM    4  C   UNL     1      62.199   9.348   2.770  1.00  0.00     0.031 A 
HETATM    5  C   UNL     1      62.558  10.639   4.759  1.00  0.00     0.002 A 
HETATM    6  C   UNL     1      61.927  10.477   3.534  1.00  0.00     0.002 A 
ENDROOT
BRANCH   1   7
HETATM    7  N   UNL     1      64.739   7.618   4.911  1.00  0.00    -0.379 N 
HETATM    8  C   UNL     1      64.360   6.490   5.766  1.00  0.00     0.123 C 
HETATM    9  C   UNL     1      64.991   6.620   7.152  1.00  0.00     0.020 C 
HETATM   10  C   UNL     1      66.503   6.786   7.044  1.00  0.00     0.003 C 
HETATM   11  C   UNL     1      66.839   7.986   6.167  1.00  0.00     0.020 C 
HETATM   12  C   UNL     1      66.176   7.900   4.792  1.00  0.00     0.123 C 
ENDBRANCH   1   7
BRANCH   2  13
HETATM   13  N   UNL     1      63.284   7.218   2.417  1.00  0.00    -0.397 N 
HETATM   14  H   UNL     1      62.759   7.103   1.592  1.00  0.00     0.156 HD
HETATM   15  H   UNL     1      63.961   6.549   2.669  1.00  0.00     0.156 HD
ENDBRANCH   2  13
TORSDOF 2
ENDMDL
MODEL 4
REMARK VINA RESULT:      -4.3      1.609      2.727
REMARK  2 active torsions:
REMARK  status: ('A' for Active; 'I' for Inactive)
REMARK    1  A    between atoms: N_1  and  C_2 
REMARK    2  A    between atoms: C_3  and  N_4 
ROOT
HETATM    1  C   UNL     1      62.804   8.959   3.440  1.00  0.00     0.056 A 
HETATM    2  C   UNL     1      62.393   9.106   2.086  1.00  0.00     0.052 A 
HETATM    3  C   UNL     1      62.539  10.039   4.303  1.00  0.00     0.031 A 
HETATM    4  C   UNL     1      61.894  10.337   1.625  1.00  0.00     0.031 A 
HETATM    5  C   UNL     1      61.958  11.230   3.849  1.00  0.00     0.002 A 
HETATM    6  C   UNL     1      61.654  11.386   2.505  1.00  0.00     0.002 A 
ENDROOT
BRANCH   1   7
HETATM    7  N   UNL     1      63.396   7.790   3.924  1.00  0.00    -0.379 N 
HETATM    8  C   UNL     1      62.598   6.614   4.283  1.00  0.00     0.123 C 
HETATM    9  C   UNL     1      62.692   6.328   5.781  1.00  0.00     0.020 C 
HETATM   10  C   UNL     1      64.148   6.198   6.216  1.00  0.00     0.003 C 
HETATM   11  C   UNL     1      64.922   7.456   5.842  1.00  0.00     0.020 C 
HETATM   12  C   UNL     1      64.799   7.789   4.356  1.00  0.00     0.123 C 
ENDBRANCH   1   7
BRANCH   2  13
HETATM   13  N   UNL     1      62.601   8.079   1.135  1.00  0.00    -0.397 N 
HETATM   14  H   UNL     1      63.171   8.243   0.349  1.00  0.00     0.156 HD
HETATM   15  H   UNL     1      62.175   7.200   1.259  1.00  0.00     0.156 HD
ENDBRANCH   2  13
TORSDOF 2
ENDMDL
MODEL 5
REMARK VINA RESULT:      -4.3      2.635      4.440
REMARK  2 active torsions:
REMARK  status: ('A' for Active; 'I' for Inactive)
REMARK    1  A    between atoms: N_1  and  C_2 
REMARK    2  A    between atoms: C_3  and  N_4 
ROOT
HETATM    1  C   UNL     1      61.927   9.275   3.017  1.00  0.00     0.056 A 
HETATM    2  C   UNL     1      61.859  10.677   3.250  1.00  0.00     0.052 A 
HETATM    3  C   UNL     1      62.456   8.486   4.056  1.00  0.00     0.031 A 
HETATM    4  C   UNL     1      62.439  11.235   4.402  1.00  0.00     0.031 A 
HETATM    5  C   UNL     1      62.952   9.047   5.240  1.00  0.00     0.002 A 
HETATM    6  C   UNL     1      62.961  10.425   5.404  1.00  0.00     0.002 A 
ENDROOT
BRANCH   1   7
HETATM    7  N   UNL     1      61.452   8.683   1.845  1.00  0.00    -0.379 N 
HETATM    8  C   UNL     1      60.206   7.912   1.821  1.00  0.00     0.123 C 
HETATM    9  C   UNL     1      60.479   6.444   1.501  1.00  0.00     0.020 C 
HETATM   10  C   UNL     1      61.270   6.312   0.203  1.00  0.00     0.003 C 
HETATM   11  C   UNL     1      62.565   7.109   0.294  1.00  0.00     0.020 C 
HETATM   12  C   UNL     1      62.317   8.571   0.663  1.00  0.00     0.123 C 
ENDBRANCH   1   7
BRANCH   2  13
HETATM   13  N   UNL     1      61.336  11.562   2.278  1.00  0.00    -0.397 N 
HETATM   14  H   UNL     1      61.105  12.487   2.528  1.00  0.00     0.156 HD
HETATM   15  H   UNL     1      61.201  11.254   1.353  1.00  0.00     0.156 HD
ENDBRANCH   2  13
TORSDOF 2
ENDMDL
MODEL 6
REMARK VINA RESULT:      -4.3      2.043      4.708
REMARK  2 active torsions:
REMARK  status: ('A' for Active; 'I' for Inactive)
REMARK    1  A    between atoms: N_1  and  C_2 
REMARK    2  A    between atoms: C_3  and  N_4 
ROOT
HETATM    1  C   UNL     1      61.768   7.704   4.497  1.00  0.00     0.056 A 
HETATM    2  C   UNL     1      62.338   7.222   5.709  1.00  0.00     0.052 A 
HETATM    3  C   UNL     1      60.511   7.181   4.138  1.00  0.00     0.031 A 
HETATM    4  C   UNL     1      61.730   6.166   6.409  1.00  0.00     0.031 A 
HETATM    5  C   UNL     1      59.872   6.190   4.892  1.00  0.00     0.002 A 
HETATM    6  C   UNL     1      60.492   5.668   6.019  1.00  0.00     0.002 A 
ENDROOT
BRANCH   1   7
HETATM    7  N   UNL     1      62.382   8.684   3.714  1.00  0.00    -0.379 N 
HETATM    8  C   UNL     1      62.533  10.063   4.185  1.00  0.00     0.123 C 
HETATM    9  C   UNL     1      61.717  11.026   3.324  1.00  0.00     0.020 C 
HETATM   10  C   UNL     1      62.078  10.870   1.849  1.00  0.00     0.003 C 
HETATM   11  C   UNL     1      61.877   9.426   1.409  1.00  0.00     0.020 C 
HETATM   12  C   UNL     1      62.646   8.442   2.290  1.00  0.00     0.123 C 
ENDBRANCH   1   7
BRANCH   2  13
HETATM   13  N   UNL     1      63.592   7.687   6.171  1.00  0.00    -0.397 N 
HETATM   14  H   UNL     1      63.645   8.515   6.703  1.00  0.00     0.156 HD
HETATM   15  H   UNL     1      64.412   7.185   5.960  1.00  0.00     0.156 HD
ENDBRANCH   2  13
TORSDOF 2
ENDMDL
MODEL 7
REMARK VINA RESULT:      -4.3      1.553      4.708
REMARK  2 active torsions:
REMARK  status: ('A' for Active; 'I' for Inactive)
REMARK    1  A    between atoms: N_1  and  C_2 
REMARK    2  A    between atoms: C_3  and  N_4 
ROOT
HETATM    1  C   UNL     1      63.487   7.951   4.804  1.00  0.00     0.056 A 
HETATM    2  C   UNL     1      63.286   7.007   5.850  1.00  0.00     0.052 A 
HETATM    3  C   UNL     1      64.802   8.419   4.618  1.00  0.00     0.031 A 
HETATM    4  C   UNL     1      64.331   6.694   6.735  1.00  0.00     0.031 A 
HETATM    5  C   UNL     1      65.856   8.031   5.454  1.00  0.00     0.002 A 
HETATM    6  C   UNL     1      65.616   7.183   6.526  1.00  0.00     0.002 A 
ENDROOT
BRANCH   1   7
HETATM    7  N   UNL     1      62.457   8.368   3.958  1.00  0.00    -0.379 N 
HETATM    8  C   UNL     1      62.152   7.664   2.710  1.00  0.00     0.123 C 
HETATM    9  C   UNL     1      62.423   8.555   1.500  1.00  0.00     0.020 C 
HETATM   10  C   UNL     1      61.670   9.877   1.622  1.00  0.00     0.003 C 
HETATM   11  C   UNL     1      62.046  10.577   2.921  1.00  0.00     0.020 C 
HETATM   12  C   UNL     1      61.828   9.683   4.142  1.00  0.00     0.123 C 
ENDBRANCH   1   7
BRANCH   2  13
HETATM   13  N   UNL     1      62.007   6.464   6.118  1.00  0.00    -0.397 N 
HETATM   14  H   UNL     1      61.624   5.785   5.515  1.00  0.00     0.156 HD
HETATM   15  H   UNL     1      61.499   6.766   6.905  1.00  0.00     0.156 HD
ENDBRANCH   2  13
TORSDOF 2
ENDMDL
MODEL 8
REMARK VINA RESULT:      -4.0      2.132      5.417
REMARK  2 active torsions:
REMARK  status: ('A' for Active; 'I' for Inactive)
REMARK    1  A    between atoms: N_1  and  C_2 
REMARK    2  A    between atoms: C_3  and  N_4 
ROOT
HETATM    1  C   UNL     1      65.906   6.880   5.787  1.00  0.00     0.056 A 
HETATM    2  C   UNL     1      67.329   6.896   5.808  1.00  0.00     0.052 A 
HETATM    3  C   UNL     1      65.265   6.207   6.844  1.00  0.00     0.031 A 
HETATM    4  C   UNL     1      68.033   6.139   6.760  1.00  0.00     0.031 A 
HETATM    5  C   UNL     1      65.980   5.529   7.838  1.00  0.00     0.002 A 
HETATM    6  C   UNL     1      67.366   5.479   7.785  1.00  0.00     0.002 A 
ENDROOT
BRANCH   1   7
HETATM    7  N   UNL     1      65.160   7.537   4.805  1.00  0.00    -0.379 N 
HETATM    8  C   UNL     1      64.536   8.838   5.054  1.00  0.00     0.123 C 
HETATM    9  C   UNL     1      63.012   8.731   5.001  1.00  0.00     0.020 C 
HETATM   10  C   UNL     1      62.559   8.110   3.683  1.00  0.00     0.003 C 
HETATM   11  C   UNL     1      63.218   6.750   3.490  1.00  0.00     0.020 C 
HETATM   12  C   UNL     1      64.741   6.827   3.589  1.00  0.00     0.123 C 
ENDBRANCH   1   7
BRANCH   2  13
HETATM   13  N   UNL     1      68.075   7.553   4.801  1.00  0.00    -0.397 N 
HETATM   14  H   UNL     1      68.250   8.520   4.869  1.00  0.00     0.156 HD
HETATM   15  H   UNL     1      68.418   7.043   4.031  1.00  0.00     0.156 HD
ENDBRANCH   2  13
TORSDOF 2
ENDMDL
MODEL 9
REMARK VINA RESULT:      -3.9      2.073      3.001
REMARK  2 active torsions:
REMARK  status: ('A' for Active; 'I' for Inactive)
REMARK    1  A    between atoms: N_1  and  C_2 
REMARK    2  A    between atoms: C_3  and  N_4 
ROOT
HETATM    1  C   UNL     1      62.486   8.700   3.804  1.00  0.00     0.056 A 
HETATM    2  C   UNL     1      61.789   9.662   3.020  1.00  0.00     0.052 A 
HETATM    3  C   UNL     1      63.039   9.154   5.016  1.00  0.00     0.031 A 
HETATM    4  C   UNL     1      61.802  11.020   3.384  1.00  0.00     0.031 A 
HETATM    5  C   UNL     1      62.969  10.495   5.412  1.00  0.00     0.002 A 
HETATM    6  C   UNL     1      62.366  11.432   4.585  1.00  0.00     0.002 A 
ENDROOT
BRANCH   1   7
HETATM    7  N   UNL     1      62.584   7.357   3.434  1.00  0.00    -0.379 N 
HETATM    8  C   UNL     1      61.726   6.329   4.029  1.00  0.00     0.123 C 
HETATM    9  C   UNL     1      62.551   5.335   4.845  1.00  0.00     0.020 C 
HETATM   10  C   UNL     1      63.671   4.739   3.998  1.00  0.00     0.003 C 
HETATM   11  C   UNL     1      64.545   5.849   3.428  1.00  0.00     0.020 C 
HETATM   12  C   UNL     1      63.732   6.883   2.650  1.00  0.00     0.123 C 
ENDBRANCH   1   7
BRANCH   2  13
HETATM   13  N   UNL     1      61.185   9.313   1.788  1.00  0.00    -0.397 N 
HETATM   14  H   UNL     1      60.633   8.499   1.724  1.00  0.00     0.156 HD
HETATM   15  H   UNL     1      61.317   9.883   0.996  1.00  0.00     0.156 HD
ENDBRANCH   2  13
TORSDOF 2
ENDMDL
