MODEL 1
REMARK VINA RESULT:      -5.4      0.000      0.000
REMARK  6 active torsions:
REMARK  status: ('A' for Active; 'I' for Inactive)
REMARK    1  A    between atoms: C_1  and  C_2 
REMARK    2  A    between atoms: C_3  and  O_7 
REMARK    3  A    between atoms: C_4  and  O_6 
REMARK    4  A    between atoms: O_6  and  C_8 
REMARK    5  A    between atoms: C_8  and  C_13 
REMARK    6  A    between atoms: C_13  and  C_14 
ROOT
HETATM    1  C   UNL     1      62.247  10.044   3.546  1.00  0.00     0.076 A 
HETATM    2  C   UNL     1      62.055  10.491   2.217  1.00  0.00     0.082 A 
HETATM    3  C   UNL     1      62.210   8.650   3.785  1.00  0.00     0.085 A 
HETATM    4  C   UNL     1      61.722   8.254   1.416  1.00  0.00     0.005 A 
HETATM    5  C   UNL     1      61.792   9.609   1.168  1.00  0.00     0.037 A 
HETATM    6  C   UNL     1      61.935   7.779   2.709  1.00  0.00     0.038 A 
ENDROOT
BRANCH   3   7
HETATM    7  O   UNL     1      62.451   8.185   5.048  1.00  0.00    -0.350 OA
BRANCH   7   8
HETATM    8  C   UNL     1      63.498   7.231   5.269  1.00  0.00     0.176 C 
BRANCH   8   9
HETATM    9  C   UNL     1      64.832   7.758   4.729  1.00  0.00     0.030 C 
BRANCH   9  10
HETATM   10  C   UNL     1      65.894   7.947   5.831  1.00  0.00    -0.021 C 
HETATM   11  C   UNL     1      65.689   6.919   6.946  1.00  0.00     0.009 C 
HETATM   12  C   UNL     1      67.315   7.820   5.280  1.00  0.00     0.009 C 
ENDBRANCH   9  10
ENDBRANCH   8   9
ENDBRANCH   7   8
ENDBRANCH   3   7
BRANCH   1  13
HETATM   13  C   UNL     1      62.447  11.115   4.595  1.00  0.00     0.161 C 
HETATM   14  O   UNL     1      61.822  12.174   4.467  1.00  0.00    -0.293 OA
HETATM   15  C   UNL     1      63.310  10.951   5.817  1.00  0.00     0.097 C 
ENDBRANCH   1  13
BRANCH   2  16
HETATM   16  O   UNL     1      62.106  11.809   1.831  1.00  0.00    -0.360 OA
HETATM   17  H   UNL     1      61.580  12.109   1.117  1.00  0.00     0.217 HD
ENDBRANCH   2  16
TORSDOF 6
ENDMDL
MODEL 2
REMARK VINA RESULT:      -5.3      2.003      4.519
REMARK  6 active torsions:
REMARK  status: ('A' for Active; 'I' for Inactive)
REMARK    1  A    between atoms: C_1  and  C_2 
REMARK    2  A    between atoms: C_3  and  O_7 
REMARK    3  A    between atoms: C_4  and  O_6 
REMARK    4  A    between atoms: O_6  and  C_8 
REMARK    5  A    between atoms: C_8  and  C_13 
REMARK    6  A    between atoms: C_13  and  C_14 
ROOT
HETATM    1  C   UNL     1      63.185   9.368   4.545  1.00  0.00     0.076 A 
HETATM    2  C   UNL     1      62.809  10.628   5.070  1.00  0.00     0.082 A 
HETATM    3  C   UNL     1      62.831   9.081   3.206  1.00  0.00     0.085 A 
HETATM    4  C   UNL     1      61.704  11.250   3.034  1.00  0.00     0.005 A 
HETATM    5  C   UNL     1      62.076  11.553   4.327  1.00  0.00     0.037 A 
HETATM    6  C   UNL     1      62.084  10.030   2.476  1.00  0.00     0.038 A 
ENDROOT
BRANCH   3   7
HETATM    7  O   UNL     1      63.233   7.896   2.651  1.00  0.00    -0.350 OA
BRANCH   7   8
HETATM    8  C   UNL     1      62.358   7.193   1.759  1.00  0.00     0.176 C 
BRANCH   8   9
HETATM    9  C   UNL     1      61.365   6.331   2.544  1.00  0.00     0.030 C 
BRANCH   9  10
HETATM   10  C   UNL     1      59.903   6.789   2.371  1.00  0.00    -0.021 C 
HETATM   11  C   UNL     1      59.453   7.596   3.590  1.00  0.00     0.009 C 
HETATM   12  C   UNL     1      59.717   7.632   1.108  1.00  0.00     0.009 C 
ENDBRANCH   9  10
ENDBRANCH   8   9
ENDBRANCH   7   8
ENDBRANCH   3   7
BRANCH   1  13
HETATM   13  C   UNL     1      63.911   8.434   5.487  1.00  0.00     0.161 C 
HETATM   14  O   UNL     1      65.057   8.741   5.837  1.00  0.00    -0.293 OA
HETATM   15  C   UNL     1      63.306   7.188   6.076  1.00  0.00     0.097 C 
ENDBRANCH   1  13
BRANCH   2  16
HETATM   16  O   UNL     1      63.120  11.058   6.338  1.00  0.00    -0.360 OA
HETATM   17  H   UNL     1      63.815  11.671   6.467  1.00  0.00     0.217 HD
ENDBRANCH   2  16
TORSDOF 6
ENDMDL
MODEL 3
REMARK VINA RESULT:      -5.1      2.158      4.949
REMARK  6 active torsions:
REMARK  status: ('A' for Active; 'I' for Inactive)
REMARK    1  A    between atoms: C_1  and  C_2 
REMARK    2  A    between atoms: C_3  and  O_7 
REMARK    3  A    between atoms: C_4  and  O_6 
REMARK    4  A    between atoms: O_6  and  C_8 
REMARK    5  A    between atoms: C_8  and  C_13 
REMARK    6  A    between atoms: C_13  and  C_14 
ROOT
HETATM    1  C   UNL     1      64.384   7.773   4.998  1.00  0.00     0.076 A 
HETATM    2  C   UNL     1      65.724   8.020   5.381  1.00  0.00     0.082 A 
HETATM    3  C   UNL     1      64.153   6.800   3.997  1.00  0.00     0.085 A 
HETATM    4  C   UNL     1      66.569   6.451   3.775  1.00  0.00     0.005 A 
HETATM    5  C   UNL     1      66.801   7.372   4.775  1.00  0.00     0.037 A 
HETATM    6  C   UNL     1      65.259   6.162   3.395  1.00  0.00     0.038 A 
ENDROOT
BRANCH   3   7
HETATM    7  O   UNL     1      62.866   6.495   3.649  1.00  0.00    -0.350 OA
BRANCH   7   8
HETATM    8  C   UNL     1      62.369   6.868   2.357  1.00  0.00     0.176 C 
BRANCH   8   9
HETATM    9  C   UNL     1      61.389   8.041   2.473  1.00  0.00     0.030 C 
BRANCH   9  10
HETATM   10  C   UNL     1      61.469   9.011   1.277  1.00  0.00    -0.021 C 
HETATM   11  C   UNL     1      61.913  10.397   1.748  1.00  0.00     0.009 C 
HETATM   12  C   UNL     1      62.433   8.509   0.200  1.00  0.00     0.009 C 
ENDBRANCH   9  10
ENDBRANCH   8   9
ENDBRANCH   7   8
ENDBRANCH   3   7
BRANCH   1  13
HETATM   13  C   UNL     1      63.322   8.602   5.685  1.00  0.00     0.161 C 
HETATM   14  O   UNL     1      62.818   8.154   6.721  1.00  0.00    -0.293 OA
HETATM   15  C   UNL     1      62.884   9.967   5.224  1.00  0.00     0.097 C 
ENDBRANCH   1  13
BRANCH   2  16
HETATM   16  O   UNL     1      66.093   8.906   6.365  1.00  0.00    -0.360 OA
HETATM   17  H   UNL     1      65.566   9.660   6.538  1.00  0.00     0.217 HD
ENDBRANCH   2  16
TORSDOF 6
ENDMDL
MODEL 4
REMARK VINA RESULT:      -5.0      1.517      3.044
REMARK  6 active torsions:
REMARK  status: ('A' for Active; 'I' for Inactive)
REMARK    1  A    between atoms: C_1  and  C_2 
REMARK    2  A    between atoms: C_3  and  O_7 
REMARK    3  A    between atoms: C_4  and  O_6 
REMARK    4  A    between atoms: O_6  and  C_8 
REMARK    5  A    between atoms: C_8  and  C_13 
REMARK    6  A    between atoms: C_13  and  C_14 
ROOT
HETATM    1  C   UNL     1      62.354   9.310   2.856  1.00  0.00     0.076 A 
HETATM    2  C   UNL     1      61.975  10.595   3.312  1.00  0.00     0.082 A 
HETATM    3  C   UNL     1      63.147   8.513   3.714  1.00  0.00     0.085 A 
HETATM    4  C   UNL     1      63.198  10.330   5.358  1.00  0.00     0.005 A 
HETATM    5  C   UNL     1      62.395  11.099   4.544  1.00  0.00     0.037 A 
HETATM    6  C   UNL     1      63.565   9.047   4.952  1.00  0.00     0.038 A 
ENDROOT
BRANCH   3   7
HETATM    7  O   UNL     1      63.479   7.243   3.327  1.00  0.00    -0.350 OA
BRANCH   7   8
HETATM    8  C   UNL     1      64.125   6.360   4.252  1.00  0.00     0.176 C 
BRANCH   8   9
HETATM    9  C   UNL     1      65.604   6.187   3.891  1.00  0.00     0.030 C 
BRANCH   9  10
HETATM   10  C   UNL     1      66.550   6.505   5.066  1.00  0.00    -0.021 C 
HETATM   11  C   UNL     1      67.499   5.331   5.315  1.00  0.00     0.009 C 
HETATM   12  C   UNL     1      67.369   7.772   4.810  1.00  0.00     0.009 C 
ENDBRANCH   9  10
ENDBRANCH   8   9
ENDBRANCH   7   8
ENDBRANCH   3   7
BRANCH   1  13
HETATM   13  C   UNL     1      61.889   8.922   1.470  1.00  0.00     0.161 C 
HETATM   14  O   UNL     1      62.498   9.396   0.503  1.00  0.00    -0.293 OA
HETATM   15  C   UNL     1      60.776   7.948   1.191  1.00  0.00     0.097 C 
ENDBRANCH   1  13
BRANCH   2  16
HETATM   16  O   UNL     1      61.174  11.459   2.605  1.00  0.00    -0.360 OA
HETATM   17  H   UNL     1      60.915  11.247   1.730  1.00  0.00     0.217 HD
ENDBRANCH   2  16
TORSDOF 6
ENDMDL
MODEL 5
REMARK VINA RESULT:      -5.0      1.941      3.971
REMARK  6 active torsions:
REMARK  status: ('A' for Active; 'I' for Inactive)
REMARK    1  A    between atoms: C_1  and  C_2 
REMARK    2  A    between atoms: C_3  and  O_7 
REMARK    3  A    between atoms: C_4  and  O_6 
REMARK    4  A    between atoms: O_6  and  C_8 
REMARK    5  A    between atoms: C_8  and  C_13 
REMARK    6  A    between atoms: C_13  and  C_14 
ROOT
HETATM    1  C   UNL     1      62.342   9.294   2.831  1.00  0.00     0.076 A 
HETATM    2  C   UNL     1      61.953  10.581   3.275  1.00  0.00     0.082 A 
HETATM    3  C   UNL     1      63.117   8.501   3.709  1.00  0.00     0.085 A 
HETATM    4  C   UNL     1      63.131  10.324   5.348  1.00  0.00     0.005 A 
HETATM    5  C   UNL     1      62.345  11.089   4.513  1.00  0.00     0.037 A 
HETATM    6  C   UNL     1      63.507   9.040   4.954  1.00  0.00     0.038 A 
ENDROOT
BRANCH   3   7
HETATM    7  O   UNL     1      63.457   7.230   3.334  1.00  0.00    -0.350 OA
BRANCH   7   8
HETATM    8  C   UNL     1      63.306   6.147   4.261  1.00  0.00     0.176 C 
BRANCH   8   9
HETATM    9  C   UNL     1      61.996   5.395   4.003  1.00  0.00     0.030 C 
BRANCH   9  10
HETATM   10  C   UNL     1      60.901   5.726   5.037  1.00  0.00    -0.021 C 
HETATM   11  C   UNL     1      61.532   6.255   6.327  1.00  0.00     0.009 C 
HETATM   12  C   UNL     1      59.905   6.757   4.502  1.00  0.00     0.009 C 
ENDBRANCH   9  10
ENDBRANCH   8   9
ENDBRANCH   7   8
ENDBRANCH   3   7
BRANCH   1  13
HETATM   13  C   UNL     1      61.908   8.902   1.436  1.00  0.00     0.161 C 
HETATM   14  O   UNL     1      62.523   9.390   0.481  1.00  0.00    -0.293 OA
HETATM   15  C   UNL     1      60.819   7.907   1.137  1.00  0.00     0.097 C 
ENDBRANCH   1  13
BRANCH   2  16
HETATM   16  O   UNL     1      61.167  11.442   2.547  1.00  0.00    -0.360 OA
HETATM   17  H   UNL     1      60.902  12.260   2.917  1.00  0.00     0.217 HD
ENDBRANCH   2  16
TORSDOF 6
ENDMDL
MODEL 6
REMARK VINA RESULT:      -4.9      1.759      3.317
REMARK  6 active torsions:
REMARK  status: ('A' for Active; 'I' for Inactive)
REMARK    1  A    between atoms: C_1  and  C_2 
REMARK    2  A    between atoms: C_3  and  O_7 
REMARK    3  A    between atoms: C_4  and  O_6 
REMARK    4  A    between atoms: O_6  and  C_8 
REMARK    5  A    between atoms: C_8  and  C_13 
REMARK    6  A    between atoms: C_13  and  C_14 
ROOT
HETATM    1  C   UNL     1      62.666   8.563   3.961  1.00  0.00     0.076 A 
HETATM    2  C   UNL     1      61.847   9.471   3.248  1.00  0.00     0.082 A 
HETATM    3  C   UNL     1      63.354   9.049   5.097  1.00  0.00     0.085 A 
HETATM    4  C   UNL     1      62.443  11.289   4.695  1.00  0.00     0.005 A 
HETATM    5  C   UNL     1      61.740  10.815   3.607  1.00  0.00     0.037 A 
HETATM    6  C   UNL     1      63.236  10.414   5.437  1.00  0.00     0.038 A 
ENDROOT
BRANCH   3   7
HETATM    7  O   UNL     1      64.105   8.182   5.842  1.00  0.00    -0.350 OA
BRANCH   7   8
HETATM    8  C   UNL     1      65.535   8.205   5.738  1.00  0.00     0.176 C 
BRANCH   8   9
HETATM    9  C   UNL     1      66.167   7.276   6.780  1.00  0.00     0.030 C 
BRANCH   9  10
HETATM   10  C   UNL     1      66.742   5.985   6.163  1.00  0.00    -0.021 C 
HETATM   11  C   UNL     1      67.210   6.246   4.730  1.00  0.00     0.009 C 
HETATM   12  C   UNL     1      67.910   5.433   6.983  1.00  0.00     0.009 C 
ENDBRANCH   9  10
ENDBRANCH   8   9
ENDBRANCH   7   8
ENDBRANCH   3   7
BRANCH   1  13
HETATM   13  C   UNL     1      62.746   7.155   3.415  1.00  0.00     0.161 C 
HETATM   14  O   UNL     1      61.718   6.467   3.434  1.00  0.00    -0.293 OA
HETATM   15  C   UNL     1      63.980   6.558   2.792  1.00  0.00     0.097 C 
ENDBRANCH   1  13
BRANCH   2  16
HETATM   16  O   UNL     1      61.091   9.130   2.152  1.00  0.00    -0.360 OA
HETATM   17  H   UNL     1      61.370   9.379   1.294  1.00  0.00     0.217 HD
ENDBRANCH   2  16
TORSDOF 6
ENDMDL
MODEL 7
REMARK VINA RESULT:      -4.8      1.900      2.585
REMARK  6 active torsions:
REMARK  status: ('A' for Active; 'I' for Inactive)
REMARK    1  A    between atoms: C_1  and  C_2 
REMARK    2  A    between atoms: C_3  and  O_7 
REMARK    3  A    between atoms: C_4  and  O_6 
REMARK    4  A    between atoms: O_6  and  C_8 
REMARK    5  A    between atoms: C_8  and  C_13 
REMARK    6  A    between atoms: C_13  and  C_14 
ROOT
HETATM    1  C   UNL     1      62.966   9.084   3.846  1.00  0.00     0.076 A 
HETATM    2  C   UNL     1      62.284  10.317   3.714  1.00  0.00     0.082 A 
HETATM    3  C   UNL     1      63.038   8.245   2.709  1.00  0.00     0.085 A 
HETATM    4  C   UNL     1      61.701   9.855   1.434  1.00  0.00     0.005 A 
HETATM    5  C   UNL     1      61.657  10.695   2.526  1.00  0.00     0.037 A 
HETATM    6  C   UNL     1      62.390   8.646   1.521  1.00  0.00     0.038 A 
ENDROOT
BRANCH   3   7
HETATM    7  O   UNL     1      63.742   7.074   2.788  1.00  0.00    -0.350 OA
BRANCH   7   8
HETATM    8  C   UNL     1      63.051   5.841   3.025  1.00  0.00     0.176 C 
BRANCH   8   9
HETATM    9  C   UNL     1      63.977   4.825   3.702  1.00  0.00     0.030 C 
BRANCH   9  10
HETATM   10  C   UNL     1      65.249   5.470   4.290  1.00  0.00    -0.021 C 
HETATM   11  C   UNL     1      65.409   5.080   5.761  1.00  0.00     0.009 C 
HETATM   12  C   UNL     1      66.504   5.061   3.518  1.00  0.00     0.009 C 
ENDBRANCH   9  10
ENDBRANCH   8   9
ENDBRANCH   7   8
ENDBRANCH   3   7
BRANCH   1  13
HETATM   13  C   UNL     1      63.533   8.769   5.213  1.00  0.00     0.161 C 
HETATM   14  O   UNL     1      64.542   9.386   5.576  1.00  0.00    -0.293 OA
HETATM   15  C   UNL     1      62.913   7.801   6.184  1.00  0.00     0.097 C 
ENDBRANCH   1  13
BRANCH   2  16
HETATM   16  O   UNL     1      62.171  11.247   4.720  1.00  0.00    -0.360 OA
HETATM   17  H   UNL     1      62.260  10.983   5.614  1.00  0.00     0.217 HD
ENDBRANCH   2  16
TORSDOF 6
ENDMDL
MODEL 8
REMARK VINA RESULT:      -4.7      2.614      5.159
REMARK  6 active torsions:
REMARK  status: ('A' for Active; 'I' for Inactive)
REMARK    1  A    between atoms: C_1  and  C_2 
REMARK    2  A    between atoms: C_3  and  O_7 
REMARK    3  A    between atoms: C_4  and  O_6 
REMARK    4  A    between atoms: O_6  and  C_8 
REMARK    5  A    between atoms: C_8  and  C_13 
REMARK    6  A    between atoms: C_13  and  C_14 
ROOT
HETATM    1  C   UNL     1      63.455   8.835   4.439  1.00  0.00     0.076 A 
HETATM    2  C   UNL     1      64.743   8.526   4.935  1.00  0.00     0.082 A 
HETATM    3  C   UNL     1      62.874   7.940   3.510  1.00  0.00     0.085 A 
HETATM    4  C   UNL     1      64.897   6.558   3.573  1.00  0.00     0.005 A 
HETATM    5  C   UNL     1      65.456   7.406   4.505  1.00  0.00     0.037 A 
HETATM    6  C   UNL     1      63.617   6.817   3.085  1.00  0.00     0.038 A 
ENDROOT
BRANCH   3   7
HETATM    7  O   UNL     1      61.605   8.179   3.058  1.00  0.00    -0.350 OA
BRANCH   7   8
HETATM    8  C   UNL     1      60.481   7.639   3.766  1.00  0.00     0.176 C 
BRANCH   8   9
HETATM    9  C   UNL     1      59.322   7.358   2.804  1.00  0.00     0.030 C 
BRANCH   9  10
HETATM   10  C   UNL     1      57.940   7.476   3.478  1.00  0.00    -0.021 C 
HETATM   11  C   UNL     1      56.871   6.805   2.614  1.00  0.00     0.009 C 
HETATM   12  C   UNL     1      57.931   6.848   4.873  1.00  0.00     0.009 C 
ENDBRANCH   9  10
ENDBRANCH   8   9
ENDBRANCH   7   8
ENDBRANCH   3   7
BRANCH   1  13
HETATM   13  C   UNL     1      62.830  10.120   4.935  1.00  0.00     0.161 C 
HETATM   14  O   UNL     1      62.950  10.396   6.135  1.00  0.00    -0.293 OA
HETATM   15  C   UNL     1      62.129  11.116   4.052  1.00  0.00     0.097 C 
ENDBRANCH   1  13
BRANCH   2  16
HETATM   16  O   UNL     1      65.411   9.281   5.870  1.00  0.00    -0.360 OA
HETATM   17  H   UNL     1      66.347   9.288   5.884  1.00  0.00     0.217 HD
ENDBRANCH   2  16
TORSDOF 6
ENDMDL
MODEL 9
REMARK VINA RESULT:      -4.6      2.536      4.444
REMARK  6 active torsions:
REMARK  status: ('A' for Active; 'I' for Inactive)
REMARK    1  A    between atoms: C_1  and  C_2 
REMARK    2  A    between atoms: C_3  and  O_7 
REMARK    3  A    between atoms: C_4  and  O_6 
REMARK    4  A    between atoms: O_6  and  C_8 
REMARK    5  A    between atoms: C_8  and  C_13 
REMARK    6  A    between atoms: C_13  and  C_14 
ROOT
HETATM    1  C   UNL     1      63.027   8.193   5.026  1.00  0.00     0.076 A 
HETATM    2  C   UNL     1      63.456   9.539   5.113  1.00  0.00     0.082 A 
HETATM    3  C   UNL     1      61.910   7.908   4.207  1.00  0.00     0.085 A 
HETATM    4  C   UNL     1      61.678  10.292   3.689  1.00  0.00     0.005 A 
HETATM    5  C   UNL     1      62.788  10.574   4.457  1.00  0.00     0.037 A 
HETATM    6  C   UNL     1      61.247   8.972   3.559  1.00  0.00     0.038 A 
ENDROOT
BRANCH   3   7
HETATM    7  O   UNL     1      61.509   6.609   4.055  1.00  0.00    -0.350 OA
BRANCH   7   8
HETATM    8  C   UNL     1      60.122   6.270   4.182  1.00  0.00     0.176 C 
BRANCH   8   9
HETATM    9  C   UNL     1      59.931   5.159   5.220  1.00  0.00     0.030 C 
BRANCH   9  10
HETATM   10  C   UNL     1      60.770   5.377   6.496  1.00  0.00    -0.021 C 
HETATM   11  C   UNL     1      59.881   5.882   7.634  1.00  0.00     0.009 C 
HETATM   12  C   UNL     1      61.479   4.096   6.938  1.00  0.00     0.009 C 
ENDBRANCH   9  10
ENDBRANCH   8   9
ENDBRANCH   7   8
ENDBRANCH   3   7
BRANCH   1  13
HETATM   13  C   UNL     1      63.798   7.185   5.850  1.00  0.00     0.161 C 
HETATM   14  O   UNL     1      63.758   7.292   7.081  1.00  0.00    -0.293 OA
HETATM   15  C   UNL     1      64.559   6.023   5.269  1.00  0.00     0.097 C 
ENDBRANCH   1  13
BRANCH   2  16
HETATM   16  O   UNL     1      64.547   9.955   5.836  1.00  0.00    -0.360 OA
HETATM   17  H   UNL     1      64.626   9.725   6.741  1.00  0.00     0.217 HD
ENDBRANCH   2  16
TORSDOF 6
ENDMDL
