MODEL 1
REMARK VINA RESULT:      -4.3      0.000      0.000
REMARK  0 active torsions:
REMARK  status: ('A' for Active; 'I' for Inactive)
ROOT
HETATM    1  N   UNL     1      61.625  10.552   1.660  1.00  0.00    -0.307 N 
ATOM      2  HN  UNL     1      61.252  10.894   0.774  1.00  0.00     0.186 HD
HETATM    3  N   UNL     1      61.657  11.354   2.749  1.00  0.00    -0.270 N 
HETATM    4  C   UNL     1      62.120  11.046   3.995  1.00  0.00     0.236 A 
HETATM    5  C   UNL     1      62.079   9.344   1.763  1.00  0.00     0.000 A 
HETATM    6  O   UNL     1      62.083  11.873   4.906  1.00  0.00    -0.272 OA
HETATM    7  C   UNL     1      62.680   9.671   4.214  1.00  0.00     0.110 A 
HETATM    8  C   UNL     1      62.651   8.749   3.017  1.00  0.00     0.062 A 
HETATM    9  C   UNL     1      62.031   8.467   0.536  1.00  0.00     0.065 C 
HETATM   10  H   UNL     1      61.304  12.265   2.629  1.00  0.00     0.190 HD
ENDROOT
TORSDOF 0
ENDMDL
MODEL 2
REMARK VINA RESULT:      -4.2      2.402      3.123
REMARK  0 active torsions:
REMARK  status: ('A' for Active; 'I' for Inactive)
ROOT
HETATM    1  N   UNL     1      64.063   9.803   5.712  1.00  0.00    -0.307 N 
ATOM      2  HN  UNL     1      64.726   9.723   6.484  1.00  0.00     0.186 HD
HETATM    3  N   UNL     1      63.334  10.930   5.544  1.00  0.00    -0.270 N 
HETATM    4  C   UNL     1      62.415  11.188   4.569  1.00  0.00     0.236 A 
HETATM    5  C   UNL     1      63.904   8.828   4.875  1.00  0.00     0.000 A 
HETATM    6  O   UNL     1      61.823  12.267   4.528  1.00  0.00    -0.272 OA
HETATM    7  C   UNL     1      62.148  10.114   3.556  1.00  0.00     0.110 A 
HETATM    8  C   UNL     1      62.954   8.845   3.712  1.00  0.00     0.062 A 
HETATM    9  C   UNL     1      64.730   7.582   5.081  1.00  0.00     0.065 C 
HETATM   10  H   UNL     1      63.483  11.647   6.202  1.00  0.00     0.190 HD
ENDROOT
TORSDOF 0
ENDMDL
MODEL 3
REMARK VINA RESULT:      -4.0      1.748      2.004
REMARK  0 active torsions:
REMARK  status: ('A' for Active; 'I' for Inactive)
ROOT
HETATM    1  N   UNL     1      62.878   8.815   3.261  1.00  0.00    -0.307 N 
ATOM      2  HN  UNL     1      63.177   7.872   3.012  1.00  0.00     0.186 HD
HETATM    3  N   UNL     1      63.104   9.303   4.502  1.00  0.00    -0.270 N 
HETATM    4  C   UNL     1      62.770  10.534   4.985  1.00  0.00     0.236 A 
HETATM    5  C   UNL     1      62.276   9.567   2.396  1.00  0.00     0.000 A 
HETATM    6  O   UNL     1      63.043  10.856   6.141  1.00  0.00    -0.272 OA
HETATM    7  C   UNL     1      62.055  11.477   4.062  1.00  0.00     0.110 A 
HETATM    8  C   UNL     1      61.795  10.964   2.666  1.00  0.00     0.062 A 
HETATM    9  C   UNL     1      62.036   9.002   1.018  1.00  0.00     0.065 C 
HETATM   10  H   UNL     1      63.564   8.700   5.130  1.00  0.00     0.190 HD
ENDROOT
TORSDOF 0
ENDMDL
MODEL 4
REMARK VINA RESULT:      -3.9      2.153      2.727
REMARK  0 active torsions:
REMARK  status: ('A' for Active; 'I' for Inactive)
ROOT
HETATM    1  N   UNL     1      62.380  11.340   4.404  1.00  0.00    -0.307 N 
ATOM      2  HN  UNL     1      62.298  12.338   4.604  1.00  0.00     0.186 HD
HETATM    3  N   UNL     1      62.783  10.477   5.364  1.00  0.00    -0.270 N 
HETATM    4  C   UNL     1      62.939   9.126   5.254  1.00  0.00     0.236 A 
HETATM    5  C   UNL     1      62.100  10.878   3.228  1.00  0.00     0.000 A 
HETATM    6  O   UNL     1      63.308   8.451   6.215  1.00  0.00    -0.272 OA
HETATM    7  C   UNL     1      62.652   8.494   3.924  1.00  0.00     0.110 A 
HETATM    8  C   UNL     1      62.192   9.432   2.833  1.00  0.00     0.062 A 
HETATM    9  C   UNL     1      61.651  11.860   2.174  1.00  0.00     0.065 C 
HETATM   10  H   UNL     1      62.987  10.868   6.244  1.00  0.00     0.190 HD
ENDROOT
TORSDOF 0
ENDMDL
MODEL 5
REMARK VINA RESULT:      -3.9      2.021      3.265
REMARK  0 active torsions:
REMARK  status: ('A' for Active; 'I' for Inactive)
ROOT
HETATM    1  N   UNL     1      61.706  11.120   3.199  1.00  0.00    -0.307 N 
ATOM      2  HN  UNL     1      61.356  12.064   3.368  1.00  0.00     0.186 HD
HETATM    3  N   UNL     1      61.462  10.495   2.025  1.00  0.00    -0.270 N 
HETATM    4  C   UNL     1      61.860   9.245   1.650  1.00  0.00     0.236 A 
HETATM    5  C   UNL     1      62.391  10.499   4.105  1.00  0.00     0.000 A 
HETATM    6  O   UNL     1      61.575   8.796   0.540  1.00  0.00    -0.272 OA
HETATM    7  C   UNL     1      62.650   8.437   2.637  1.00  0.00     0.110 A 
HETATM    8  C   UNL     1      62.945   9.111   3.956  1.00  0.00     0.062 A 
HETATM    9  C   UNL     1      62.652  11.216   5.406  1.00  0.00     0.065 C 
HETATM   10  H   UNL     1      60.937  11.001   1.363  1.00  0.00     0.190 HD
ENDROOT
TORSDOF 0
ENDMDL
MODEL 6
REMARK VINA RESULT:      -3.7      1.922      2.479
REMARK  0 active torsions:
REMARK  status: ('A' for Active; 'I' for Inactive)
ROOT
HETATM    1  N   UNL     1      61.044   9.168   3.735  1.00  0.00    -0.307 N 
ATOM      2  HN  UNL     1      60.631   9.011   4.655  1.00  0.00     0.186 HD
HETATM    3  N   UNL     1      61.305  10.423   3.303  1.00  0.00    -0.270 N 
HETATM    4  C   UNL     1      61.852  10.795   2.110  1.00  0.00     0.236 A 
HETATM    5  C   UNL     1      61.328   8.171   2.960  1.00  0.00     0.000 A 
HETATM    6  O   UNL     1      62.044  11.981   1.844  1.00  0.00    -0.272 OA
HETATM    7  C   UNL     1      62.205   9.711   1.134  1.00  0.00     0.110 A 
HETATM    8  C   UNL     1      61.933   8.297   1.591  1.00  0.00     0.062 A 
HETATM    9  C   UNL     1      61.031   6.780   3.464  1.00  0.00     0.065 C 
HETATM   10  H   UNL     1      61.073  11.154   3.922  1.00  0.00     0.190 HD
ENDROOT
TORSDOF 0
ENDMDL
MODEL 7
REMARK VINA RESULT:      -3.6      6.347      7.026
REMARK  0 active torsions:
REMARK  status: ('A' for Active; 'I' for Inactive)
ROOT
HETATM    1  N   UNL     1      67.407   6.975   7.600  1.00  0.00    -0.307 N 
ATOM      2  HN  UNL     1      67.951   6.981   8.463  1.00  0.00     0.186 HD
HETATM    3  N   UNL     1      66.750   8.084   7.192  1.00  0.00    -0.270 N 
HETATM    4  C   UNL     1      65.988   8.235   6.071  1.00  0.00     0.236 A 
HETATM    5  C   UNL     1      67.332   5.905   6.874  1.00  0.00     0.000 A 
HETATM    6  O   UNL     1      65.447   9.310   5.812  1.00  0.00    -0.272 OA
HETATM    7  C   UNL     1      65.827   7.046   5.169  1.00  0.00     0.110 A 
HETATM    8  C   UNL     1      66.557   5.793   5.593  1.00  0.00     0.062 A 
HETATM    9  C   UNL     1      68.075   4.680   7.348  1.00  0.00     0.065 C 
HETATM   10  H   UNL     1      66.830   8.876   7.772  1.00  0.00     0.190 HD
ENDROOT
TORSDOF 0
ENDMDL
MODEL 8
REMARK VINA RESULT:      -3.6      2.466      3.161
REMARK  0 active torsions:
REMARK  status: ('A' for Active; 'I' for Inactive)
ROOT
HETATM    1  N   UNL     1      63.232   8.739   5.899  1.00  0.00    -0.307 N 
ATOM      2  HN  UNL     1      63.635   8.448   6.790  1.00  0.00     0.186 HD
HETATM    3  N   UNL     1      62.977  10.044   5.651  1.00  0.00    -0.270 N 
HETATM    4  C   UNL     1      62.446  10.586   4.518  1.00  0.00     0.236 A 
HETATM    5  C   UNL     1      62.955   7.865   4.984  1.00  0.00     0.000 A 
HETATM    6  O   UNL     1      62.271  11.801   4.419  1.00  0.00    -0.272 OA
HETATM    7  C   UNL     1      62.078   9.654   3.401  1.00  0.00     0.110 A 
HETATM    8  C   UNL     1      62.358   8.189   3.645  1.00  0.00     0.062 A 
HETATM    9  C   UNL     1      63.251   6.416   5.282  1.00  0.00     0.065 C 
HETATM   10  H   UNL     1      63.200  10.676   6.372  1.00  0.00     0.190 HD
ENDROOT
TORSDOF 0
ENDMDL
MODEL 9
REMARK VINA RESULT:      -3.5      6.129      6.714
REMARK  0 active torsions:
REMARK  status: ('A' for Active; 'I' for Inactive)
ROOT
HETATM    1  N   UNL     1      66.269   8.498   6.515  1.00  0.00    -0.307 N 
ATOM      2  HN  UNL     1      66.467   9.424   6.135  1.00  0.00     0.186 HD
HETATM    3  N   UNL     1      66.963   8.026   7.575  1.00  0.00    -0.270 N 
HETATM    4  C   UNL     1      66.817   6.819   8.194  1.00  0.00     0.236 A 
HETATM    5  C   UNL     1      65.349   7.753   5.991  1.00  0.00     0.000 A 
HETATM    6  O   UNL     1      67.515   6.515   9.161  1.00  0.00    -0.272 OA
HETATM    7  C   UNL     1      65.783   5.875   7.652  1.00  0.00     0.110 A 
HETATM    8  C   UNL     1      64.985   6.378   6.472  1.00  0.00     0.062 A 
HETATM    9  C   UNL     1      64.586   8.302   4.811  1.00  0.00     0.065 C 
HETATM   10  H   UNL     1      67.655   8.622   7.943  1.00  0.00     0.190 HD
ENDROOT
TORSDOF 0
ENDMDL
