MODEL 1
REMARK VINA RESULT:      -5.3      0.000      0.000
REMARK  1 active torsions:
REMARK  status: ('A' for Active; 'I' for Inactive)
REMARK    1  A    between atoms: C_9  and  N_11 
ROOT
HETATM    1  N   UNL     1      63.972   8.483   5.931  1.00  0.00    -0.359 N 
ATOM      2  HN  UNL     1      64.125   8.857   6.868  1.00  0.00     0.166 HD
HETATM    3  C   UNL     1      63.320   9.206   5.001  1.00  0.00     0.042 A 
HETATM    4  C   UNL     1      63.079   8.722   3.701  1.00  0.00    -0.007 A 
HETATM    5  C   UNL     1      62.410   9.525   2.757  1.00  0.00     0.042 A 
HETATM    6  C   UNL     1      62.886  10.486   5.310  1.00  0.00     0.033 A 
HETATM    7  C   UNL     1      64.422   7.249   5.598  1.00  0.00     0.005 A 
HETATM    8  C   UNL     1      63.541   7.440   3.386  1.00  0.00     0.015 A 
HETATM    9  C   UNL     1      61.943  10.796   3.096  1.00  0.00     0.026 A 
HETATM   10  C   UNL     1      64.220   6.693   4.342  1.00  0.00     0.025 A 
HETATM   11  C   UNL     1      62.229  11.287   4.367  1.00  0.00     0.031 A 
HETATM   12  C   UNL     1      65.168   6.501   6.661  1.00  0.00     0.068 C 
ENDROOT
BRANCH   9  13
HETATM   13  N   UNL     1      61.419  11.642   2.114  1.00  0.00    -0.399 N 
HETATM   14  H   UNL     1      61.170  11.280   1.233  1.00  0.00     0.156 HD
HETATM   15  H   UNL     1      61.301  12.601   2.303  1.00  0.00     0.156 HD
ENDBRANCH   9  13
TORSDOF 1
ENDMDL
MODEL 2
REMARK VINA RESULT:      -5.1      1.805      3.549
REMARK  1 active torsions:
REMARK  status: ('A' for Active; 'I' for Inactive)
REMARK    1  A    between atoms: C_9  and  N_11 
ROOT
HETATM    1  N   UNL     1      61.809   9.004   1.743  1.00  0.00    -0.359 N 
ATOM      2  HN  UNL     1      61.213   9.508   1.087  1.00  0.00     0.166 HD
HETATM    3  C   UNL     1      62.210   9.581   2.891  1.00  0.00     0.042 A 
HETATM    4  C   UNL     1      63.041   8.924   3.818  1.00  0.00    -0.007 A 
HETATM    5  C   UNL     1      63.416   9.564   5.015  1.00  0.00     0.042 A 
HETATM    6  C   UNL     1      61.776  10.862   3.201  1.00  0.00     0.033 A 
HETATM    7  C   UNL     1      62.214   7.738   1.477  1.00  0.00     0.005 A 
HETATM    8  C   UNL     1      63.457   7.623   3.513  1.00  0.00     0.015 A 
HETATM    9  C   UNL     1      63.005  10.869   5.292  1.00  0.00     0.026 A 
HETATM   10  C   UNL     1      63.039   7.021   2.331  1.00  0.00     0.025 A 
HETATM   11  C   UNL     1      62.142  11.493   4.395  1.00  0.00     0.031 A 
HETATM   12  C   UNL     1      61.713   7.132   0.200  1.00  0.00     0.068 C 
ENDROOT
BRANCH   9  13
HETATM   13  N   UNL     1      63.252  11.437   6.545  1.00  0.00    -0.399 N 
HETATM   14  H   UNL     1      64.108  11.267   7.003  1.00  0.00     0.156 HD
HETATM   15  H   UNL     1      62.571  12.006   6.971  1.00  0.00     0.156 HD
ENDBRANCH   9  13
TORSDOF 1
ENDMDL
MODEL 3
REMARK VINA RESULT:      -5.0      2.083      3.742
REMARK  1 active torsions:
REMARK  status: ('A' for Active; 'I' for Inactive)
REMARK    1  A    between atoms: C_9  and  N_11 
ROOT
HETATM    1  N   UNL     1      63.089   7.343   2.347  1.00  0.00    -0.359 N 
ATOM      2  HN  UNL     1      63.619   6.490   2.528  1.00  0.00     0.166 HD
HETATM    3  C   UNL     1      63.058   8.337   3.253  1.00  0.00     0.042 A 
HETATM    4  C   UNL     1      62.331   9.525   3.047  1.00  0.00    -0.007 A 
HETATM    5  C   UNL     1      62.347  10.545   4.017  1.00  0.00     0.042 A 
HETATM    6  C   UNL     1      63.785   8.215   4.428  1.00  0.00     0.033 A 
HETATM    7  C   UNL     1      62.403   7.498   1.188  1.00  0.00     0.005 A 
HETATM    8  C   UNL     1      61.620   9.655   1.849  1.00  0.00     0.015 A 
HETATM    9  C   UNL     1      63.049  10.390   5.214  1.00  0.00     0.026 A 
HETATM   10  C   UNL     1      61.655   8.632   0.908  1.00  0.00     0.025 A 
HETATM   11  C   UNL     1      63.806   9.234   5.388  1.00  0.00     0.031 A 
HETATM   12  C   UNL     1      62.498   6.373   0.201  1.00  0.00     0.068 C 
ENDROOT
BRANCH   9  13
HETATM   13  N   UNL     1      63.185  11.463   6.099  1.00  0.00    -0.399 N 
HETATM   14  H   UNL     1      64.081  11.756   6.384  1.00  0.00     0.156 HD
HETATM   15  H   UNL     1      62.385  11.926   6.438  1.00  0.00     0.156 HD
ENDBRANCH   9  13
TORSDOF 1
ENDMDL
MODEL 4
REMARK VINA RESULT:      -4.5      1.776      4.669
REMARK  1 active torsions:
REMARK  status: ('A' for Active; 'I' for Inactive)
REMARK    1  A    between atoms: C_9  and  N_11 
ROOT
HETATM    1  N   UNL     1      62.784   7.623   2.173  1.00  0.00    -0.359 N 
ATOM      2  HN  UNL     1      62.894   6.806   1.572  1.00  0.00     0.166 HD
HETATM    3  C   UNL     1      63.551   7.780   3.268  1.00  0.00     0.042 A 
HETATM    4  C   UNL     1      63.424   8.886   4.128  1.00  0.00    -0.007 A 
HETATM    5  C   UNL     1      64.265   9.015   5.250  1.00  0.00     0.042 A 
HETATM    6  C   UNL     1      64.528   6.839   3.559  1.00  0.00     0.033 A 
HETATM    7  C   UNL     1      61.861   8.574   1.885  1.00  0.00     0.005 A 
HETATM    8  C   UNL     1      62.454   9.846   3.817  1.00  0.00     0.015 A 
HETATM    9  C   UNL     1      65.215   8.038   5.553  1.00  0.00     0.026 A 
HETATM   10  C   UNL     1      61.664   9.691   2.684  1.00  0.00     0.025 A 
HETATM   11  C   UNL     1      65.370   6.972   4.670  1.00  0.00     0.031 A 
HETATM   12  C   UNL     1      61.055   8.366   0.638  1.00  0.00     0.068 C 
ENDROOT
BRANCH   9  13
HETATM   13  N   UNL     1      66.145   8.248   6.575  1.00  0.00    -0.399 N 
HETATM   14  H   UNL     1      66.955   7.691   6.627  1.00  0.00     0.156 HD
HETATM   15  H   UNL     1      65.990   8.953   7.245  1.00  0.00     0.156 HD
ENDBRANCH   9  13
TORSDOF 1
ENDMDL
MODEL 5
REMARK VINA RESULT:      -4.5      1.773      2.098
REMARK  1 active torsions:
REMARK  status: ('A' for Active; 'I' for Inactive)
REMARK    1  A    between atoms: C_9  and  N_11 
ROOT
HETATM    1  N   UNL     1      63.123   7.283   3.955  1.00  0.00    -0.359 N 
ATOM      2  HN  UNL     1      63.305   7.204   4.956  1.00  0.00     0.166 HD
HETATM    3  C   UNL     1      62.701   8.445   3.423  1.00  0.00     0.042 A 
HETATM    4  C   UNL     1      62.430   8.593   2.050  1.00  0.00    -0.007 A 
HETATM    5  C   UNL     1      62.009   9.836   1.538  1.00  0.00     0.042 A 
HETATM    6  C   UNL     1      62.547   9.556   4.239  1.00  0.00     0.033 A 
HETATM    7  C   UNL     1      63.304   6.220   3.133  1.00  0.00     0.005 A 
HETATM    8  C   UNL     1      62.610   7.477   1.225  1.00  0.00     0.015 A 
HETATM    9  C   UNL     1      61.819  10.933   2.380  1.00  0.00     0.026 A 
HETATM   10  C   UNL     1      63.052   6.277   1.770  1.00  0.00     0.025 A 
HETATM   11  C   UNL     1      62.138  10.793   3.728  1.00  0.00     0.031 A 
HETATM   12  C   UNL     1      63.806   4.960   3.773  1.00  0.00     0.068 C 
ENDROOT
BRANCH   9  13
HETATM   13  N   UNL     1      61.552  12.197   1.845  1.00  0.00    -0.399 N 
HETATM   14  H   UNL     1      61.350  12.953   2.443  1.00  0.00     0.156 HD
HETATM   15  H   UNL     1      61.565  12.332   0.870  1.00  0.00     0.156 HD
ENDBRANCH   9  13
TORSDOF 1
ENDMDL
MODEL 6
REMARK VINA RESULT:      -4.2      1.601      2.459
REMARK  1 active torsions:
REMARK  status: ('A' for Active; 'I' for Inactive)
REMARK    1  A    between atoms: C_9  and  N_11 
ROOT
HETATM    1  N   UNL     1      62.397   6.575   3.596  1.00  0.00    -0.359 N 
ATOM      2  HN  UNL     1      62.203   5.836   2.920  1.00  0.00     0.166 HD
HETATM    3  C   UNL     1      62.254   7.870   3.258  1.00  0.00     0.042 A 
HETATM    4  C   UNL     1      62.521   8.920   4.156  1.00  0.00    -0.007 A 
HETATM    5  C   UNL     1      62.336  10.259   3.761  1.00  0.00     0.042 A 
HETATM    6  C   UNL     1      61.801   8.200   1.989  1.00  0.00     0.033 A 
HETATM    7  C   UNL     1      62.804   6.273   4.853  1.00  0.00     0.005 A 
HETATM    8  C   UNL     1      62.953   8.582   5.444  1.00  0.00     0.015 A 
HETATM    9  C   UNL     1      61.920  10.576   2.467  1.00  0.00     0.026 A 
HETATM   10  C   UNL     1      63.096   7.245   5.799  1.00  0.00     0.025 A 
HETATM   11  C   UNL     1      61.609   9.531   1.600  1.00  0.00     0.031 A 
HETATM   12  C   UNL     1      62.917   4.815   5.186  1.00  0.00     0.068 C 
ENDROOT
BRANCH   9  13
HETATM   13  N   UNL     1      61.592  11.892   2.132  1.00  0.00    -0.399 N 
HETATM   14  H   UNL     1      62.195  12.630   2.383  1.00  0.00     0.156 HD
HETATM   15  H   UNL     1      60.758  12.084   1.645  1.00  0.00     0.156 HD
ENDBRANCH   9  13
TORSDOF 1
ENDMDL
MODEL 7
REMARK VINA RESULT:      -4.2      2.335      4.695
REMARK  1 active torsions:
REMARK  status: ('A' for Active; 'I' for Inactive)
REMARK    1  A    between atoms: C_9  and  N_11 
ROOT
HETATM    1  N   UNL     1      60.398   7.460   2.713  1.00  0.00    -0.359 N 
ATOM      2  HN  UNL     1      59.623   6.841   2.951  1.00  0.00     0.166 HD
HETATM    3  C   UNL     1      61.423   7.636   3.568  1.00  0.00     0.042 A 
HETATM    4  C   UNL     1      62.506   8.489   3.283  1.00  0.00    -0.007 A 
HETATM    5  C   UNL     1      63.565   8.625   4.202  1.00  0.00     0.042 A 
HETATM    6  C   UNL     1      61.441   6.940   4.767  1.00  0.00     0.033 A 
HETATM    7  C   UNL     1      60.418   8.120   1.530  1.00  0.00     0.005 A 
HETATM    8  C   UNL     1      62.496   9.171   2.061  1.00  0.00     0.015 A 
HETATM    9  C   UNL     1      63.548   7.949   5.423  1.00  0.00     0.026 A 
HETATM   10  C   UNL     1      61.442   8.986   1.173  1.00  0.00     0.025 A 
HETATM   11  C   UNL     1      62.499   7.069   5.676  1.00  0.00     0.031 A 
HETATM   12  C   UNL     1      59.268   7.863   0.603  1.00  0.00     0.068 C 
ENDROOT
BRANCH   9  13
HETATM   13  N   UNL     1      64.669   7.968   6.258  1.00  0.00    -0.399 N 
HETATM   14  H   UNL     1      64.757   7.306   6.981  1.00  0.00     0.156 HD
HETATM   15  H   UNL     1      65.372   8.645   6.123  1.00  0.00     0.156 HD
ENDBRANCH   9  13
TORSDOF 1
ENDMDL
MODEL 8
REMARK VINA RESULT:      -4.2      1.956      4.859
REMARK  1 active torsions:
REMARK  status: ('A' for Active; 'I' for Inactive)
REMARK    1  A    between atoms: C_9  and  N_11 
ROOT
HETATM    1  N   UNL     1      61.456   9.448   2.928  1.00  0.00    -0.359 N 
ATOM      2  HN  UNL     1      60.936   9.285   2.065  1.00  0.00     0.166 HD
HETATM    3  C   UNL     1      61.691   8.441   3.789  1.00  0.00     0.042 A 
HETATM    4  C   UNL     1      62.394   8.626   4.994  1.00  0.00    -0.007 A 
HETATM    5  C   UNL     1      62.632   7.535   5.853  1.00  0.00     0.042 A 
HETATM    6  C   UNL     1      61.254   7.161   3.481  1.00  0.00     0.033 A 
HETATM    7  C   UNL     1      61.924  10.684   3.230  1.00  0.00     0.005 A 
HETATM    8  C   UNL     1      62.854   9.914   5.290  1.00  0.00     0.015 A 
HETATM    9  C   UNL     1      62.150   6.261   5.548  1.00  0.00     0.026 A 
HETATM   10  C   UNL     1      62.619  10.956   4.400  1.00  0.00     0.025 A 
HETATM   11  C   UNL     1      61.500   6.076   4.331  1.00  0.00     0.031 A 
HETATM   12  C   UNL     1      61.661  11.762   2.222  1.00  0.00     0.068 C 
ENDROOT
BRANCH   9  13
HETATM   13  N   UNL     1      62.521   5.160   6.324  1.00  0.00    -0.399 N 
HETATM   14  H   UNL     1      61.966   4.887   7.091  1.00  0.00     0.156 HD
HETATM   15  H   UNL     1      63.339   4.657   6.107  1.00  0.00     0.156 HD
ENDBRANCH   9  13
TORSDOF 1
ENDMDL
MODEL 9
REMARK VINA RESULT:      -4.1      1.678      2.536
REMARK  1 active torsions:
REMARK  status: ('A' for Active; 'I' for Inactive)
REMARK    1  A    between atoms: C_9  and  N_11 
ROOT
HETATM    1  N   UNL     1      65.254   7.873   6.542  1.00  0.00    -0.359 N 
ATOM      2  HN  UNL     1      65.126   8.601   7.245  1.00  0.00     0.166 HD
HETATM    3  C   UNL     1      64.558   7.898   5.390  1.00  0.00     0.042 A 
HETATM    4  C   UNL     1      64.698   6.908   4.401  1.00  0.00    -0.007 A 
HETATM    5  C   UNL     1      63.962   6.990   3.203  1.00  0.00     0.042 A 
HETATM    6  C   UNL     1      63.686   8.948   5.141  1.00  0.00     0.033 A 
HETATM    7  C   UNL     1      66.130   6.859   6.749  1.00  0.00     0.005 A 
HETATM    8  C   UNL     1      65.598   5.864   4.645  1.00  0.00     0.015 A 
HETATM    9  C   UNL     1      63.057   8.030   2.985  1.00  0.00     0.026 A 
HETATM   10  C   UNL     1      66.324   5.838   5.831  1.00  0.00     0.025 A 
HETATM   11  C   UNL     1      62.961   9.033   3.946  1.00  0.00     0.031 A 
HETATM   12  C   UNL     1      66.902   6.896   8.035  1.00  0.00     0.068 C 
ENDROOT
BRANCH   9  13
HETATM   13  N   UNL     1      62.448   8.188   1.737  1.00  0.00    -0.399 N 
HETATM   14  H   UNL     1      62.005   9.038   1.508  1.00  0.00     0.156 HD
HETATM   15  H   UNL     1      62.461   7.450   1.086  1.00  0.00     0.156 HD
ENDBRANCH   9  13
TORSDOF 1
ENDMDL
