MODEL 1
REMARK VINA RESULT:      -4.6      0.000      0.000
REMARK  2 active torsions:
REMARK  status: ('A' for Active; 'I' for Inactive)
REMARK    1  A    between atoms: C_1  and  C_6 
REMARK    2  A    between atoms: C_7  and  O_11 
ROOT
HETATM    1  C   UNL     1      62.426   9.905   3.559  1.00  0.00     0.138 A 
HETATM    2  N   UNL     1      63.245   9.059   4.266  1.00  0.00    -0.290 N 
HETATM    3  C   UNL     1      62.311  11.049   4.336  1.00  0.00     0.093 A 
HETATM    4  N   UNL     1      63.654   9.590   5.440  1.00  0.00    -0.278 N 
ATOM      5  HN  UNL     1      64.260   9.168   6.144  1.00  0.00     0.189 HD
HETATM    6  C   UNL     1      63.085  10.781   5.464  1.00  0.00     0.157 A 
HETATM    7  C   UNL     1      63.724   7.731   3.962  1.00  0.00     0.178 C 
ENDROOT
BRANCH   1   8
HETATM    8  C   UNL     1      61.812   9.621   2.245  1.00  0.00     0.434 C 
HETATM    9  F   UNL     1      62.653   9.084   1.332  1.00  0.00    -0.165 F 
HETATM   10  F   UNL     1      60.775   8.755   2.370  1.00  0.00    -0.165 F 
HETATM   11  F   UNL     1      61.308  10.752   1.689  1.00  0.00    -0.165 F 
ENDBRANCH   1   8
BRANCH   6  12
HETATM   12  O   UNL     1      63.321  11.543   6.532  1.00  0.00    -0.345 OA
HETATM   13  H   UNL     1      62.624  11.746   7.126  1.00  0.00     0.219 HD
ENDBRANCH   6  12
TORSDOF 2
ENDMDL
MODEL 2
REMARK VINA RESULT:      -4.6      1.543      2.238
REMARK  2 active torsions:
REMARK  status: ('A' for Active; 'I' for Inactive)
REMARK    1  A    between atoms: C_1  and  C_6 
REMARK    2  A    between atoms: C_7  and  O_11 
ROOT
HETATM    1  C   UNL     1      62.457   9.668   3.565  1.00  0.00     0.138 A 
HETATM    2  N   UNL     1      62.138  10.995   3.411  1.00  0.00    -0.290 N 
HETATM    3  C   UNL     1      62.885   9.538   4.880  1.00  0.00     0.093 A 
HETATM    4  N   UNL     1      62.338  11.715   4.537  1.00  0.00    -0.278 N 
ATOM      5  HN  UNL     1      62.181  12.712   4.684  1.00  0.00     0.189 HD
HETATM    6  C   UNL     1      62.784  10.825   5.405  1.00  0.00     0.157 A 
HETATM    7  C   UNL     1      61.639  11.722   2.267  1.00  0.00     0.178 C 
ENDROOT
BRANCH   1   8
HETATM    8  C   UNL     1      62.354   8.624   2.526  1.00  0.00     0.434 C 
HETATM    9  F   UNL     1      62.709   9.025   1.283  1.00  0.00    -0.165 F 
HETATM   10  F   UNL     1      63.141   7.559   2.826  1.00  0.00    -0.165 F 
HETATM   11  F   UNL     1      61.085   8.153   2.432  1.00  0.00    -0.165 F 
ENDBRANCH   1   8
BRANCH   6  12
HETATM   12  O   UNL     1      63.070  11.266   6.631  1.00  0.00    -0.345 OA
HETATM   13  H   UNL     1      62.435  11.760   7.111  1.00  0.00     0.219 HD
ENDBRANCH   6  12
TORSDOF 2
ENDMDL
MODEL 3
REMARK VINA RESULT:      -4.2      2.353      3.026
REMARK  2 active torsions:
REMARK  status: ('A' for Active; 'I' for Inactive)
REMARK    1  A    between atoms: C_1  and  C_6 
REMARK    2  A    between atoms: C_7  and  O_11 
ROOT
HETATM    1  C   UNL     1      62.568   8.985   3.583  1.00  0.00     0.138 A 
HETATM    2  N   UNL     1      62.002   9.626   2.508  1.00  0.00    -0.290 N 
HETATM    3  C   UNL     1      62.645   9.941   4.587  1.00  0.00     0.093 A 
HETATM    4  N   UNL     1      61.718  10.922   2.762  1.00  0.00    -0.278 N 
ATOM      5  HN  UNL     1      61.299  11.610   2.136  1.00  0.00     0.189 HD
HETATM    6  C   UNL     1      62.110  11.092   4.012  1.00  0.00     0.157 A 
HETATM    7  C   UNL     1      61.672   9.146   1.186  1.00  0.00     0.178 C 
ENDROOT
BRANCH   1   8
HETATM    8  C   UNL     1      62.994   7.572   3.625  1.00  0.00     0.434 C 
HETATM    9  F   UNL     1      62.011   6.676   3.381  1.00  0.00    -0.165 F 
HETATM   10  F   UNL     1      63.970   7.330   2.713  1.00  0.00    -0.165 F 
HETATM   11  F   UNL     1      63.512   7.255   4.839  1.00  0.00    -0.165 F 
ENDBRANCH   1   8
BRANCH   6  12
HETATM   12  O   UNL     1      61.945  12.306   4.538  1.00  0.00    -0.345 OA
HETATM   13  H   UNL     1      61.118  12.742   4.462  1.00  0.00     0.219 HD
ENDBRANCH   6  12
TORSDOF 2
ENDMDL
MODEL 4
REMARK VINA RESULT:      -4.2      1.544      2.057
REMARK  2 active torsions:
REMARK  status: ('A' for Active; 'I' for Inactive)
REMARK    1  A    between atoms: C_1  and  C_6 
REMARK    2  A    between atoms: C_7  and  O_11 
ROOT
HETATM    1  C   UNL     1      62.077   9.300   2.652  1.00  0.00     0.138 A 
HETATM    2  N   UNL     1      62.362   9.021   3.967  1.00  0.00    -0.290 N 
HETATM    3  C   UNL     1      61.910  10.676   2.591  1.00  0.00     0.093 A 
HETATM    4  N   UNL     1      62.383  10.128   4.742  1.00  0.00    -0.278 N 
ATOM      5  HN  UNL     1      62.566  10.192   5.744  1.00  0.00     0.189 HD
HETATM    6  C   UNL     1      62.111  11.109   3.900  1.00  0.00     0.157 A 
HETATM    7  C   UNL     1      62.633   7.768   4.632  1.00  0.00     0.178 C 
ENDROOT
BRANCH   1   8
HETATM    8  C   UNL     1      61.977   8.313   1.558  1.00  0.00     0.434 C 
HETATM    9  F   UNL     1      60.923   7.470   1.650  1.00  0.00    -0.165 F 
HETATM   10  F   UNL     1      61.872   8.931   0.354  1.00  0.00    -0.165 F 
HETATM   11  F   UNL     1      63.088   7.536   1.499  1.00  0.00    -0.165 F 
ENDBRANCH   1   8
BRANCH   6  12
HETATM   12  O   UNL     1      62.067  12.343   4.404  1.00  0.00    -0.345 OA
HETATM   13  H   UNL     1      61.377  12.585   4.990  1.00  0.00     0.219 HD
ENDBRANCH   6  12
TORSDOF 2
ENDMDL
MODEL 5
REMARK VINA RESULT:      -4.0      1.854      2.238
REMARK  2 active torsions:
REMARK  status: ('A' for Active; 'I' for Inactive)
REMARK    1  A    between atoms: C_1  and  C_6 
REMARK    2  A    between atoms: C_7  and  O_11 
ROOT
HETATM    1  C   UNL     1      63.081   8.918   3.914  1.00  0.00     0.138 A 
HETATM    2  N   UNL     1      63.783   7.769   3.638  1.00  0.00    -0.290 N 
HETATM    3  C   UNL     1      63.748   9.516   4.974  1.00  0.00     0.093 A 
HETATM    4  N   UNL     1      64.848   7.600   4.453  1.00  0.00    -0.278 N 
ATOM      5  HN  UNL     1      65.523   6.835   4.457  1.00  0.00     0.189 HD
HETATM    6  C   UNL     1      64.810   8.656   5.246  1.00  0.00     0.157 A 
HETATM    7  C   UNL     1      63.569   6.745   2.643  1.00  0.00     0.178 C 
ENDROOT
BRANCH   1   8
HETATM    8  C   UNL     1      61.871   9.386   3.208  1.00  0.00     0.434 C 
HETATM    9  F   UNL     1      60.824   8.531   3.251  1.00  0.00    -0.165 F 
HETATM   10  F   UNL     1      61.430  10.561   3.726  1.00  0.00    -0.165 F 
HETATM   11  F   UNL     1      62.130   9.615   1.896  1.00  0.00    -0.165 F 
ENDBRANCH   1   8
BRANCH   6  12
HETATM   12  O   UNL     1      65.765   8.751   6.171  1.00  0.00    -0.345 OA
HETATM   13  H   UNL     1      65.579   9.153   6.997  1.00  0.00     0.219 HD
ENDBRANCH   6  12
TORSDOF 2
ENDMDL
MODEL 6
REMARK VINA RESULT:      -4.0      1.643      2.142
REMARK  2 active torsions:
REMARK  status: ('A' for Active; 'I' for Inactive)
REMARK    1  A    between atoms: C_1  and  C_6 
REMARK    2  A    between atoms: C_7  and  O_11 
ROOT
HETATM    1  C   UNL     1      62.440   9.046   2.722  1.00  0.00     0.138 A 
HETATM    2  N   UNL     1      62.905   7.759   2.844  1.00  0.00    -0.290 N 
HETATM    3  C   UNL     1      62.554   9.605   3.988  1.00  0.00     0.093 A 
HETATM    4  N   UNL     1      63.303   7.464   4.102  1.00  0.00    -0.278 N 
ATOM      5  HN  UNL     1      63.682   6.584   4.452  1.00  0.00     0.189 HD
HETATM    6  C   UNL     1      63.086   8.582   4.771  1.00  0.00     0.157 A 
HETATM    7  C   UNL     1      63.031   6.701   1.868  1.00  0.00     0.178 C 
ENDROOT
BRANCH   1   8
HETATM    8  C   UNL     1      61.932   9.671   1.484  1.00  0.00     0.434 C 
HETATM    9  F   UNL     1      61.807  11.017   1.540  1.00  0.00    -0.165 F 
HETATM   10  F   UNL     1      62.748   9.404   0.433  1.00  0.00    -0.165 F 
HETATM   11  F   UNL     1      60.709   9.183   1.159  1.00  0.00    -0.165 F 
ENDBRANCH   1   8
BRANCH   6  12
HETATM   12  O   UNL     1      63.395   8.579   6.068  1.00  0.00    -0.345 OA
HETATM   13  H   UNL     1      63.558   7.768   6.510  1.00  0.00     0.219 HD
ENDBRANCH   6  12
TORSDOF 2
ENDMDL
MODEL 7
REMARK VINA RESULT:      -4.0      3.204      3.966
REMARK  2 active torsions:
REMARK  status: ('A' for Active; 'I' for Inactive)
REMARK    1  A    between atoms: C_1  and  C_6 
REMARK    2  A    between atoms: C_7  and  O_11 
ROOT
HETATM    1  C   UNL     1      63.206   8.771   3.961  1.00  0.00     0.138 A 
HETATM    2  N   UNL     1      62.601   9.959   4.290  1.00  0.00    -0.290 N 
HETATM    3  C   UNL     1      62.578   8.342   2.800  1.00  0.00     0.093 A 
HETATM    4  N   UNL     1      61.631  10.311   3.418  1.00  0.00    -0.278 N 
ATOM      5  HN  UNL     1      61.036  11.139   3.438  1.00  0.00     0.189 HD
HETATM    6  C   UNL     1      61.632   9.331   2.532  1.00  0.00     0.157 A 
HETATM    7  C   UNL     1      62.832  10.866   5.391  1.00  0.00     0.178 C 
ENDROOT
BRANCH   1   8
HETATM    8  C   UNL     1      64.296   8.114   4.711  1.00  0.00     0.434 C 
HETATM    9  F   UNL     1      65.383   8.890   4.926  1.00  0.00    -0.165 F 
HETATM   10  F   UNL     1      63.868   7.705   5.933  1.00  0.00    -0.165 F 
HETATM   11  F   UNL     1      64.734   7.006   4.063  1.00  0.00    -0.165 F 
ENDBRANCH   1   8
BRANCH   6  12
HETATM   12  O   UNL     1      60.754   9.418   1.533  1.00  0.00    -0.345 OA
HETATM   13  H   UNL     1      60.870  10.061   0.861  1.00  0.00     0.219 HD
ENDBRANCH   6  12
TORSDOF 2
ENDMDL
MODEL 8
REMARK VINA RESULT:      -3.9      1.663      2.262
REMARK  2 active torsions:
REMARK  status: ('A' for Active; 'I' for Inactive)
REMARK    1  A    between atoms: C_1  and  C_6 
REMARK    2  A    between atoms: C_7  and  O_11 
ROOT
HETATM    1  C   UNL     1      62.782   8.833   3.825  1.00  0.00     0.138 A 
HETATM    2  N   UNL     1      63.622   9.062   4.889  1.00  0.00    -0.290 N 
HETATM    3  C   UNL     1      62.049  10.002   3.671  1.00  0.00     0.093 A 
HETATM    4  N   UNL     1      63.467  10.295   5.420  1.00  0.00    -0.278 N 
ATOM      5  HN  UNL     1      63.963  10.707   6.210  1.00  0.00     0.189 HD
HETATM    6  C   UNL     1      62.522  10.842   4.678  1.00  0.00     0.157 A 
HETATM    7  C   UNL     1      64.613   8.216   5.510  1.00  0.00     0.178 C 
ENDROOT
BRANCH   1   8
HETATM    8  C   UNL     1      62.704   7.589   3.033  1.00  0.00     0.434 C 
HETATM    9  F   UNL     1      61.881   7.651   1.961  1.00  0.00    -0.165 F 
HETATM   10  F   UNL     1      63.926   7.236   2.559  1.00  0.00    -0.165 F 
HETATM   11  F   UNL     1      62.270   6.553   3.794  1.00  0.00    -0.165 F 
ENDBRANCH   1   8
BRANCH   6  12
HETATM   12  O   UNL     1      62.159  12.088   4.983  1.00  0.00    -0.345 OA
HETATM   13  H   UNL     1      62.780  12.787   4.916  1.00  0.00     0.219 HD
ENDBRANCH   6  12
TORSDOF 2
ENDMDL
MODEL 9
REMARK VINA RESULT:      -3.9      3.159      3.700
REMARK  2 active torsions:
REMARK  status: ('A' for Active; 'I' for Inactive)
REMARK    1  A    between atoms: C_1  and  C_6 
REMARK    2  A    between atoms: C_7  and  O_11 
ROOT
HETATM    1  C   UNL     1      62.710   8.512   4.739  1.00  0.00     0.138 A 
HETATM    2  N   UNL     1      61.548   8.211   4.071  1.00  0.00    -0.290 N 
HETATM    3  C   UNL     1      62.905   9.874   4.551  1.00  0.00     0.093 A 
HETATM    4  N   UNL     1      60.996   9.289   3.471  1.00  0.00    -0.278 N 
ATOM      5  HN  UNL     1      60.141   9.332   2.916  1.00  0.00     0.189 HD
HETATM    6  C   UNL     1      61.822  10.275   3.770  1.00  0.00     0.157 A 
HETATM    7  C   UNL     1      60.844   6.960   3.914  1.00  0.00     0.178 C 
ENDROOT
BRANCH   1   8
HETATM    8  C   UNL     1      63.552   7.559   5.490  1.00  0.00     0.434 C 
HETATM    9  F   UNL     1      64.737   8.058   5.909  1.00  0.00    -0.165 F 
HETATM   10  F   UNL     1      62.909   7.112   6.599  1.00  0.00    -0.165 F 
HETATM   11  F   UNL     1      63.836   6.465   4.740  1.00  0.00    -0.165 F 
ENDBRANCH   1   8
BRANCH   6  12
HETATM   12  O   UNL     1      61.518  11.484   3.297  1.00  0.00    -0.345 OA
HETATM   13  H   UNL     1      61.333  12.186   3.890  1.00  0.00     0.219 HD
ENDBRANCH   6  12
TORSDOF 2
ENDMDL
