MODEL 1
REMARK VINA RESULT:      -4.8      0.000      0.000
REMARK  3 active torsions:
REMARK  status: ('A' for Active; 'I' for Inactive)
REMARK    1  A    between atoms: C_1  and  C_2 
REMARK    2  A    between atoms: C_3  and  O_6 
REMARK    3  A    between atoms: C_4  and  O_7 
ROOT
HETATM    1  C   UNL     1      63.280   9.308   4.667  1.00  0.00     0.075 A 
HETATM    2  C   UNL     1      62.940   8.908   3.363  1.00  0.00     0.082 A 
HETATM    3  C   UNL     1      62.831  10.561   5.116  1.00  0.00     0.082 A 
HETATM    4  C   UNL     1      61.772  10.992   2.987  1.00  0.00     0.005 A 
HETATM    5  C   UNL     1      62.187   9.741   2.532  1.00  0.00     0.037 A 
HETATM    6  C   UNL     1      62.090  11.401   4.279  1.00  0.00     0.037 A 
ENDROOT
BRANCH   1   7
HETATM    7  C   UNL     1      64.160   8.471   5.536  1.00  0.00     0.161 C 
HETATM    8  O   UNL     1      65.324   8.810   5.758  1.00  0.00    -0.293 OA
HETATM    9  C   UNL     1      63.617   7.186   6.109  1.00  0.00     0.097 C 
ENDBRANCH   1   7
BRANCH   2  10
HETATM   10  O   UNL     1      63.358   7.703   2.866  1.00  0.00    -0.360 OA
HETATM   11  H   UNL     1      63.956   7.676   2.146  1.00  0.00     0.217 HD
ENDBRANCH   2  10
BRANCH   3  12
HETATM   12  O   UNL     1      63.068  10.967   6.399  1.00  0.00    -0.360 OA
HETATM   13  H   UNL     1      63.827  11.481   6.594  1.00  0.00     0.217 HD
ENDBRANCH   3  12
TORSDOF 3
ENDMDL
MODEL 2
REMARK VINA RESULT:      -4.6      0.853      2.701
REMARK  3 active torsions:
REMARK  status: ('A' for Active; 'I' for Inactive)
REMARK    1  A    between atoms: C_1  and  C_2 
REMARK    2  A    between atoms: C_3  and  O_6 
REMARK    3  A    between atoms: C_4  and  O_7 
ROOT
HETATM    1  C   UNL     1      63.176   9.255   4.520  1.00  0.00     0.075 A 
HETATM    2  C   UNL     1      62.787  10.544   4.926  1.00  0.00     0.082 A 
HETATM    3  C   UNL     1      62.836   8.836   3.223  1.00  0.00     0.082 A 
HETATM    4  C   UNL     1      61.720  10.937   2.791  1.00  0.00     0.005 A 
HETATM    5  C   UNL     1      62.070  11.380   4.066  1.00  0.00     0.037 A 
HETATM    6  C   UNL     1      62.105   9.668   2.368  1.00  0.00     0.037 A 
ENDROOT
BRANCH   1   7
HETATM    7  C   UNL     1      63.861   8.315   5.456  1.00  0.00     0.161 C 
HETATM    8  O   UNL     1      63.237   7.778   6.371  1.00  0.00    -0.293 OA
HETATM    9  C   UNL     1      65.338   8.061   5.288  1.00  0.00     0.097 C 
ENDBRANCH   1   7
BRANCH   2  10
HETATM   10  O   UNL     1      63.080  11.003   6.182  1.00  0.00    -0.360 OA
HETATM   11  H   UNL     1      62.525  10.780   6.903  1.00  0.00     0.217 HD
ENDBRANCH   2  10
BRANCH   3  12
HETATM   12  O   UNL     1      63.253   7.625   2.750  1.00  0.00    -0.360 OA
HETATM   13  H   UNL     1      63.390   7.503   1.831  1.00  0.00     0.217 HD
ENDBRANCH   3  12
TORSDOF 3
ENDMDL
MODEL 3
REMARK VINA RESULT:      -4.5      1.707      4.012
REMARK  3 active torsions:
REMARK  status: ('A' for Active; 'I' for Inactive)
REMARK    1  A    between atoms: C_1  and  C_2 
REMARK    2  A    between atoms: C_3  and  O_6 
REMARK    3  A    between atoms: C_4  and  O_7 
ROOT
HETATM    1  C   UNL     1      62.208   9.629   4.160  1.00  0.00     0.075 A 
HETATM    2  C   UNL     1      63.255   9.351   5.055  1.00  0.00     0.082 A 
HETATM    3  C   UNL     1      61.415   8.559   3.712  1.00  0.00     0.082 A 
HETATM    4  C   UNL     1      62.726   6.991   5.002  1.00  0.00     0.005 A 
HETATM    5  C   UNL     1      63.508   8.043   5.477  1.00  0.00     0.037 A 
HETATM    6  C   UNL     1      61.677   7.249   4.123  1.00  0.00     0.037 A 
ENDROOT
BRANCH   1   7
HETATM    7  C   UNL     1      61.980  11.005   3.627  1.00  0.00     0.161 C 
HETATM    8  O   UNL     1      61.828  11.956   4.395  1.00  0.00    -0.293 OA
HETATM    9  C   UNL     1      61.903  11.211   2.135  1.00  0.00     0.097 C 
ENDBRANCH   1   7
BRANCH   2  10
HETATM   10  O   UNL     1      64.068  10.350   5.517  1.00  0.00    -0.360 OA
HETATM   11  H   UNL     1      63.717  11.024   6.065  1.00  0.00     0.217 HD
ENDBRANCH   2  10
BRANCH   3  12
HETATM   12  O   UNL     1      60.338   8.782   2.901  1.00  0.00    -0.360 OA
HETATM   13  H   UNL     1      59.837   8.059   2.580  1.00  0.00     0.217 HD
ENDBRANCH   3  12
TORSDOF 3
ENDMDL
MODEL 4
REMARK VINA RESULT:      -4.4      1.863      3.494
REMARK  3 active torsions:
REMARK  status: ('A' for Active; 'I' for Inactive)
REMARK    1  A    between atoms: C_1  and  C_2 
REMARK    2  A    between atoms: C_3  and  O_6 
REMARK    3  A    between atoms: C_4  and  O_7 
ROOT
HETATM    1  C   UNL     1      62.316   9.461   2.829  1.00  0.00     0.075 A 
HETATM    2  C   UNL     1      63.104   8.654   3.669  1.00  0.00     0.082 A 
HETATM    3  C   UNL     1      61.946  10.735   3.288  1.00  0.00     0.082 A 
HETATM    4  C   UNL     1      63.099  10.364   5.380  1.00  0.00     0.005 A 
HETATM    5  C   UNL     1      63.497   9.105   4.932  1.00  0.00     0.037 A 
HETATM    6  C   UNL     1      62.327  11.181   4.558  1.00  0.00     0.037 A 
ENDROOT
BRANCH   1   7
HETATM    7  C   UNL     1      61.810   8.961   1.516  1.00  0.00     0.161 C 
HETATM    8  O   UNL     1      62.404   9.234   0.473  1.00  0.00    -0.293 OA
HETATM    9  C   UNL     1      60.541   8.146   1.481  1.00  0.00     0.097 C 
ENDBRANCH   1   7
BRANCH   2  10
HETATM   10  O   UNL     1      63.486   7.399   3.281  1.00  0.00    -0.360 OA
HETATM   11  H   UNL     1      62.876   6.689   3.324  1.00  0.00     0.217 HD
ENDBRANCH   2  10
BRANCH   3  12
HETATM   12  O   UNL     1      61.245  11.589   2.484  1.00  0.00    -0.360 OA
HETATM   13  H   UNL     1      61.189  12.498   2.703  1.00  0.00     0.217 HD
ENDBRANCH   3  12
TORSDOF 3
ENDMDL
MODEL 5
REMARK VINA RESULT:      -4.1      1.939      4.164
REMARK  3 active torsions:
REMARK  status: ('A' for Active; 'I' for Inactive)
REMARK    1  A    between atoms: C_1  and  C_2 
REMARK    2  A    between atoms: C_3  and  O_6 
REMARK    3  A    between atoms: C_4  and  O_7 
ROOT
HETATM    1  C   UNL     1      62.487   8.589   3.185  1.00  0.00     0.075 A 
HETATM    2  C   UNL     1      62.229   9.716   3.985  1.00  0.00     0.082 A 
HETATM    3  C   UNL     1      63.584   7.776   3.516  1.00  0.00     0.082 A 
HETATM    4  C   UNL     1      64.149   9.220   5.370  1.00  0.00     0.005 A 
HETATM    5  C   UNL     1      63.050  10.026   5.072  1.00  0.00     0.037 A 
HETATM    6  C   UNL     1      64.414   8.094   4.596  1.00  0.00     0.037 A 
ENDROOT
BRANCH   1   7
HETATM    7  C   UNL     1      61.676   8.294   1.966  1.00  0.00     0.161 C 
HETATM    8  O   UNL     1      60.743   7.491   2.015  1.00  0.00    -0.293 OA
HETATM    9  C   UNL     1      62.037   8.966   0.665  1.00  0.00     0.097 C 
ENDBRANCH   1   7
BRANCH   2  10
HETATM   10  O   UNL     1      61.182  10.551   3.705  1.00  0.00    -0.360 OA
HETATM   11  H   UNL     1      60.311  10.211   3.657  1.00  0.00     0.217 HD
ENDBRANCH   2  10
BRANCH   3  12
HETATM   12  O   UNL     1      63.835   6.629   2.819  1.00  0.00    -0.360 OA
HETATM   13  H   UNL     1      63.143   6.019   2.656  1.00  0.00     0.217 HD
ENDBRANCH   3  12
TORSDOF 3
ENDMDL
MODEL 6
REMARK VINA RESULT:      -4.0      2.557      5.168
REMARK  3 active torsions:
REMARK  status: ('A' for Active; 'I' for Inactive)
REMARK    1  A    between atoms: C_1  and  C_2 
REMARK    2  A    between atoms: C_3  and  O_6 
REMARK    3  A    between atoms: C_4  and  O_7 
ROOT
HETATM    1  C   UNL     1      65.496   7.550   5.806  1.00  0.00     0.075 A 
HETATM    2  C   UNL     1      64.913   6.579   6.639  1.00  0.00     0.082 A 
HETATM    3  C   UNL     1      66.881   7.486   5.580  1.00  0.00     0.082 A 
HETATM    4  C   UNL     1      67.071   5.553   7.019  1.00  0.00     0.005 A 
HETATM    5  C   UNL     1      65.694   5.585   7.236  1.00  0.00     0.037 A 
HETATM    6  C   UNL     1      67.664   6.500   6.189  1.00  0.00     0.037 A 
ENDROOT
BRANCH   1   7
HETATM    7  C   UNL     1      64.693   8.672   5.235  1.00  0.00     0.161 C 
HETATM    8  O   UNL     1      64.764   9.801   5.720  1.00  0.00    -0.293 OA
HETATM    9  C   UNL     1      63.766   8.395   4.078  1.00  0.00     0.097 C 
ENDBRANCH   1   7
BRANCH   2  10
HETATM   10  O   UNL     1      63.571   6.596   6.906  1.00  0.00    -0.360 OA
HETATM   11  H   UNL     1      63.211   6.004   7.537  1.00  0.00     0.217 HD
ENDBRANCH   2  10
BRANCH   3  12
HETATM   12  O   UNL     1      67.486   8.358   4.720  1.00  0.00    -0.360 OA
HETATM   13  H   UNL     1      67.077   8.571   3.905  1.00  0.00     0.217 HD
ENDBRANCH   3  12
TORSDOF 3
ENDMDL
MODEL 7
REMARK VINA RESULT:      -4.0      1.353      2.879
REMARK  3 active torsions:
REMARK  status: ('A' for Active; 'I' for Inactive)
REMARK    1  A    between atoms: C_1  and  C_2 
REMARK    2  A    between atoms: C_3  and  O_6 
REMARK    3  A    between atoms: C_4  and  O_7 
ROOT
HETATM    1  C   UNL     1      62.850   8.775   3.764  1.00  0.00     0.075 A 
HETATM    2  C   UNL     1      63.194   9.307   5.019  1.00  0.00     0.082 A 
HETATM    3  C   UNL     1      62.197   9.613   2.844  1.00  0.00     0.082 A 
HETATM    4  C   UNL     1      62.212  11.437   4.429  1.00  0.00     0.005 A 
HETATM    5  C   UNL     1      62.882  10.629   5.347  1.00  0.00     0.037 A 
HETATM    6  C   UNL     1      61.873  10.932   3.177  1.00  0.00     0.037 A 
ENDROOT
BRANCH   1   7
HETATM    7  C   UNL     1      63.092   7.340   3.431  1.00  0.00     0.161 C 
HETATM    8  O   UNL     1      64.217   6.954   3.110  1.00  0.00    -0.293 OA
HETATM    9  C   UNL     1      61.933   6.375   3.458  1.00  0.00     0.097 C 
ENDBRANCH   1   7
BRANCH   2  10
HETATM   10  O   UNL     1      63.821   8.536   5.961  1.00  0.00    -0.360 OA
HETATM   11  H   UNL     1      63.431   8.419   6.804  1.00  0.00     0.217 HD
ENDBRANCH   2  10
BRANCH   3  12
HETATM   12  O   UNL     1      61.908   9.171   1.585  1.00  0.00    -0.360 OA
HETATM   13  H   UNL     1      61.927   8.254   1.394  1.00  0.00     0.217 HD
ENDBRANCH   3  12
TORSDOF 3
ENDMDL
MODEL 8
REMARK VINA RESULT:      -3.9      1.887      3.063
REMARK  3 active torsions:
REMARK  status: ('A' for Active; 'I' for Inactive)
REMARK    1  A    between atoms: C_1  and  C_2 
REMARK    2  A    between atoms: C_3  and  O_6 
REMARK    3  A    between atoms: C_4  and  O_7 
ROOT
HETATM    1  C   UNL     1      62.697   8.518   4.821  1.00  0.00     0.075 A 
HETATM    2  C   UNL     1      62.197   8.394   3.513  1.00  0.00     0.082 A 
HETATM    3  C   UNL     1      62.376   7.517   5.752  1.00  0.00     0.082 A 
HETATM    4  C   UNL     1      61.063   6.340   4.100  1.00  0.00     0.005 A 
HETATM    5  C   UNL     1      61.391   7.311   3.154  1.00  0.00     0.037 A 
HETATM    6  C   UNL     1      61.558   6.440   5.397  1.00  0.00     0.037 A 
ENDROOT
BRANCH   1   7
HETATM    7  C   UNL     1      63.482   9.715   5.246  1.00  0.00     0.161 C 
HETATM    8  O   UNL     1      64.676   9.609   5.533  1.00  0.00    -0.293 OA
HETATM    9  C   UNL     1      62.786  11.048   5.356  1.00  0.00     0.097 C 
ENDBRANCH   1   7
BRANCH   2  10
HETATM   10  O   UNL     1      62.466   9.344   2.565  1.00  0.00    -0.360 OA
HETATM   11  H   UNL     1      63.073   9.159   1.876  1.00  0.00     0.217 HD
ENDBRANCH   2  10
BRANCH   3  12
HETATM   12  O   UNL     1      62.896   7.548   7.015  1.00  0.00    -0.360 OA
HETATM   13  H   UNL     1      62.453   8.020   7.692  1.00  0.00     0.217 HD
ENDBRANCH   3  12
TORSDOF 3
ENDMDL
MODEL 9
REMARK VINA RESULT:      -3.9      4.768      5.643
REMARK  3 active torsions:
REMARK  status: ('A' for Active; 'I' for Inactive)
REMARK    1  A    between atoms: C_1  and  C_2 
REMARK    2  A    between atoms: C_3  and  O_6 
REMARK    3  A    between atoms: C_4  and  O_7 
ROOT
HETATM    1  C   UNL     1      66.846   6.384   6.942  1.00  0.00     0.075 A 
HETATM    2  C   UNL     1      66.876   5.243   6.121  1.00  0.00     0.082 A 
HETATM    3  C   UNL     1      66.914   7.646   6.329  1.00  0.00     0.082 A 
HETATM    4  C   UNL     1      67.078   6.623   4.145  1.00  0.00     0.005 A 
HETATM    5  C   UNL     1      66.986   5.362   4.733  1.00  0.00     0.037 A 
HETATM    6  C   UNL     1      67.039   7.764   4.941  1.00  0.00     0.037 A 
ENDROOT
BRANCH   1   7
HETATM    7  C   UNL     1      66.821   6.274   8.431  1.00  0.00     0.161 C 
HETATM    8  O   UNL     1      65.802   6.558   9.062  1.00  0.00    -0.293 OA
HETATM    9  C   UNL     1      68.073   5.846   9.155  1.00  0.00     0.097 C 
ENDBRANCH   1   7
BRANCH   2  10
HETATM   10  O   UNL     1      66.824   3.987   6.662  1.00  0.00    -0.360 OA
HETATM   11  H   UNL     1      67.413   3.323   6.362  1.00  0.00     0.217 HD
ENDBRANCH   2  10
BRANCH   3  12
HETATM   12  O   UNL     1      66.812   8.787   7.071  1.00  0.00    -0.360 OA
HETATM   13  H   UNL     1      67.473   9.449   7.005  1.00  0.00     0.217 HD
ENDBRANCH   3  12
TORSDOF 3
ENDMDL
