MODEL 1
REMARK VINA RESULT:      -4.1      0.000      0.000
REMARK  2 active torsions:
REMARK  status: ('A' for Active; 'I' for Inactive)
REMARK    1  A    between atoms: C_1  and  N_5 
REMARK    2  A    between atoms: C_4  and  N_6 
ROOT
HETATM    1  C   UNL     1      63.031  10.871   5.272  1.00  0.00     0.125 A 
HETATM    2  N   UNL     1      62.278  11.659   4.486  1.00  0.00    -0.351 N 
ATOM      3  HN  UNL     1      62.065  12.624   4.739  1.00  0.00     0.166 HD
HETATM    4  C   UNL     1      63.298   9.513   5.003  1.00  0.00     0.070 A 
HETATM    5  C   UNL     1      61.817  11.105   3.344  1.00  0.00     0.090 A 
HETATM    6  C   UNL     1      62.866   9.008   3.780  1.00  0.00     0.034 A 
HETATM    7  C   UNL     1      62.093   9.807   2.943  1.00  0.00     0.019 A 
ENDROOT
BRANCH   1   8
HETATM    8  N   UNL     1      63.554  11.457   6.439  1.00  0.00    -0.384 N 
HETATM    9  H   UNL     1      63.560  12.437   6.539  1.00  0.00     0.157 HD
HETATM   10  H   UNL     1      63.915  10.887   7.156  1.00  0.00     0.157 HD
ENDBRANCH   1   8
BRANCH   4  11
HETATM   11  N   UNL     1      64.165   8.764   5.828  1.00  0.00    -0.396 N 
HETATM   12  H   UNL     1      64.307   9.031   6.766  1.00  0.00     0.156 HD
HETATM   13  H   UNL     1      64.629   7.973   5.466  1.00  0.00     0.156 HD
ENDBRANCH   4  11
TORSDOF 2
ENDMDL
MODEL 2
REMARK VINA RESULT:      -3.9      0.959      2.260
REMARK  2 active torsions:
REMARK  status: ('A' for Active; 'I' for Inactive)
REMARK    1  A    between atoms: C_1  and  N_5 
REMARK    2  A    between atoms: C_4  and  N_6 
ROOT
HETATM    1  C   UNL     1      63.658   9.364   4.960  1.00  0.00     0.125 A 
HETATM    2  N   UNL     1      63.323   8.622   3.891  1.00  0.00    -0.351 N 
ATOM      3  HN  UNL     1      63.725   7.698   3.731  1.00  0.00     0.166 HD
HETATM    4  C   UNL     1      63.185  10.673   5.191  1.00  0.00     0.070 A 
HETATM    5  C   UNL     1      62.427   9.166   3.038  1.00  0.00     0.090 A 
HETATM    6  C   UNL     1      62.209  11.160   4.328  1.00  0.00     0.034 A 
HETATM    7  C   UNL     1      61.836  10.407   3.219  1.00  0.00     0.019 A 
ENDROOT
BRANCH   1   8
HETATM    8  N   UNL     1      64.554   8.784   5.877  1.00  0.00    -0.384 N 
HETATM    9  H   UNL     1      64.352   7.907   6.276  1.00  0.00     0.157 HD
HETATM   10  H   UNL     1      65.384   9.256   6.120  1.00  0.00     0.157 HD
ENDBRANCH   1   8
BRANCH   4  11
HETATM   11  N   UNL     1      63.513  11.366   6.377  1.00  0.00    -0.396 N 
HETATM   12  H   UNL     1      63.063  11.137   7.223  1.00  0.00     0.156 HD
HETATM   13  H   UNL     1      64.191  12.080   6.359  1.00  0.00     0.156 HD
ENDBRANCH   4  11
TORSDOF 2
ENDMDL
MODEL 3
REMARK VINA RESULT:      -3.7      1.175      2.597
REMARK  2 active torsions:
REMARK  status: ('A' for Active; 'I' for Inactive)
REMARK    1  A    between atoms: C_1  and  N_5 
REMARK    2  A    between atoms: C_4  and  N_6 
ROOT
HETATM    1  C   UNL     1      62.852  10.149   5.222  1.00  0.00     0.125 A 
HETATM    2  N   UNL     1      63.184   9.010   5.853  1.00  0.00    -0.351 N 
ATOM      3  HN  UNL     1      63.708   9.014   6.728  1.00  0.00     0.166 HD
HETATM    4  C   UNL     1      62.189  10.197   3.979  1.00  0.00     0.070 A 
HETATM    5  C   UNL     1      62.786   7.860   5.267  1.00  0.00     0.090 A 
HETATM    6  C   UNL     1      61.734   8.993   3.451  1.00  0.00     0.034 A 
HETATM    7  C   UNL     1      62.054   7.800   4.091  1.00  0.00     0.019 A 
ENDROOT
BRANCH   1   8
HETATM    8  N   UNL     1      63.221  11.352   5.853  1.00  0.00    -0.384 N 
HETATM    9  H   UNL     1      63.175  11.429   6.833  1.00  0.00     0.157 HD
HETATM   10  H   UNL     1      63.527  12.117   5.312  1.00  0.00     0.157 HD
ENDBRANCH   1   8
BRANCH   4  11
HETATM   11  N   UNL     1      61.798  11.430   3.410  1.00  0.00    -0.396 N 
HETATM   12  H   UNL     1      62.125  12.276   3.793  1.00  0.00     0.156 HD
HETATM   13  H   UNL     1      61.196  11.443   2.630  1.00  0.00     0.156 HD
ENDBRANCH   4  11
TORSDOF 2
ENDMDL
MODEL 4
REMARK VINA RESULT:      -3.5      1.517      2.664
REMARK  2 active torsions:
REMARK  status: ('A' for Active; 'I' for Inactive)
REMARK    1  A    between atoms: C_1  and  N_5 
REMARK    2  A    between atoms: C_4  and  N_6 
ROOT
HETATM    1  C   UNL     1      62.391  10.042   3.696  1.00  0.00     0.125 A 
HETATM    2  N   UNL     1      62.372   9.038   2.803  1.00  0.00    -0.351 N 
ATOM      3  HN  UNL     1      61.804   9.083   1.956  1.00  0.00     0.166 HD
HETATM    4  C   UNL     1      63.104  10.002   4.912  1.00  0.00     0.070 A 
HETATM    5  C   UNL     1      63.145   7.967   3.085  1.00  0.00     0.090 A 
HETATM    6  C   UNL     1      63.943   8.912   5.124  1.00  0.00     0.034 A 
HETATM    7  C   UNL     1      63.951   7.864   4.208  1.00  0.00     0.019 A 
ENDROOT
BRANCH   1   8
HETATM    8  N   UNL     1      61.626  11.181   3.384  1.00  0.00    -0.384 N 
HETATM    9  H   UNL     1      61.000  11.550   4.048  1.00  0.00     0.157 HD
HETATM   10  H   UNL     1      61.717  11.608   2.502  1.00  0.00     0.157 HD
ENDBRANCH   1   8
BRANCH   4  11
HETATM   11  N   UNL     1      63.147  11.124   5.769  1.00  0.00    -0.396 N 
HETATM   12  H   UNL     1      63.238  10.999   6.741  1.00  0.00     0.156 HD
HETATM   13  H   UNL     1      63.084  12.033   5.393  1.00  0.00     0.156 HD
ENDBRANCH   4  11
TORSDOF 2
ENDMDL
MODEL 5
REMARK VINA RESULT:      -3.5      2.243      3.804
REMARK  2 active torsions:
REMARK  status: ('A' for Active; 'I' for Inactive)
REMARK    1  A    between atoms: C_1  and  N_5 
REMARK    2  A    between atoms: C_4  and  N_6 
ROOT
HETATM    1  C   UNL     1      62.346   9.414   2.347  1.00  0.00     0.125 A 
HETATM    2  N   UNL     1      62.892   8.392   3.028  1.00  0.00    -0.351 N 
ATOM      3  HN  UNL     1      63.110   7.503   2.578  1.00  0.00     0.166 HD
HETATM    4  C   UNL     1      61.963  10.637   2.935  1.00  0.00     0.070 A 
HETATM    5  C   UNL     1      63.137   8.605   4.339  1.00  0.00     0.090 A 
HETATM    6  C   UNL     1      62.303  10.838   4.269  1.00  0.00     0.034 A 
HETATM    7  C   UNL     1      62.880   9.799   4.994  1.00  0.00     0.019 A 
ENDROOT
BRANCH   1   8
HETATM    8  N   UNL     1      62.132   9.215   0.971  1.00  0.00    -0.384 N 
HETATM    9  H   UNL     1      61.571   8.468   0.662  1.00  0.00     0.157 HD
HETATM   10  H   UNL     1      62.545   9.824   0.316  1.00  0.00     0.157 HD
ENDBRANCH   1   8
BRANCH   4  11
HETATM   11  N   UNL     1      61.469  11.701   2.147  1.00  0.00    -0.396 N 
HETATM   12  H   UNL     1      61.969  12.548   2.093  1.00  0.00     0.156 HD
HETATM   13  H   UNL     1      60.624  11.596   1.653  1.00  0.00     0.156 HD
ENDBRANCH   4  11
TORSDOF 2
ENDMDL
MODEL 6
REMARK VINA RESULT:      -3.5      1.725      2.902
REMARK  2 active torsions:
REMARK  status: ('A' for Active; 'I' for Inactive)
REMARK    1  A    between atoms: C_1  and  N_5 
REMARK    2  A    between atoms: C_4  and  N_6 
ROOT
HETATM    1  C   UNL     1      62.048  10.674   3.182  1.00  0.00     0.125 A 
HETATM    2  N   UNL     1      62.272  11.264   4.368  1.00  0.00    -0.351 N 
ATOM      3  HN  UNL     1      61.998  12.230   4.548  1.00  0.00     0.166 HD
HETATM    4  C   UNL     1      62.467   9.366   2.860  1.00  0.00     0.070 A 
HETATM    5  C   UNL     1      62.879  10.510   5.310  1.00  0.00     0.090 A 
HETATM    6  C   UNL     1      63.019   8.603   3.884  1.00  0.00     0.034 A 
HETATM    7  C   UNL     1      63.252   9.187   5.126  1.00  0.00     0.019 A 
ENDROOT
BRANCH   1   8
HETATM    8  N   UNL     1      61.373  11.439   2.212  1.00  0.00    -0.384 N 
HETATM    9  H   UNL     1      61.388  11.161   1.268  1.00  0.00     0.157 HD
HETATM   10  H   UNL     1      60.886  12.252   2.479  1.00  0.00     0.157 HD
ENDBRANCH   1   8
BRANCH   4  11
HETATM   11  N   UNL     1      62.128   8.777   1.622  1.00  0.00    -0.396 N 
HETATM   12  H   UNL     1      61.552   7.978   1.598  1.00  0.00     0.156 HD
HETATM   13  H   UNL     1      62.468   9.165   0.783  1.00  0.00     0.156 HD
ENDBRANCH   4  11
TORSDOF 2
ENDMDL
MODEL 7
REMARK VINA RESULT:      -3.4      1.827      2.562
REMARK  2 active torsions:
REMARK  status: ('A' for Active; 'I' for Inactive)
REMARK    1  A    between atoms: C_1  and  N_5 
REMARK    2  A    between atoms: C_4  and  N_6 
ROOT
HETATM    1  C   UNL     1      62.436   9.385   3.847  1.00  0.00     0.125 A 
HETATM    2  N   UNL     1      62.216  10.646   4.253  1.00  0.00    -0.351 N 
ATOM      3  HN  UNL     1      62.294  10.915   5.234  1.00  0.00     0.166 HD
HETATM    4  C   UNL     1      62.275   8.946   2.516  1.00  0.00     0.070 A 
HETATM    5  C   UNL     1      61.886  11.539   3.295  1.00  0.00     0.090 A 
HETATM    6  C   UNL     1      62.008   9.914   1.553  1.00  0.00     0.034 A 
HETATM    7  C   UNL     1      61.787  11.231   1.947  1.00  0.00     0.019 A 
ENDROOT
BRANCH   1   8
HETATM    8  N   UNL     1      62.827   8.461   4.833  1.00  0.00    -0.384 N 
HETATM    9  H   UNL     1      63.132   7.561   4.572  1.00  0.00     0.157 HD
HETATM   10  H   UNL     1      62.797   8.714   5.784  1.00  0.00     0.157 HD
ENDBRANCH   1   8
BRANCH   4  11
HETATM   11  N   UNL     1      62.602   7.624   2.140  1.00  0.00    -0.396 N 
HETATM   12  H   UNL     1      63.521   7.291   2.259  1.00  0.00     0.156 HD
HETATM   13  H   UNL     1      61.911   7.036   1.758  1.00  0.00     0.156 HD
ENDBRANCH   4  11
TORSDOF 2
ENDMDL
MODEL 8
REMARK VINA RESULT:      -3.2      2.192      3.092
REMARK  2 active torsions:
REMARK  status: ('A' for Active; 'I' for Inactive)
REMARK    1  A    between atoms: C_1  and  N_5 
REMARK    2  A    between atoms: C_4  and  N_6 
ROOT
HETATM    1  C   UNL     1      62.048   9.551   2.266  1.00  0.00     0.125 A 
HETATM    2  N   UNL     1      61.579  10.770   2.579  1.00  0.00    -0.351 N 
ATOM      3  HN  UNL     1      61.026  11.318   1.919  1.00  0.00     0.166 HD
HETATM    4  C   UNL     1      62.873   8.783   3.114  1.00  0.00     0.070 A 
HETATM    5  C   UNL     1      61.878  11.233   3.812  1.00  0.00     0.090 A 
HETATM    6  C   UNL     1      63.091   9.265   4.400  1.00  0.00     0.034 A 
HETATM    7  C   UNL     1      62.607  10.521   4.753  1.00  0.00     0.019 A 
ENDROOT
BRANCH   1   8
HETATM    8  N   UNL     1      61.699   9.044   1.001  1.00  0.00    -0.384 N 
HETATM    9  H   UNL     1      62.396   8.893   0.322  1.00  0.00     0.157 HD
HETATM   10  H   UNL     1      60.758   8.839   0.795  1.00  0.00     0.157 HD
ENDBRANCH   1   8
BRANCH   4  11
HETATM   11  N   UNL     1      63.265   7.473   2.757  1.00  0.00    -0.396 N 
HETATM   12  H   UNL     1      63.175   7.168   1.825  1.00  0.00     0.156 HD
HETATM   13  H   UNL     1      63.627   6.864   3.442  1.00  0.00     0.156 HD
ENDBRANCH   4  11
TORSDOF 2
ENDMDL
MODEL 9
REMARK VINA RESULT:      -3.2      5.040      6.509
REMARK  2 active torsions:
REMARK  status: ('A' for Active; 'I' for Inactive)
REMARK    1  A    between atoms: C_1  and  N_5 
REMARK    2  A    between atoms: C_4  and  N_6 
ROOT
HETATM    1  C   UNL     1      66.401   7.305   6.881  1.00  0.00     0.125 A 
HETATM    2  N   UNL     1      65.829   6.917   8.033  1.00  0.00    -0.351 N 
ATOM      3  HN  UNL     1      65.013   7.395   8.414  1.00  0.00     0.166 HD
HETATM    4  C   UNL     1      67.569   6.722   6.345  1.00  0.00     0.070 A 
HETATM    5  C   UNL     1      66.391   5.860   8.658  1.00  0.00     0.090 A 
HETATM    6  C   UNL     1      68.068   5.591   6.984  1.00  0.00     0.034 A 
HETATM    7  C   UNL     1      67.486   5.162   8.173  1.00  0.00     0.019 A 
ENDROOT
BRANCH   1   8
HETATM    8  N   UNL     1      65.792   8.375   6.200  1.00  0.00    -0.384 N 
HETATM    9  H   UNL     1      64.818   8.507   6.263  1.00  0.00     0.157 HD
HETATM   10  H   UNL     1      66.339   8.990   5.660  1.00  0.00     0.157 HD
ENDBRANCH   1   8
BRANCH   4  11
HETATM   11  N   UNL     1      68.073   7.124   5.088  1.00  0.00    -0.396 N 
HETATM   12  H   UNL     1      67.463   7.490   4.407  1.00  0.00     0.156 HD
HETATM   13  H   UNL     1      69.034   7.037   4.893  1.00  0.00     0.156 HD
ENDBRANCH   4  11
TORSDOF 2
ENDMDL
