MODEL 1
REMARK VINA RESULT:      -4.7      0.000      0.000
REMARK  1 active torsions:
REMARK  status: ('A' for Active; 'I' for Inactive)
REMARK    1  A    between atoms: C_4  and  N_6 
ROOT
HETATM    1  C   UNL     1      63.189   9.292   4.559  1.00  0.00     0.092 A 
HETATM    2  C   UNL     1      63.936   8.420   5.417  1.00  0.00     0.103 C 
HETATM    3  N   UNL     1      64.573   7.756   6.128  1.00  0.00    -0.191 NA
HETATM    4  C   UNL     1      62.835  10.583   5.006  1.00  0.00     0.048 A 
HETATM    5  C   UNL     1      62.841   8.882   3.262  1.00  0.00     0.057 A 
HETATM    6 CL   UNL     1      63.230   7.309   2.656  1.00  0.00    -0.083 Cl
HETATM    7  C   UNL     1      61.762  11.004   2.858  1.00  0.00     0.004 A 
HETATM    8  C   UNL     1      62.081  11.405   4.155  1.00  0.00     0.030 A 
HETATM    9  C   UNL     1      62.142   9.741   2.411  1.00  0.00     0.025 A 
ENDROOT
BRANCH   4  10
HETATM   10  N   UNL     1      63.003  10.994   6.341  1.00  0.00    -0.398 N 
HETATM   11  H   UNL     1      62.222  11.058   6.938  1.00  0.00     0.156 HD
HETATM   12  H   UNL     1      63.900  11.218   6.679  1.00  0.00     0.156 HD
ENDBRANCH   4  10
TORSDOF 1
ENDMDL
MODEL 2
REMARK VINA RESULT:      -4.6      2.115      2.893
REMARK  1 active torsions:
REMARK  status: ('A' for Active; 'I' for Inactive)
REMARK    1  A    between atoms: C_4  and  N_6 
ROOT
HETATM    1  C   UNL     1      62.869   9.126   4.023  1.00  0.00     0.092 A 
HETATM    2  C   UNL     1      63.398   8.450   5.172  1.00  0.00     0.103 C 
HETATM    3  N   UNL     1      63.796   7.858   6.090  1.00  0.00    -0.191 NA
HETATM    4  C   UNL     1      62.728   8.431   2.803  1.00  0.00     0.048 A 
HETATM    5  C   UNL     1      62.457  10.465   4.117  1.00  0.00     0.057 A 
HETATM    6 CL   UNL     1      62.616  11.379   5.577  1.00  0.00    -0.083 Cl
HETATM    7  C   UNL     1      61.798  10.447   1.794  1.00  0.00     0.004 A 
HETATM    8  C   UNL     1      62.233   9.125   1.689  1.00  0.00     0.030 A 
HETATM    9  C   UNL     1      61.911  11.117   3.008  1.00  0.00     0.025 A 
ENDROOT
BRANCH   4  10
HETATM   10  N   UNL     1      63.272   7.150   2.594  1.00  0.00    -0.398 N 
HETATM   11  H   UNL     1      62.827   6.521   1.980  1.00  0.00     0.156 HD
HETATM   12  H   UNL     1      64.096   6.884   3.059  1.00  0.00     0.156 HD
ENDBRANCH   4  10
TORSDOF 1
ENDMDL
MODEL 3
REMARK VINA RESULT:      -4.5      2.524      3.228
REMARK  1 active torsions:
REMARK  status: ('A' for Active; 'I' for Inactive)
REMARK    1  A    between atoms: C_4  and  N_6 
ROOT
HETATM    1  C   UNL     1      62.469   9.457   2.809  1.00  0.00     0.092 A 
HETATM    2  C   UNL     1      62.219   8.901   1.512  1.00  0.00     0.103 C 
HETATM    3  N   UNL     1      61.965   8.469   0.463  1.00  0.00    -0.191 NA
HETATM    4  C   UNL     1      61.974  10.740   3.130  1.00  0.00     0.048 A 
HETATM    5  C   UNL     1      63.170   8.717   3.775  1.00  0.00     0.057 A 
HETATM    6 CL   UNL     1      63.816   7.147   3.443  1.00  0.00    -0.083 Cl
HETATM    7  C   UNL     1      62.929  10.520   5.363  1.00  0.00     0.004 A 
HETATM    8  C   UNL     1      62.256  11.270   4.398  1.00  0.00     0.030 A 
HETATM    9  C   UNL     1      63.387   9.243   5.051  1.00  0.00     0.025 A 
ENDROOT
BRANCH   4  10
HETATM   10  N   UNL     1      61.414  11.598   2.166  1.00  0.00    -0.398 N 
HETATM   11  H   UNL     1      62.000  12.150   1.599  1.00  0.00     0.156 HD
HETATM   12  H   UNL     1      60.437  11.648   2.060  1.00  0.00     0.156 HD
ENDBRANCH   4  10
TORSDOF 1
ENDMDL
MODEL 4
REMARK VINA RESULT:      -4.5      1.741      2.717
REMARK  1 active torsions:
REMARK  status: ('A' for Active; 'I' for Inactive)
REMARK    1  A    between atoms: C_4  and  N_6 
ROOT
HETATM    1  C   UNL     1      62.644   9.630   3.733  1.00  0.00     0.092 A 
HETATM    2  C   UNL     1      62.848  10.354   4.955  1.00  0.00     0.103 C 
HETATM    3  N   UNL     1      63.032  10.983   5.915  1.00  0.00    -0.191 NA
HETATM    4  C   UNL     1      62.102  10.289   2.609  1.00  0.00     0.048 A 
HETATM    5  C   UNL     1      63.017   8.280   3.640  1.00  0.00     0.057 A 
HETATM    6 CL   UNL     1      63.673   7.408   4.983  1.00  0.00    -0.083 Cl
HETATM    7  C   UNL     1      62.286   8.216   1.339  1.00  0.00     0.004 A 
HETATM    8  C   UNL     1      61.889   9.550   1.436  1.00  0.00     0.030 A 
HETATM    9  C   UNL     1      62.850   7.580   2.442  1.00  0.00     0.025 A 
ENDROOT
BRANCH   4  10
HETATM   10  N   UNL     1      61.555  11.583   2.681  1.00  0.00    -0.398 N 
HETATM   11  H   UNL     1      60.586  11.702   2.807  1.00  0.00     0.156 HD
HETATM   12  H   UNL     1      62.141  12.370   2.605  1.00  0.00     0.156 HD
ENDBRANCH   4  10
TORSDOF 1
ENDMDL
MODEL 5
REMARK VINA RESULT:      -4.5      1.597      2.200
REMARK  1 active torsions:
REMARK  status: ('A' for Active; 'I' for Inactive)
REMARK    1  A    between atoms: C_4  and  N_6 
ROOT
HETATM    1  C   UNL     1      63.000   8.814   3.535  1.00  0.00     0.092 A 
HETATM    2  C   UNL     1      63.422   7.522   3.076  1.00  0.00     0.103 C 
HETATM    3  N   UNL     1      63.813   6.485   2.727  1.00  0.00    -0.191 NA
HETATM    4  C   UNL     1      63.356   9.249   4.829  1.00  0.00     0.048 A 
HETATM    5  C   UNL     1      62.268   9.662   2.688  1.00  0.00     0.057 A 
HETATM    6 CL   UNL     1      61.786   9.185   1.096  1.00  0.00    -0.083 Cl
HETATM    7  C   UNL     1      62.204  11.357   4.407  1.00  0.00     0.004 A 
HETATM    8  C   UNL     1      62.907  10.506   5.261  1.00  0.00     0.030 A 
HETATM    9  C   UNL     1      61.884  10.934   3.120  1.00  0.00     0.025 A 
ENDROOT
BRANCH   4  10
HETATM   10  N   UNL     1      63.939   8.394   5.782  1.00  0.00    -0.398 N 
HETATM   11  H   UNL     1      63.852   7.418   5.686  1.00  0.00     0.156 HD
HETATM   12  H   UNL     1      64.433   8.772   6.545  1.00  0.00     0.156 HD
ENDBRANCH   4  10
TORSDOF 1
ENDMDL
MODEL 6
REMARK VINA RESULT:      -4.5      1.898      3.151
REMARK  1 active torsions:
REMARK  status: ('A' for Active; 'I' for Inactive)
REMARK    1  A    between atoms: C_4  and  N_6 
ROOT
HETATM    1  C   UNL     1      62.649   9.529   3.626  1.00  0.00     0.092 A 
HETATM    2  C   UNL     1      62.830  10.274   4.837  1.00  0.00     0.103 C 
HETATM    3  N   UNL     1      62.956  10.835   5.847  1.00  0.00    -0.191 NA
HETATM    4  C   UNL     1      62.971   8.155   3.592  1.00  0.00     0.048 A 
HETATM    5  C   UNL     1      62.118  10.150   2.484  1.00  0.00     0.057 A 
HETATM    6 CL   UNL     1      61.717  11.833   2.453  1.00  0.00    -0.083 Cl
HETATM    7  C   UNL     1      62.255   8.072   1.263  1.00  0.00     0.004 A 
HETATM    8  C   UNL     1      62.809   7.457   2.386  1.00  0.00     0.030 A 
HETATM    9  C   UNL     1      61.910   9.420   1.312  1.00  0.00     0.025 A 
ENDROOT
BRANCH   4  10
HETATM   10  N   UNL     1      63.658   7.512   4.638  1.00  0.00    -0.398 N 
HETATM   11  H   UNL     1      63.814   6.540   4.600  1.00  0.00     0.156 HD
HETATM   12  H   UNL     1      63.983   8.033   5.407  1.00  0.00     0.156 HD
ENDBRANCH   4  10
TORSDOF 1
ENDMDL
MODEL 7
REMARK VINA RESULT:      -4.3      1.773      3.235
REMARK  1 active torsions:
REMARK  status: ('A' for Active; 'I' for Inactive)
REMARK    1  A    between atoms: C_4  and  N_6 
ROOT
HETATM    1  C   UNL     1      62.622   9.474   3.548  1.00  0.00     0.092 A 
HETATM    2  C   UNL     1      62.147  10.817   3.384  1.00  0.00     0.103 C 
HETATM    3  N   UNL     1      61.735  11.900   3.299  1.00  0.00    -0.191 NA
HETATM    4  C   UNL     1      63.018   9.020   4.824  1.00  0.00     0.048 A 
HETATM    5  C   UNL     1      62.657   8.596   2.452  1.00  0.00     0.057 A 
HETATM    6 CL   UNL     1      62.198   9.092   0.859  1.00  0.00    -0.083 Cl
HETATM    7  C   UNL     1      63.509   6.833   3.864  1.00  0.00     0.004 A 
HETATM    8  C   UNL     1      63.503   7.709   4.950  1.00  0.00     0.030 A 
HETATM    9  C   UNL     1      63.086   7.277   2.614  1.00  0.00     0.025 A 
ENDROOT
BRANCH   4  10
HETATM   10  N   UNL     1      63.167   9.886   5.923  1.00  0.00    -0.398 N 
HETATM   11  H   UNL     1      63.157  10.861   5.786  1.00  0.00     0.156 HD
HETATM   12  H   UNL     1      63.281   9.517   6.828  1.00  0.00     0.156 HD
ENDBRANCH   4  10
TORSDOF 1
ENDMDL
MODEL 8
REMARK VINA RESULT:      -4.2      2.245      3.098
REMARK  1 active torsions:
REMARK  status: ('A' for Active; 'I' for Inactive)
REMARK    1  A    between atoms: C_4  and  N_6 
ROOT
HETATM    1  C   UNL     1      63.865   8.667   4.521  1.00  0.00     0.092 A 
HETATM    2  C   UNL     1      64.978   8.680   5.425  1.00  0.00     0.103 C 
HETATM    3  N   UNL     1      65.873   8.637   6.165  1.00  0.00    -0.191 NA
HETATM    4  C   UNL     1      63.716   7.604   3.605  1.00  0.00     0.048 A 
HETATM    5  C   UNL     1      62.901   9.688   4.569  1.00  0.00     0.057 A 
HETATM    6 CL   UNL     1      63.030  11.027   5.657  1.00  0.00    -0.083 Cl
HETATM    7  C   UNL     1      61.663   8.632   2.786  1.00  0.00     0.004 A 
HETATM    8  C   UNL     1      62.632   7.631   2.715  1.00  0.00     0.030 A 
HETATM    9  C   UNL     1      61.797   9.661   3.713  1.00  0.00     0.025 A 
ENDROOT
BRANCH   4  10
HETATM   10  N   UNL     1      64.723   6.645   3.389  1.00  0.00    -0.398 N 
HETATM   11  H   UNL     1      64.500   5.785   2.964  1.00  0.00     0.156 HD
HETATM   12  H   UNL     1      65.649   6.833   3.662  1.00  0.00     0.156 HD
ENDBRANCH   4  10
TORSDOF 1
ENDMDL
MODEL 9
REMARK VINA RESULT:      -4.1      2.664      3.200
REMARK  1 active torsions:
REMARK  status: ('A' for Active; 'I' for Inactive)
REMARK    1  A    between atoms: C_4  and  N_6 
ROOT
HETATM    1  C   UNL     1      62.629   8.685   2.879  1.00  0.00     0.092 A 
HETATM    2  C   UNL     1      63.014   7.309   2.758  1.00  0.00     0.103 C 
HETATM    3  N   UNL     1      63.283   6.186   2.627  1.00  0.00    -0.191 NA
HETATM    4  C   UNL     1      62.190   9.394   1.740  1.00  0.00     0.048 A 
HETATM    5  C   UNL     1      62.649   9.319   4.132  1.00  0.00     0.057 A 
HETATM    6 CL   UNL     1      63.189   8.513   5.565  1.00  0.00    -0.083 Cl
HETATM    7  C   UNL     1      61.840  11.363   3.135  1.00  0.00     0.004 A 
HETATM    8  C   UNL     1      61.845  10.746   1.883  1.00  0.00     0.030 A 
HETATM    9  C   UNL     1      62.243  10.650   4.260  1.00  0.00     0.025 A 
ENDROOT
BRANCH   4  10
HETATM   10  N   UNL     1      62.303   8.877   0.437  1.00  0.00    -0.398 N 
HETATM   11  H   UNL     1      63.008   9.210  -0.165  1.00  0.00     0.156 HD
HETATM   12  H   UNL     1      61.678   8.183   0.127  1.00  0.00     0.156 HD
ENDBRANCH   4  10
TORSDOF 1
ENDMDL
