MODEL 1
REMARK VINA RESULT:      -5.3      0.000      0.000
REMARK  2 active torsions:
REMARK  status: ('A' for Active; 'I' for Inactive)
REMARK    1  A    between atoms: C_1  and  C_3 
REMARK    2  A    between atoms: C_2  and  N_4 
REMARK       I    between atoms: C_3  and  N_6 
ROOT
HETATM    1  C   UNL     1      62.555   9.768   4.048  1.00  0.00     0.058 A 
HETATM    2  C   UNL     1      62.675   8.565   3.304  1.00  0.00     0.046 A 
HETATM    3  C   UNL     1      62.106  10.958   3.441  1.00  0.00     0.019 A 
HETATM    4  C   UNL     1      62.319   8.639   1.938  1.00  0.00     0.030 A 
HETATM    5  C   UNL     1      61.786  10.990   2.088  1.00  0.00     0.001 A 
HETATM    6  C   UNL     1      61.889   9.830   1.338  1.00  0.00     0.002 A 
ENDROOT
BRANCH   2   7
HETATM    7  N   UNL     1      63.163   7.362   3.867  1.00  0.00    -0.380 N 
HETATM    8  C   UNL     1      64.576   7.017   3.619  1.00  0.00     0.123 C 
HETATM    9  C   UNL     1      65.029   6.005   4.668  1.00  0.00     0.020 C 
HETATM   10  C   UNL     1      64.136   4.765   4.663  1.00  0.00     0.003 C 
HETATM   11  C   UNL     1      62.662   5.149   4.781  1.00  0.00     0.020 C 
HETATM   12  C   UNL     1      62.265   6.192   3.727  1.00  0.00     0.123 C 
ENDBRANCH   2   7
BRANCH   1  13
HETATM   13  C   UNL     1      62.936   9.913   5.488  1.00  0.00     0.251 C 
HETATM   14  O   UNL     1      62.904   8.966   6.263  1.00  0.00    -0.268 OA
HETATM   15  N   UNL     1      63.305  11.155   5.908  1.00  0.00    -0.366 N 
HETATM   16  H   UNL     1      63.324  11.906   5.270  1.00  0.00     0.159 HD
HETATM   17  H   UNL     1      63.553  11.304   6.849  1.00  0.00     0.159 HD
ENDBRANCH   1  13
TORSDOF 2
ENDMDL
MODEL 2
REMARK VINA RESULT:      -5.3      1.685      1.940
REMARK  2 active torsions:
REMARK  status: ('A' for Active; 'I' for Inactive)
REMARK    1  A    between atoms: C_1  and  C_3 
REMARK    2  A    between atoms: C_2  and  N_4 
REMARK       I    between atoms: C_3  and  N_6 
ROOT
HETATM    1  C   UNL     1      62.454   9.753   3.524  1.00  0.00     0.058 A 
HETATM    2  C   UNL     1      63.111   8.493   3.539  1.00  0.00     0.046 A 
HETATM    3  C   UNL     1      61.759  10.197   2.382  1.00  0.00     0.019 A 
HETATM    4  C   UNL     1      63.021   7.730   2.354  1.00  0.00     0.030 A 
HETATM    5  C   UNL     1      61.714   9.421   1.229  1.00  0.00     0.001 A 
HETATM    6  C   UNL     1      62.342   8.186   1.216  1.00  0.00     0.002 A 
ENDROOT
BRANCH   2   7
HETATM    7  N   UNL     1      63.854   8.031   4.651  1.00  0.00    -0.380 N 
HETATM    8  C   UNL     1      65.326   8.096   4.561  1.00  0.00     0.123 C 
HETATM    9  C   UNL     1      65.909   8.034   5.971  1.00  0.00     0.020 C 
HETATM   10  C   UNL     1      65.443   6.780   6.708  1.00  0.00     0.003 C 
HETATM   11  C   UNL     1      63.921   6.654   6.672  1.00  0.00     0.020 C 
HETATM   12  C   UNL     1      63.382   6.756   5.238  1.00  0.00     0.123 C 
ENDBRANCH   2   7
BRANCH   1  13
HETATM   13  C   UNL     1      62.479  10.733   4.654  1.00  0.00     0.251 C 
HETATM   14  O   UNL     1      62.035  11.868   4.535  1.00  0.00    -0.268 OA
HETATM   15  N   UNL     1      63.037  10.314   5.824  1.00  0.00    -0.366 N 
HETATM   16  H   UNL     1      63.390   9.398   5.901  1.00  0.00     0.159 HD
HETATM   17  H   UNL     1      63.088  10.927   6.592  1.00  0.00     0.159 HD
ENDBRANCH   1  13
TORSDOF 2
ENDMDL
MODEL 3
REMARK VINA RESULT:      -5.1      2.005      3.255
REMARK  2 active torsions:
REMARK  status: ('A' for Active; 'I' for Inactive)
REMARK    1  A    between atoms: C_1  and  C_3 
REMARK    2  A    between atoms: C_2  and  N_4 
REMARK       I    between atoms: C_3  and  N_6 
ROOT
HETATM    1  C   UNL     1      62.522   8.957   2.519  1.00  0.00     0.058 A 
HETATM    2  C   UNL     1      62.845   9.217   3.878  1.00  0.00     0.046 A 
HETATM    3  C   UNL     1      61.923   9.944   1.712  1.00  0.00     0.019 A 
HETATM    4  C   UNL     1      62.531  10.509   4.356  1.00  0.00     0.030 A 
HETATM    5  C   UNL     1      61.613  11.196   2.230  1.00  0.00     0.001 A 
HETATM    6  C   UNL     1      61.921  11.480   3.551  1.00  0.00     0.002 A 
ENDROOT
BRANCH   2   7
HETATM    7  N   UNL     1      63.407   8.239   4.732  1.00  0.00    -0.380 N 
HETATM    8  C   UNL     1      62.550   7.696   5.803  1.00  0.00     0.123 C 
HETATM    9  C   UNL     1      63.130   6.364   6.272  1.00  0.00     0.020 C 
HETATM   10  C   UNL     1      64.579   6.522   6.733  1.00  0.00     0.003 C 
HETATM   11  C   UNL     1      65.423   7.213   5.664  1.00  0.00     0.020 C 
HETATM   12  C   UNL     1      64.781   8.529   5.203  1.00  0.00     0.123 C 
ENDBRANCH   2   7
BRANCH   1  13
HETATM   13  C   UNL     1      62.719   7.638   1.841  1.00  0.00     0.251 C 
HETATM   14  O   UNL     1      63.574   6.842   2.212  1.00  0.00    -0.268 OA
HETATM   15  N   UNL     1      61.915   7.363   0.777  1.00  0.00    -0.366 N 
HETATM   16  H   UNL     1      61.233   8.016   0.493  1.00  0.00     0.159 HD
HETATM   17  H   UNL     1      62.015   6.513   0.290  1.00  0.00     0.159 HD
ENDBRANCH   1  13
TORSDOF 2
ENDMDL
MODEL 4
REMARK VINA RESULT:      -5.1      2.070      3.204
REMARK  2 active torsions:
REMARK  status: ('A' for Active; 'I' for Inactive)
REMARK    1  A    between atoms: C_1  and  C_3 
REMARK    2  A    between atoms: C_2  and  N_4 
REMARK       I    between atoms: C_3  and  N_6 
ROOT
HETATM    1  C   UNL     1      62.159   9.673   2.842  1.00  0.00     0.058 A 
HETATM    2  C   UNL     1      62.862   8.847   3.760  1.00  0.00     0.046 A 
HETATM    3  C   UNL     1      61.835  11.005   3.163  1.00  0.00     0.019 A 
HETATM    4  C   UNL     1      63.207   9.443   4.994  1.00  0.00     0.030 A 
HETATM    5  C   UNL     1      62.177  11.545   4.398  1.00  0.00     0.001 A 
HETATM    6  C   UNL     1      62.867  10.764   5.312  1.00  0.00     0.002 A 
ENDROOT
BRANCH   2   7
HETATM    7  N   UNL     1      63.167   7.492   3.492  1.00  0.00    -0.380 N 
HETATM    8  C   UNL     1      62.161   6.480   3.865  1.00  0.00     0.123 C 
HETATM    9  C   UNL     1      62.434   5.199   3.080  1.00  0.00     0.020 C 
HETATM   10  C   UNL     1      63.857   4.696   3.319  1.00  0.00     0.003 C 
HETATM   11  C   UNL     1      64.881   5.800   3.062  1.00  0.00     0.020 C 
HETATM   12  C   UNL     1      64.544   7.075   3.848  1.00  0.00     0.123 C 
ENDBRANCH   2   7
BRANCH   1  13
HETATM   13  C   UNL     1      61.653   9.215   1.510  1.00  0.00     0.251 C 
HETATM   14  O   UNL     1      62.377   9.172   0.524  1.00  0.00    -0.268 OA
HETATM   15  N   UNL     1      60.339   8.863   1.436  1.00  0.00    -0.366 N 
HETATM   16  H   UNL     1      59.772   8.904   2.240  1.00  0.00     0.159 HD
HETATM   17  H   UNL     1      59.957   8.567   0.579  1.00  0.00     0.159 HD
ENDBRANCH   1  13
TORSDOF 2
ENDMDL
MODEL 5
REMARK VINA RESULT:      -5.0      1.716      3.907
REMARK  2 active torsions:
REMARK  status: ('A' for Active; 'I' for Inactive)
REMARK    1  A    between atoms: C_1  and  C_3 
REMARK    2  A    between atoms: C_2  and  N_4 
REMARK       I    between atoms: C_3  and  N_6 
ROOT
HETATM    1  C   UNL     1      63.662   9.145   4.684  1.00  0.00     0.058 A 
HETATM    2  C   UNL     1      63.306   8.111   3.777  1.00  0.00     0.046 A 
HETATM    3  C   UNL     1      64.842   9.065   5.450  1.00  0.00     0.019 A 
HETATM    4  C   UNL     1      64.199   7.019   3.695  1.00  0.00     0.030 A 
HETATM    5  C   UNL     1      65.682   7.961   5.352  1.00  0.00     0.001 A 
HETATM    6  C   UNL     1      65.362   6.940   4.471  1.00  0.00     0.002 A 
ENDROOT
BRANCH   2   7
HETATM    7  N   UNL     1      62.108   8.134   3.023  1.00  0.00    -0.380 N 
HETATM    8  C   UNL     1      61.060   7.159   3.379  1.00  0.00     0.123 C 
HETATM    9  C   UNL     1      59.724   7.645   2.825  1.00  0.00     0.020 C 
HETATM   10  C   UNL     1      59.799   7.868   1.315  1.00  0.00     0.003 C 
HETATM   11  C   UNL     1      60.976   8.771   0.950  1.00  0.00     0.020 C 
HETATM   12  C   UNL     1      62.289   8.257   1.558  1.00  0.00     0.123 C 
ENDBRANCH   2   7
BRANCH   1  13
HETATM   13  C   UNL     1      62.825  10.353   4.961  1.00  0.00     0.251 C 
HETATM   14  O   UNL     1      61.815  10.601   4.313  1.00  0.00    -0.268 OA
HETATM   15  N   UNL     1      63.244  11.181   5.957  1.00  0.00    -0.366 N 
HETATM   16  H   UNL     1      64.059  10.966   6.467  1.00  0.00     0.159 HD
HETATM   17  H   UNL     1      62.734  11.996   6.168  1.00  0.00     0.159 HD
ENDBRANCH   1  13
TORSDOF 2
ENDMDL
MODEL 6
REMARK VINA RESULT:      -5.0      1.729      2.553
REMARK  2 active torsions:
REMARK  status: ('A' for Active; 'I' for Inactive)
REMARK    1  A    between atoms: C_1  and  C_3 
REMARK    2  A    between atoms: C_2  and  N_4 
REMARK       I    between atoms: C_3  and  N_6 
ROOT
HETATM    1  C   UNL     1      63.662   8.497   4.126  1.00  0.00     0.058 A 
HETATM    2  C   UNL     1      64.273   7.241   3.869  1.00  0.00     0.046 A 
HETATM    3  C   UNL     1      62.682   9.020   3.260  1.00  0.00     0.019 A 
HETATM    4  C   UNL     1      63.837   6.562   2.709  1.00  0.00     0.030 A 
HETATM    5  C   UNL     1      62.297   8.327   2.118  1.00  0.00     0.001 A 
HETATM    6  C   UNL     1      62.872   7.096   1.845  1.00  0.00     0.002 A 
ENDROOT
BRANCH   2   7
HETATM    7  N   UNL     1      65.292   6.702   4.691  1.00  0.00    -0.380 N 
HETATM    8  C   UNL     1      66.644   6.587   4.111  1.00  0.00     0.123 C 
HETATM    9  C   UNL     1      67.659   6.469   5.246  1.00  0.00     0.020 C 
HETATM   10  C   UNL     1      67.332   5.287   6.159  1.00  0.00     0.003 C 
HETATM   11  C   UNL     1      65.884   5.347   6.640  1.00  0.00     0.020 C 
HETATM   12  C   UNL     1      64.907   5.500   5.465  1.00  0.00     0.123 C 
ENDBRANCH   2   7
BRANCH   1  13
HETATM   13  C   UNL     1      64.025   9.396   5.266  1.00  0.00     0.251 C 
HETATM   14  O   UNL     1      65.149   9.401   5.753  1.00  0.00    -0.268 OA
HETATM   15  N   UNL     1      63.042  10.202   5.755  1.00  0.00    -0.366 N 
HETATM   16  H   UNL     1      62.144  10.185   5.351  1.00  0.00     0.159 HD
HETATM   17  H   UNL     1      63.229  10.802   6.512  1.00  0.00     0.159 HD
ENDBRANCH   1  13
TORSDOF 2
ENDMDL
MODEL 7
REMARK VINA RESULT:      -4.9      2.776      4.366
REMARK  2 active torsions:
REMARK  status: ('A' for Active; 'I' for Inactive)
REMARK    1  A    between atoms: C_1  and  C_3 
REMARK    2  A    between atoms: C_2  and  N_4 
REMARK       I    between atoms: C_3  and  N_6 
ROOT
HETATM    1  C   UNL     1      62.405   9.154   3.968  1.00  0.00     0.058 A 
HETATM    2  C   UNL     1      61.686   7.931   3.883  1.00  0.00     0.046 A 
HETATM    3  C   UNL     1      63.652   9.220   4.619  1.00  0.00     0.019 A 
HETATM    4  C   UNL     1      62.296   6.807   4.482  1.00  0.00     0.030 A 
HETATM    5  C   UNL     1      64.207   8.091   5.213  1.00  0.00     0.001 A 
HETATM    6  C   UNL     1      63.530   6.884   5.141  1.00  0.00     0.002 A 
ENDROOT
BRANCH   2   7
HETATM    7  N   UNL     1      60.411   7.834   3.276  1.00  0.00    -0.380 N 
HETATM    8  C   UNL     1      59.340   7.170   4.043  1.00  0.00     0.123 C 
HETATM    9  C   UNL     1      57.989   7.589   3.470  1.00  0.00     0.020 C 
HETATM   10  C   UNL     1      57.897   7.269   1.978  1.00  0.00     0.003 C 
HETATM   11  C   UNL     1      59.089   7.847   1.218  1.00  0.00     0.020 C 
HETATM   12  C   UNL     1      60.421   7.424   1.852  1.00  0.00     0.123 C 
ENDBRANCH   2   7
BRANCH   1  13
HETATM   13  C   UNL     1      61.906  10.466   3.451  1.00  0.00     0.251 C 
HETATM   14  O   UNL     1      61.640  11.397   4.201  1.00  0.00    -0.268 OA
HETATM   15  N   UNL     1      61.741  10.577   2.103  1.00  0.00    -0.366 N 
HETATM   16  H   UNL     1      61.959   9.817   1.516  1.00  0.00     0.159 HD
HETATM   17  H   UNL     1      61.403  11.417   1.716  1.00  0.00     0.159 HD
ENDBRANCH   1  13
TORSDOF 2
ENDMDL
MODEL 8
REMARK VINA RESULT:      -4.8      1.966      5.061
REMARK  2 active torsions:
REMARK  status: ('A' for Active; 'I' for Inactive)
REMARK    1  A    between atoms: C_1  and  C_3 
REMARK    2  A    between atoms: C_2  and  N_4 
REMARK       I    between atoms: C_3  and  N_6 
ROOT
HETATM    1  C   UNL     1      63.805   6.817   6.180  1.00  0.00     0.058 A 
HETATM    2  C   UNL     1      64.233   7.978   5.482  1.00  0.00     0.046 A 
HETATM    3  C   UNL     1      64.715   6.036   6.919  1.00  0.00     0.019 A 
HETATM    4  C   UNL     1      65.607   8.291   5.579  1.00  0.00     0.030 A 
HETATM    5  C   UNL     1      66.063   6.370   6.971  1.00  0.00     0.001 A 
HETATM    6  C   UNL     1      66.509   7.500   6.304  1.00  0.00     0.002 A 
ENDROOT
BRANCH   2   7
HETATM    7  N   UNL     1      63.358   8.763   4.694  1.00  0.00    -0.380 N 
HETATM    8  C   UNL     1      63.251   8.432   3.260  1.00  0.00     0.123 C 
HETATM    9  C   UNL     1      61.954   9.023   2.713  1.00  0.00     0.020 C 
HETATM   10  C   UNL     1      61.889  10.531   2.951  1.00  0.00     0.003 C 
HETATM   11  C   UNL     1      62.141  10.867   4.420  1.00  0.00     0.020 C 
HETATM   12  C   UNL     1      63.438  10.223   4.931  1.00  0.00     0.123 C 
ENDBRANCH   2   7
BRANCH   1  13
HETATM   13  C   UNL     1      62.407   6.283   6.156  1.00  0.00     0.251 C 
HETATM   14  O   UNL     1      61.552   6.676   6.940  1.00  0.00    -0.268 OA
HETATM   15  N   UNL     1      62.128   5.323   5.232  1.00  0.00    -0.366 N 
HETATM   16  H   UNL     1      62.829   5.019   4.610  1.00  0.00     0.159 HD
HETATM   17  H   UNL     1      61.226   4.932   5.185  1.00  0.00     0.159 HD
ENDBRANCH   1  13
TORSDOF 2
ENDMDL
MODEL 9
REMARK VINA RESULT:      -4.7      3.413      6.240
REMARK  2 active torsions:
REMARK  status: ('A' for Active; 'I' for Inactive)
REMARK    1  A    between atoms: C_1  and  C_3 
REMARK    2  A    between atoms: C_2  and  N_4 
REMARK       I    between atoms: C_3  and  N_6 
ROOT
HETATM    1  C   UNL     1      66.896   5.513   6.153  1.00  0.00     0.058 A 
HETATM    2  C   UNL     1      65.895   6.372   6.680  1.00  0.00     0.046 A 
HETATM    3  C   UNL     1      67.963   5.062   6.955  1.00  0.00     0.019 A 
HETATM    4  C   UNL     1      66.038   6.736   8.038  1.00  0.00     0.030 A 
HETATM    5  C   UNL     1      68.075   5.462   8.282  1.00  0.00     0.001 A 
HETATM    6  C   UNL     1      67.110   6.296   8.824  1.00  0.00     0.002 A 
ENDROOT
BRANCH   2   7
HETATM    7  N   UNL     1      64.833   6.882   5.895  1.00  0.00    -0.380 N 
HETATM    8  C   UNL     1      64.939   8.277   5.429  1.00  0.00     0.123 C 
HETATM    9  C   UNL     1      63.999   8.474   4.242  1.00  0.00     0.020 C 
HETATM   10  C   UNL     1      62.561   8.108   4.608  1.00  0.00     0.003 C 
HETATM   11  C   UNL     1      62.488   6.710   5.219  1.00  0.00     0.020 C 
HETATM   12  C   UNL     1      63.474   6.553   6.385  1.00  0.00     0.123 C 
ENDBRANCH   2   7
BRANCH   1  13
HETATM   13  C   UNL     1      66.959   5.062   4.728  1.00  0.00     0.251 C 
HETATM   14  O   UNL     1      66.599   3.941   4.389  1.00  0.00    -0.268 OA
HETATM   15  N   UNL     1      67.451   5.949   3.819  1.00  0.00    -0.366 N 
HETATM   16  H   UNL     1      67.735   6.846   4.110  1.00  0.00     0.159 HD
HETATM   17  H   UNL     1      67.523   5.694   2.871  1.00  0.00     0.159 HD
ENDBRANCH   1  13
TORSDOF 2
ENDMDL
