MODEL 1
REMARK VINA RESULT:      -6.1      0.000      0.000
REMARK  0 active torsions:
REMARK  status: ('A' for Active; 'I' for Inactive)
ROOT
HETATM    1  C   UNL     1      63.588   8.676   4.074  1.00  0.00     0.066 A 
HETATM    2  C   UNL     1      64.275   7.442   3.695  1.00  0.00     0.199 A 
HETATM    3  C   UNL     1      64.086   9.436   5.119  1.00  0.00     0.162 A 
HETATM    4  O   UNL     1      65.213   9.091   5.834  1.00  0.00    -0.292 OA
HETATM    5  C   UNL     1      65.471   7.089   4.464  1.00  0.00     0.049 A 
HETATM    6  C   UNL     1      65.874   7.937   5.493  1.00  0.00     0.092 A 
HETATM    7  N   UNL     1      63.500  10.589   5.521  1.00  0.00    -0.346 N 
ATOM      8  HN  UNL     1      63.879  11.139   6.293  1.00  0.00     0.167 HD
HETATM    9  O   UNL     1      63.867   6.742   2.778  1.00  0.00    -0.286 OA
HETATM   10  C   UNL     1      62.442   9.098   3.400  1.00  0.00     0.021 A 
HETATM   11  C   UNL     1      66.188   5.926   4.165  1.00  0.00     0.018 A 
HETATM   12  C   UNL     1      67.012   7.614   6.235  1.00  0.00     0.038 A 
HETATM   13  C   UNL     1      62.387  10.981   4.853  1.00  0.00     0.090 A 
HETATM   14  C   UNL     1      61.828  10.279   3.799  1.00  0.00     0.018 A 
HETATM   15  C   UNL     1      67.322   5.610   4.909  1.00  0.00     0.001 A 
HETATM   16  C   UNL     1      67.735   6.452   5.942  1.00  0.00     0.003 A 
ENDROOT
TORSDOF 0
ENDMDL
MODEL 2
REMARK VINA RESULT:      -6.0      1.233      4.635
REMARK  0 active torsions:
REMARK  status: ('A' for Active; 'I' for Inactive)
ROOT
HETATM    1  C   UNL     1      65.525   7.053   4.687  1.00  0.00     0.066 A 
HETATM    2  C   UNL     1      64.414   7.289   3.768  1.00  0.00     0.199 A 
HETATM    3  C   UNL     1      65.783   7.973   5.690  1.00  0.00     0.162 A 
HETATM    4  O   UNL     1      65.039   9.119   5.874  1.00  0.00    -0.292 OA
HETATM    5  C   UNL     1      63.631   8.511   3.978  1.00  0.00     0.049 A 
HETATM    6  C   UNL     1      63.989   9.358   5.022  1.00  0.00     0.092 A 
HETATM    7  N   UNL     1      66.797   7.816   6.576  1.00  0.00    -0.346 N 
ATOM      8  HN  UNL     1      66.975   8.503   7.309  1.00  0.00     0.167 HD
HETATM    9  O   UNL     1      64.152   6.501   2.869  1.00  0.00    -0.286 OA
HETATM   10  C   UNL     1      66.327   5.918   4.571  1.00  0.00     0.021 A 
HETATM   11  C   UNL     1      62.550   8.811   3.143  1.00  0.00     0.018 A 
HETATM   12  C   UNL     1      63.253  10.526   5.235  1.00  0.00     0.038 A 
HETATM   13  C   UNL     1      67.564   6.706   6.444  1.00  0.00     0.090 A 
HETATM   14  C   UNL     1      67.370   5.740   5.472  1.00  0.00     0.018 A 
HETATM   15  C   UNL     1      61.819   9.977   3.360  1.00  0.00     0.001 A 
HETATM   16  C   UNL     1      62.169  10.833   4.405  1.00  0.00     0.003 A 
ENDROOT
TORSDOF 0
ENDMDL
MODEL 3
REMARK VINA RESULT:      -5.7      1.736      5.268
REMARK  0 active torsions:
REMARK  status: ('A' for Active; 'I' for Inactive)
ROOT
HETATM    1  C   UNL     1      65.790   7.227   4.822  1.00  0.00     0.066 A 
HETATM    2  C   UNL     1      65.216   8.458   5.360  1.00  0.00     0.199 A 
HETATM    3  C   UNL     1      65.190   6.618   3.732  1.00  0.00     0.162 A 
HETATM    4  O   UNL     1      64.064   7.117   3.114  1.00  0.00    -0.292 OA
HETATM    5  C   UNL     1      64.019   8.976   4.691  1.00  0.00     0.049 A 
HETATM    6  C   UNL     1      63.510   8.274   3.602  1.00  0.00     0.092 A 
HETATM    7  N   UNL     1      65.670   5.476   3.184  1.00  0.00    -0.346 N 
ATOM      8  HN  UNL     1      65.217   5.039   2.380  1.00  0.00     0.167 HD
HETATM    9  O   UNL     1      65.715   9.027   6.322  1.00  0.00    -0.286 OA
HETATM   10  C   UNL     1      66.930   6.657   5.388  1.00  0.00     0.021 A 
HETATM   11  C   UNL     1      63.408  10.151   5.142  1.00  0.00     0.018 A 
HETATM   12  C   UNL     1      62.370   8.755   2.954  1.00  0.00     0.038 A 
HETATM   13  C   UNL     1      66.778   4.938   3.750  1.00  0.00     0.090 A 
HETATM   14  C   UNL     1      67.436   5.485   4.838  1.00  0.00     0.018 A 
HETATM   15  C   UNL     1      62.272  10.626   4.492  1.00  0.00     0.001 A 
HETATM   16  C   UNL     1      61.753   9.930   3.399  1.00  0.00     0.003 A 
ENDROOT
TORSDOF 0
ENDMDL
MODEL 4
REMARK VINA RESULT:      -5.5      1.383      2.626
REMARK  0 active torsions:
REMARK  status: ('A' for Active; 'I' for Inactive)
ROOT
HETATM    1  C   UNL     1      63.526   8.731   4.121  1.00  0.00     0.066 A 
HETATM    2  C   UNL     1      64.635   8.815   5.070  1.00  0.00     0.199 A 
HETATM    3  C   UNL     1      63.473   7.671   3.232  1.00  0.00     0.162 A 
HETATM    4  O   UNL     1      64.421   6.671   3.190  1.00  0.00    -0.292 OA
HETATM    5  C   UNL     1      65.634   7.744   5.014  1.00  0.00     0.049 A 
HETATM    6  C   UNL     1      65.470   6.729   4.075  1.00  0.00     0.092 A 
HETATM    7  N   UNL     1      62.474   7.532   2.326  1.00  0.00    -0.346 N 
ATOM      8  HN  UNL     1      62.448   6.745   1.677  1.00  0.00     0.167 HD
HETATM    9  O   UNL     1      64.719   9.735   5.872  1.00  0.00    -0.286 OA
HETATM   10  C   UNL     1      62.524   9.701   4.098  1.00  0.00     0.021 A 
HETATM   11  C   UNL     1      66.725   7.747   5.889  1.00  0.00     0.018 A 
HETATM   12  C   UNL     1      66.413   5.702   4.010  1.00  0.00     0.038 A 
HETATM   13  C   UNL     1      61.511   8.486   2.320  1.00  0.00     0.090 A 
HETATM   14  C   UNL     1      61.492   9.574   3.176  1.00  0.00     0.018 A 
HETATM   15  C   UNL     1      67.663   6.720   5.819  1.00  0.00     0.001 A 
HETATM   16  C   UNL     1      67.507   5.698   4.882  1.00  0.00     0.003 A 
ENDROOT
TORSDOF 0
ENDMDL
MODEL 5
REMARK VINA RESULT:      -5.3      2.310      4.891
REMARK  0 active torsions:
REMARK  status: ('A' for Active; 'I' for Inactive)
ROOT
HETATM    1  C   UNL     1      63.494   6.729   3.753  1.00  0.00     0.066 A 
HETATM    2  C   UNL     1      63.043   7.465   2.574  1.00  0.00     0.199 A 
HETATM    3  C   UNL     1      63.508   7.363   4.984  1.00  0.00     0.162 A 
HETATM    4  O   UNL     1      63.115   8.672   5.164  1.00  0.00    -0.292 OA
HETATM    5  C   UNL     1      62.627   8.854   2.781  1.00  0.00     0.049 A 
HETATM    6  C   UNL     1      62.686   9.381   4.069  1.00  0.00     0.092 A 
HETATM    7  N   UNL     1      63.914   6.740   6.117  1.00  0.00    -0.346 N 
ATOM      8  HN  UNL     1      63.919   7.221   7.017  1.00  0.00     0.167 HD
HETATM    9  O   UNL     1      63.015   6.940   1.468  1.00  0.00    -0.286 OA
HETATM   10  C   UNL     1      63.907   5.400   3.658  1.00  0.00     0.021 A 
HETATM   11  C   UNL     1      62.181   9.628   1.705  1.00  0.00     0.018 A 
HETATM   12  C   UNL     1      62.293  10.703   4.283  1.00  0.00     0.038 A 
HETATM   13  C   UNL     1      64.312   5.449   6.003  1.00  0.00     0.090 A 
HETATM   14  C   UNL     1      64.325   4.745   4.811  1.00  0.00     0.018 A 
HETATM   15  C   UNL     1      61.790  10.947   1.925  1.00  0.00     0.001 A 
HETATM   16  C   UNL     1      61.845  11.484   3.212  1.00  0.00     0.003 A 
ENDROOT
TORSDOF 0
ENDMDL
MODEL 6
REMARK VINA RESULT:      -5.2      2.730      5.460
REMARK  0 active torsions:
REMARK  status: ('A' for Active; 'I' for Inactive)
ROOT
HETATM    1  C   UNL     1      66.438   6.507   6.771  1.00  0.00     0.066 A 
HETATM    2  C   UNL     1      66.051   7.596   5.875  1.00  0.00     0.199 A 
HETATM    3  C   UNL     1      65.476   5.607   7.198  1.00  0.00     0.162 A 
HETATM    4  O   UNL     1      64.153   5.678   6.819  1.00  0.00    -0.292 OA
HETATM    5  C   UNL     1      64.641   7.657   5.480  1.00  0.00     0.049 A 
HETATM    6  C   UNL     1      63.769   6.692   5.975  1.00  0.00     0.092 A 
HETATM    7  N   UNL     1      65.765   4.575   8.028  1.00  0.00    -0.346 N 
ATOM      8  HN  UNL     1      65.046   3.920   8.334  1.00  0.00     0.167 HD
HETATM    9  O   UNL     1      66.870   8.413   5.474  1.00  0.00    -0.286 OA
HETATM   10  C   UNL     1      67.756   6.363   7.201  1.00  0.00     0.021 A 
HETATM   11  C   UNL     1      64.189   8.666   4.623  1.00  0.00     0.018 A 
HETATM   12  C   UNL     1      62.423   6.737   5.609  1.00  0.00     0.038 A 
HETATM   13  C   UNL     1      67.053   4.453   8.435  1.00  0.00     0.090 A 
HETATM   14  C   UNL     1      68.071   5.310   8.052  1.00  0.00     0.018 A 
HETATM   15  C   UNL     1      62.845   8.706   4.261  1.00  0.00     0.001 A 
HETATM   16  C   UNL     1      61.963   7.743   4.752  1.00  0.00     0.003 A 
ENDROOT
TORSDOF 0
ENDMDL
MODEL 7
REMARK VINA RESULT:      -4.7      2.923      4.917
REMARK  0 active torsions:
REMARK  status: ('A' for Active; 'I' for Inactive)
ROOT
HETATM    1  C   UNL     1      64.262   7.662   5.204  1.00  0.00     0.066 A 
HETATM    2  C   UNL     1      63.136   7.782   4.280  1.00  0.00     0.199 A 
HETATM    3  C   UNL     1      64.075   7.033   6.424  1.00  0.00     0.162 A 
HETATM    4  O   UNL     1      62.867   6.503   6.823  1.00  0.00    -0.292 OA
HETATM    5  C   UNL     1      61.859   7.212   4.718  1.00  0.00     0.049 A 
HETATM    6  C   UNL     1      61.796   6.603   5.968  1.00  0.00     0.092 A 
HETATM    7  N   UNL     1      65.075   6.888   7.327  1.00  0.00    -0.346 N 
ATOM      8  HN  UNL     1      64.922   6.422   8.222  1.00  0.00     0.167 HD
HETATM    9  O   UNL     1      63.260   8.330   3.193  1.00  0.00    -0.286 OA
HETATM   10  C   UNL     1      65.519   8.170   4.877  1.00  0.00     0.021 A 
HETATM   11  C   UNL     1      60.732   7.283   3.893  1.00  0.00     0.018 A 
HETATM   12  C   UNL     1      60.587   6.056   6.400  1.00  0.00     0.038 A 
HETATM   13  C   UNL     1      66.288   7.389   6.989  1.00  0.00     0.090 A 
HETATM   14  C   UNL     1      66.557   8.029   5.791  1.00  0.00     0.018 A 
HETATM   15  C   UNL     1      59.528   6.735   4.328  1.00  0.00     0.001 A 
HETATM   16  C   UNL     1      59.454   6.122   5.580  1.00  0.00     0.003 A 
ENDROOT
TORSDOF 0
ENDMDL
MODEL 8
REMARK VINA RESULT:      -4.6      4.848      6.576
REMARK  0 active torsions:
REMARK  status: ('A' for Active; 'I' for Inactive)
ROOT
HETATM    1  C   UNL     1      57.802   6.982   3.244  1.00  0.00     0.066 A 
HETATM    2  C   UNL     1      58.334   7.453   1.967  1.00  0.00     0.199 A 
HETATM    3  C   UNL     1      58.649   6.880   4.335  1.00  0.00     0.162 A 
HETATM    4  O   UNL     1      59.988   7.204   4.285  1.00  0.00    -0.292 OA
HETATM    5  C   UNL     1      59.758   7.795   1.930  1.00  0.00     0.049 A 
HETATM    6  C   UNL     1      60.507   7.651   3.095  1.00  0.00     0.092 A 
HETATM    7  N   UNL     1      58.222   6.451   5.547  1.00  0.00    -0.346 N 
ATOM      8  HN  UNL     1      58.858   6.381   6.342  1.00  0.00     0.167 HD
HETATM    9  O   UNL     1      57.619   7.558   0.978  1.00  0.00    -0.286 OA
HETATM   10  C   UNL     1      56.458   6.635   3.380  1.00  0.00     0.021 A 
HETATM   11  C   UNL     1      60.346   8.255   0.748  1.00  0.00     0.018 A 
HETATM   12  C   UNL     1      61.865   7.972   3.077  1.00  0.00     0.038 A 
HETATM   13  C   UNL     1      56.912   6.118   5.658  1.00  0.00     0.090 A 
HETATM   14  C   UNL     1      56.002   6.193   4.616  1.00  0.00     0.018 A 
HETATM   15  C   UNL     1      61.702   8.574   0.735  1.00  0.00     0.001 A 
HETATM   16  C   UNL     1      62.461   8.434   1.897  1.00  0.00     0.003 A 
ENDROOT
TORSDOF 0
ENDMDL
MODEL 9
REMARK VINA RESULT:      -4.5     13.520     13.564
REMARK  0 active torsions:
REMARK  status: ('A' for Active; 'I' for Inactive)
ROOT
HETATM    1  C   UNL     1      56.701   1.857  13.250  1.00  0.00     0.066 A 
HETATM    2  C   UNL     1      58.003   1.839  12.587  1.00  0.00     0.199 A 
HETATM    3  C   UNL     1      56.336   0.793  14.058  1.00  0.00     0.162 A 
HETATM    4  O   UNL     1      57.145  -0.302  14.277  1.00  0.00    -0.292 OA
HETATM    5  C   UNL     1      58.852   0.669  12.830  1.00  0.00     0.049 A 
HETATM    6  C   UNL     1      58.373  -0.338  13.665  1.00  0.00     0.092 A 
HETATM    7  N   UNL     1      55.144   0.745  14.702  1.00  0.00    -0.346 N 
ATOM      8  HN  UNL     1      54.890  -0.046  15.294  1.00  0.00     0.167 HD
HETATM    9  O   UNL     1      58.364   2.759  11.865  1.00  0.00    -0.286 OA
HETATM   10  C   UNL     1      55.823   2.928  13.083  1.00  0.00     0.021 A 
HETATM   11  C   UNL     1      60.114   0.574  12.235  1.00  0.00     0.018 A 
HETATM   12  C   UNL     1      59.170  -1.459  13.906  1.00  0.00     0.038 A 
HETATM   13  C   UNL     1      54.306   1.796  14.526  1.00  0.00     0.090 A 
HETATM   14  C   UNL     1      54.597   2.896  13.737  1.00  0.00     0.018 A 
HETATM   15  C   UNL     1      60.904  -0.546  12.480  1.00  0.00     0.001 A 
HETATM   16  C   UNL     1      60.434  -1.561  13.315  1.00  0.00     0.003 A 
ENDROOT
TORSDOF 0
ENDMDL
