MODEL 1
REMARK VINA RESULT:      -5.6      0.000      0.000
REMARK  4 active torsions:
REMARK  status: ('A' for Active; 'I' for Inactive)
REMARK    1  A    between atoms: C_3  and  C_7 
REMARK    2  A    between atoms: C_5  and  C_8 
REMARK    3  A    between atoms: C_8  and  C_11 
REMARK    4  A    between atoms: O_10  and  C_11 
ROOT
HETATM    1  N   UNL     1      64.301   8.331   5.584  1.00  0.00    -0.337 N 
ATOM      2  HN  UNL     1      65.000   9.073   5.618  1.00  0.00     0.168 HD
HETATM    3  C   UNL     1      63.197   8.293   4.862  1.00  0.00     0.158 A 
HETATM    4  O   UNL     1      62.470   7.141   5.019  1.00  0.00    -0.296 OA
HETATM    5  C   UNL     1      64.294   7.139   6.281  1.00  0.00     0.043 A 
HETATM    6  C   UNL     1      63.185   6.403   5.924  1.00  0.00     0.074 A 
HETATM    7  C   UNL     1      62.644   5.079   6.269  1.00  0.00     0.079 C 
ENDROOT
BRANCH   3   8
HETATM    8  C   UNL     1      62.680   9.281   3.918  1.00  0.00     0.015 A 
HETATM    9  C   UNL     1      62.376  10.575   4.369  1.00  0.00     0.016 A 
HETATM   10  C   UNL     1      61.894  11.546   3.488  1.00  0.00     0.001 A 
HETATM   11  C   UNL     1      61.708  11.233   2.144  1.00  0.00     0.000 A 
HETATM   12  C   UNL     1      61.995   9.952   1.681  1.00  0.00     0.001 A 
HETATM   13  C   UNL     1      62.480   8.980   2.562  1.00  0.00     0.016 A 
ENDBRANCH   3   8
BRANCH   5  14
HETATM   14  C   UNL     1      65.406   6.828   7.222  1.00  0.00     0.085 C 
BRANCH  14  15
HETATM   15  C   UNL     1      66.737   7.403   6.738  1.00  0.00     0.170 C 
BRANCH  15  16
HETATM   16  O   UNL     1      66.828   8.803   6.991  1.00  0.00    -0.400 OA
HETATM   17  H   UNL     1      66.105   9.074   7.577  1.00  0.00     0.209 HD
ENDBRANCH  15  16
ENDBRANCH  14  15
ENDBRANCH   5  14
TORSDOF 4
ENDMDL
MODEL 2
REMARK VINA RESULT:      -5.6      1.825      2.529
REMARK  4 active torsions:
REMARK  status: ('A' for Active; 'I' for Inactive)
REMARK    1  A    between atoms: C_3  and  C_7 
REMARK    2  A    between atoms: C_5  and  C_8 
REMARK    3  A    between atoms: C_8  and  C_11 
REMARK    4  A    between atoms: O_10  and  C_11 
ROOT
HETATM    1  N   UNL     1      64.456   7.453   6.380  1.00  0.00    -0.337 N 
ATOM      2  HN  UNL     1      63.592   7.204   6.861  1.00  0.00     0.168 HD
HETATM    3  C   UNL     1      64.616   8.321   5.399  1.00  0.00     0.158 A 
HETATM    4  O   UNL     1      65.915   8.451   4.978  1.00  0.00    -0.296 OA
HETATM    5  C   UNL     1      65.726   6.959   6.609  1.00  0.00     0.043 A 
HETATM    6  C   UNL     1      66.620   7.581   5.765  1.00  0.00     0.074 A 
HETATM    7  C   UNL     1      68.075   7.528   5.549  1.00  0.00     0.079 C 
ENDROOT
BRANCH   3   8
HETATM    8  C   UNL     1      63.617   9.161   4.743  1.00  0.00     0.015 A 
HETATM    9  C   UNL     1      63.330  10.431   5.268  1.00  0.00     0.016 A 
HETATM   10  C   UNL     1      62.391  11.264   4.655  1.00  0.00     0.001 A 
HETATM   11  C   UNL     1      61.724  10.834   3.510  1.00  0.00     0.000 A 
HETATM   12  C   UNL     1      61.989   9.574   2.981  1.00  0.00     0.001 A 
HETATM   13  C   UNL     1      62.931   8.740   3.593  1.00  0.00     0.016 A 
ENDBRANCH   3   8
BRANCH   5  14
HETATM   14  C   UNL     1      65.940   5.931   7.666  1.00  0.00     0.085 C 
BRANCH  14  15
HETATM   15  C   UNL     1      66.569   6.531   8.923  1.00  0.00     0.170 C 
BRANCH  15  16
HETATM   16  O   UNL     1      67.993   6.499   8.865  1.00  0.00    -0.400 OA
HETATM   17  H   UNL     1      68.347   6.283   9.742  1.00  0.00     0.209 HD
ENDBRANCH  15  16
ENDBRANCH  14  15
ENDBRANCH   5  14
TORSDOF 4
ENDMDL
MODEL 3
REMARK VINA RESULT:      -5.3      2.060      5.733
REMARK  4 active torsions:
REMARK  status: ('A' for Active; 'I' for Inactive)
REMARK    1  A    between atoms: C_3  and  C_7 
REMARK    2  A    between atoms: C_5  and  C_8 
REMARK    3  A    between atoms: C_8  and  C_11 
REMARK    4  A    between atoms: O_10  and  C_11 
ROOT
HETATM    1  N   UNL     1      64.764   8.682   5.839  1.00  0.00    -0.337 N 
ATOM      2  HN  UNL     1      65.459   9.407   6.017  1.00  0.00     0.168 HD
HETATM    3  C   UNL     1      64.849   7.394   6.112  1.00  0.00     0.158 A 
HETATM    4  O   UNL     1      63.730   6.679   5.770  1.00  0.00    -0.296 OA
HETATM    5  C   UNL     1      63.519   8.826   5.259  1.00  0.00     0.043 A 
HETATM    6  C   UNL     1      62.879   7.607   5.233  1.00  0.00     0.074 A 
HETATM    7  C   UNL     1      61.562   7.117   4.795  1.00  0.00     0.079 C 
ENDROOT
BRANCH   3   8
HETATM    8  C   UNL     1      65.942   6.658   6.743  1.00  0.00     0.015 A 
HETATM    9  C   UNL     1      66.740   5.804   5.966  1.00  0.00     0.016 A 
HETATM   10  C   UNL     1      67.801   5.098   6.538  1.00  0.00     0.001 A 
HETATM   11  C   UNL     1      68.075   5.235   7.896  1.00  0.00     0.000 A 
HETATM   12  C   UNL     1      67.287   6.070   8.685  1.00  0.00     0.001 A 
HETATM   13  C   UNL     1      66.226   6.779   8.113  1.00  0.00     0.016 A 
ENDBRANCH   3   8
BRANCH   5  14
HETATM   14  C   UNL     1      63.066  10.172   4.807  1.00  0.00     0.085 C 
BRANCH  14  15
HETATM   15  C   UNL     1      63.073  11.187   5.949  1.00  0.00     0.170 C 
BRANCH  15  16
HETATM   16  O   UNL     1      64.396  11.457   6.406  1.00  0.00    -0.400 OA
HETATM   17  H   UNL     1      64.704  12.295   6.027  1.00  0.00     0.209 HD
ENDBRANCH  15  16
ENDBRANCH  14  15
ENDBRANCH   5  14
TORSDOF 4
ENDMDL
MODEL 4
REMARK VINA RESULT:      -5.3      1.760      2.682
REMARK  4 active torsions:
REMARK  status: ('A' for Active; 'I' for Inactive)
REMARK    1  A    between atoms: C_3  and  C_7 
REMARK    2  A    between atoms: C_5  and  C_8 
REMARK    3  A    between atoms: C_8  and  C_11 
REMARK    4  A    between atoms: O_10  and  C_11 
ROOT
HETATM    1  N   UNL     1      64.489   7.629   6.424  1.00  0.00    -0.337 N 
ATOM      2  HN  UNL     1      63.639   7.455   6.961  1.00  0.00     0.168 HD
HETATM    3  C   UNL     1      64.625   8.371   5.341  1.00  0.00     0.158 A 
HETATM    4  O   UNL     1      65.909   8.426   4.863  1.00  0.00    -0.296 OA
HETATM    5  C   UNL     1      65.759   7.142   6.665  1.00  0.00     0.043 A 
HETATM    6  C   UNL     1      66.630   7.643   5.723  1.00  0.00     0.074 A 
HETATM    7  C   UNL     1      68.075   7.538   5.464  1.00  0.00     0.079 C 
ENDROOT
BRANCH   3   8
HETATM    8  C   UNL     1      63.615   9.146   4.625  1.00  0.00     0.015 A 
HETATM    9  C   UNL     1      63.207  10.389   5.134  1.00  0.00     0.016 A 
HETATM   10  C   UNL     1      62.254  11.160   4.465  1.00  0.00     0.001 A 
HETATM   11  C   UNL     1      61.694  10.695   3.278  1.00  0.00     0.000 A 
HETATM   12  C   UNL     1      62.079   9.460   2.763  1.00  0.00     0.001 A 
HETATM   13  C   UNL     1      63.035   8.688   3.431  1.00  0.00     0.016 A 
ENDBRANCH   3   8
BRANCH   5  14
HETATM   14  C   UNL     1      65.996   6.243   7.829  1.00  0.00     0.085 C 
BRANCH  14  15
HETATM   15  C   UNL     1      65.478   4.828   7.569  1.00  0.00     0.170 C 
BRANCH  15  16
HETATM   16  O   UNL     1      65.039   4.668   6.222  1.00  0.00    -0.400 OA
HETATM   17  H   UNL     1      64.580   5.473   5.934  1.00  0.00     0.209 HD
ENDBRANCH  15  16
ENDBRANCH  14  15
ENDBRANCH   5  14
TORSDOF 4
ENDMDL
MODEL 5
REMARK VINA RESULT:      -5.2      2.320      5.808
REMARK  4 active torsions:
REMARK  status: ('A' for Active; 'I' for Inactive)
REMARK    1  A    between atoms: C_3  and  C_7 
REMARK    2  A    between atoms: C_5  and  C_8 
REMARK    3  A    between atoms: C_8  and  C_11 
REMARK    4  A    between atoms: O_10  and  C_11 
ROOT
HETATM    1  N   UNL     1      63.518   8.425   3.755  1.00  0.00    -0.337 N 
ATOM      2  HN  UNL     1      63.429   7.732   3.012  1.00  0.00     0.168 HD
HETATM    3  C   UNL     1      64.420   8.469   4.718  1.00  0.00     0.158 A 
HETATM    4  O   UNL     1      64.286   9.546   5.556  1.00  0.00    -0.296 OA
HETATM    5  C   UNL     1      62.722   9.530   3.983  1.00  0.00     0.043 A 
HETATM    6  C   UNL     1      63.201  10.226   5.072  1.00  0.00     0.074 A 
HETATM    7  C   UNL     1      62.834  11.466   5.774  1.00  0.00     0.079 C 
ENDROOT
BRANCH   3   8
HETATM    8  C   UNL     1      65.531   7.558   4.979  1.00  0.00     0.015 A 
HETATM    9  C   UNL     1      65.897   6.616   4.005  1.00  0.00     0.016 A 
HETATM   10  C   UNL     1      66.965   5.741   4.218  1.00  0.00     0.001 A 
HETATM   11  C   UNL     1      67.678   5.796   5.413  1.00  0.00     0.000 A 
HETATM   12  C   UNL     1      67.323   6.717   6.395  1.00  0.00     0.001 A 
HETATM   13  C   UNL     1      66.256   7.594   6.181  1.00  0.00     0.016 A 
ENDBRANCH   3   8
BRANCH   5  14
HETATM   14  C   UNL     1      61.571   9.810   3.080  1.00  0.00     0.085 C 
BRANCH  14  15
HETATM   15  C   UNL     1      62.012  10.526   1.803  1.00  0.00     0.170 C 
BRANCH  15  16
HETATM   16  O   UNL     1      62.076  11.939   1.987  1.00  0.00    -0.400 OA
HETATM   17  H   UNL     1      62.813  12.298   1.470  1.00  0.00     0.209 HD
ENDBRANCH  15  16
ENDBRANCH  14  15
ENDBRANCH   5  14
TORSDOF 4
ENDMDL
MODEL 6
REMARK VINA RESULT:      -5.1      2.003      2.744
REMARK  4 active torsions:
REMARK  status: ('A' for Active; 'I' for Inactive)
REMARK    1  A    between atoms: C_3  and  C_7 
REMARK    2  A    between atoms: C_5  and  C_8 
REMARK    3  A    between atoms: C_8  and  C_11 
REMARK    4  A    between atoms: O_10  and  C_11 
ROOT
HETATM    1  N   UNL     1      64.559   6.642   4.577  1.00  0.00    -0.337 N 
ATOM      2  HN  UNL     1      64.244   6.260   3.685  1.00  0.00     0.168 HD
HETATM    3  C   UNL     1      64.290   7.828   5.090  1.00  0.00     0.158 A 
HETATM    4  O   UNL     1      64.847   8.037   6.326  1.00  0.00    -0.296 OA
HETATM    5  C   UNL     1      65.362   6.035   5.522  1.00  0.00     0.043 A 
HETATM    6  C   UNL     1      65.524   6.879   6.599  1.00  0.00     0.074 A 
HETATM    7  C   UNL     1      66.210   6.809   7.899  1.00  0.00     0.079 C 
ENDROOT
BRANCH   3   8
HETATM    8  C   UNL     1      63.473   8.905   4.537  1.00  0.00     0.015 A 
HETATM    9  C   UNL     1      62.888   8.750   3.271  1.00  0.00     0.016 A 
HETATM   10  C   UNL     1      62.089   9.755   2.723  1.00  0.00     0.001 A 
HETATM   11  C   UNL     1      61.868  10.932   3.434  1.00  0.00     0.000 A 
HETATM   12  C   UNL     1      62.448  11.108   4.687  1.00  0.00     0.001 A 
HETATM   13  C   UNL     1      63.246  10.100   5.238  1.00  0.00     0.016 A 
ENDBRANCH   3   8
BRANCH   5  14
HETATM   14  C   UNL     1      65.876   4.658   5.280  1.00  0.00     0.085 C 
BRANCH  14  15
HETATM   15  C   UNL     1      67.258   4.674   4.627  1.00  0.00     0.170 C 
BRANCH  15  16
HETATM   16  O   UNL     1      67.414   5.788   3.752  1.00  0.00    -0.400 OA
HETATM   17  H   UNL     1      68.050   5.565   3.055  1.00  0.00     0.209 HD
ENDBRANCH  15  16
ENDBRANCH  14  15
ENDBRANCH   5  14
TORSDOF 4
ENDMDL
MODEL 7
REMARK VINA RESULT:      -4.8      1.834      5.756
REMARK  4 active torsions:
REMARK  status: ('A' for Active; 'I' for Inactive)
REMARK    1  A    between atoms: C_3  and  C_7 
REMARK    2  A    between atoms: C_5  and  C_8 
REMARK    3  A    between atoms: C_8  and  C_11 
REMARK    4  A    between atoms: O_10  and  C_11 
ROOT
HETATM    1  N   UNL     1      63.788   8.129   3.927  1.00  0.00    -0.337 N 
ATOM      2  HN  UNL     1      63.868   7.317   3.316  1.00  0.00     0.168 HD
HETATM    3  C   UNL     1      64.520   8.424   4.984  1.00  0.00     0.158 A 
HETATM    4  O   UNL     1      64.178   9.608   5.585  1.00  0.00    -0.296 OA
HETATM    5  C   UNL     1      62.887   9.173   3.835  1.00  0.00     0.043 A 
HETATM    6  C   UNL     1      63.136  10.085   4.836  1.00  0.00     0.074 A 
HETATM    7  C   UNL     1      62.573  11.382   5.243  1.00  0.00     0.079 C 
ENDROOT
BRANCH   3   8
HETATM    8  C   UNL     1      65.640   7.685   5.561  1.00  0.00     0.015 A 
HETATM    9  C   UNL     1      66.905   7.761   4.957  1.00  0.00     0.016 A 
HETATM   10  C   UNL     1      67.998   7.078   5.493  1.00  0.00     0.001 A 
HETATM   11  C   UNL     1      67.840   6.306   6.641  1.00  0.00     0.000 A 
HETATM   12  C   UNL     1      66.590   6.210   7.249  1.00  0.00     0.001 A 
HETATM   13  C   UNL     1      65.495   6.896   6.713  1.00  0.00     0.016 A 
ENDBRANCH   3   8
BRANCH   5  14
HETATM   14  C   UNL     1      61.876   9.181   2.741  1.00  0.00     0.085 C 
BRANCH  14  15
HETATM   15  C   UNL     1      60.787   8.131   2.966  1.00  0.00     0.170 C 
BRANCH  15  16
HETATM   16  O   UNL     1      60.961   7.450   4.206  1.00  0.00    -0.400 OA
HETATM   17  H   UNL     1      61.740   7.804   4.663  1.00  0.00     0.209 HD
ENDBRANCH  15  16
ENDBRANCH  14  15
ENDBRANCH   5  14
TORSDOF 4
ENDMDL
MODEL 8
REMARK VINA RESULT:      -4.6     10.628     12.107
REMARK  4 active torsions:
REMARK  status: ('A' for Active; 'I' for Inactive)
REMARK    1  A    between atoms: C_3  and  C_7 
REMARK    2  A    between atoms: C_5  and  C_8 
REMARK    3  A    between atoms: C_8  and  C_11 
REMARK    4  A    between atoms: O_10  and  C_11 
ROOT
HETATM    1  N   UNL     1      63.065  -0.440  13.129  1.00  0.00    -0.337 N 
ATOM      2  HN  UNL     1      63.172  -0.484  14.142  1.00  0.00     0.168 HD
HETATM    3  C   UNL     1      61.950  -0.288  12.438  1.00  0.00     0.158 A 
HETATM    4  O   UNL     1      62.140  -0.243  11.081  1.00  0.00    -0.296 OA
HETATM    5  C   UNL     1      64.052  -0.524  12.167  1.00  0.00     0.043 A 
HETATM    6  C   UNL     1      63.491  -0.386  10.917  1.00  0.00     0.074 A 
HETATM    7  C   UNL     1      63.994  -0.348   9.534  1.00  0.00     0.079 C 
ENDROOT
BRANCH   3   8
HETATM    8  C   UNL     1      60.581  -0.133  12.924  1.00  0.00     0.015 A 
HETATM    9  C   UNL     1      59.837  -1.272  13.267  1.00  0.00     0.016 A 
HETATM   10  C   UNL     1      58.531  -1.157  13.749  1.00  0.00     0.001 A 
HETATM   11  C   UNL     1      57.951   0.102  13.890  1.00  0.00     0.000 A 
HETATM   12  C   UNL     1      58.672   1.243  13.545  1.00  0.00     0.001 A 
HETATM   13  C   UNL     1      59.980   1.128  13.065  1.00  0.00     0.016 A 
ENDBRANCH   3   8
BRANCH   5  14
HETATM   14  C   UNL     1      65.472  -0.708  12.581  1.00  0.00     0.085 C 
BRANCH  14  15
HETATM   15  C   UNL     1      66.260   0.600  12.506  1.00  0.00     0.170 C 
BRANCH  15  16
HETATM   16  O   UNL     1      66.803   0.960  13.774  1.00  0.00    -0.400 OA
HETATM   17  H   UNL     1      67.395   0.257  14.083  1.00  0.00     0.209 HD
ENDBRANCH  15  16
ENDBRANCH  14  15
ENDBRANCH   5  14
TORSDOF 4
ENDMDL
MODEL 9
REMARK VINA RESULT:      -4.6      4.513      5.967
REMARK  4 active torsions:
REMARK  status: ('A' for Active; 'I' for Inactive)
REMARK    1  A    between atoms: C_3  and  C_7 
REMARK    2  A    between atoms: C_5  and  C_8 
REMARK    3  A    between atoms: C_8  and  C_11 
REMARK    4  A    between atoms: O_10  and  C_11 
ROOT
HETATM    1  N   UNL     1      60.344   8.290   3.517  1.00  0.00    -0.337 N 
ATOM      2  HN  UNL     1      60.124   8.454   4.499  1.00  0.00     0.168 HD
HETATM    3  C   UNL     1      59.565   7.767   2.589  1.00  0.00     0.158 A 
HETATM    4  O   UNL     1      60.148   7.700   1.349  1.00  0.00    -0.296 OA
HETATM    5  C   UNL     1      61.525   8.565   2.856  1.00  0.00     0.043 A 
HETATM    6  C   UNL     1      61.400   8.222   1.528  1.00  0.00     0.074 A 
HETATM    7  C   UNL     1      62.258   8.301   0.335  1.00  0.00     0.079 C 
ENDROOT
BRANCH   3   8
HETATM    8  C   UNL     1      58.189   7.293   2.704  1.00  0.00     0.015 A 
HETATM    9  C   UNL     1      57.443   7.046   1.541  1.00  0.00     0.016 A 
HETATM   10  C   UNL     1      56.129   6.578   1.617  1.00  0.00     0.001 A 
HETATM   11  C   UNL     1      55.543   6.355   2.861  1.00  0.00     0.000 A 
HETATM   12  C   UNL     1      56.264   6.604   4.025  1.00  0.00     0.001 A 
HETATM   13  C   UNL     1      57.581   7.070   3.949  1.00  0.00     0.016 A 
ENDBRANCH   3   8
BRANCH   5  14
HETATM   14  C   UNL     1      62.665   9.171   3.601  1.00  0.00     0.085 C 
BRANCH  14  15
HETATM   15  C   UNL     1      62.274  10.495   4.258  1.00  0.00     0.170 C 
BRANCH  15  16
HETATM   16  O   UNL     1      61.349  11.227   3.458  1.00  0.00    -0.400 OA
HETATM   17  H   UNL     1      60.479  11.224   3.885  1.00  0.00     0.209 HD
ENDBRANCH  15  16
ENDBRANCH  14  15
ENDBRANCH   5  14
TORSDOF 4
ENDMDL
