MODEL 1
REMARK VINA RESULT:      -6.0      0.000      0.000
REMARK  4 active torsions:
REMARK  status: ('A' for Active; 'I' for Inactive)
REMARK    1  A    between atoms: C_1  and  N_6 
REMARK    2  A    between atoms: C_4  and  O_5 
REMARK    3  A    between atoms: O_5  and  C_7 
REMARK    4  A    between atoms: C_7  and  C_8 
ROOT
HETATM    1  C   UNL     1      66.851   7.974   6.516  1.00  0.00     0.132 A 
HETATM    2  N   UNL     1      67.746   6.963   6.435  1.00  0.00    -0.350 N 
ATOM      3  HN  UNL     1      68.483   6.858   7.133  1.00  0.00     0.166 HD
HETATM    4  C   UNL     1      65.831   8.155   5.576  1.00  0.00     0.112 A 
HETATM    5  C   UNL     1      67.637   6.097   5.406  1.00  0.00     0.090 A 
HETATM    6  C   UNL     1      65.776   7.251   4.506  1.00  0.00     0.042 A 
HETATM    7  C   UNL     1      66.682   6.204   4.416  1.00  0.00     0.020 A 
ENDROOT
BRANCH   4   8
HETATM    8  O   UNL     1      64.829   9.082   5.516  1.00  0.00    -0.343 OA
BRANCH   8   9
HETATM    9  C   UNL     1      63.479   8.705   5.265  1.00  0.00     0.214 C 
BRANCH   9  10
HETATM   10  C   UNL     1      62.852   9.372   4.056  1.00  0.00    -0.034 A 
HETATM   11  C   UNL     1      62.346  10.680   4.088  1.00  0.00     0.009 A 
HETATM   12  C   UNL     1      61.804  11.266   2.942  1.00  0.00     0.001 A 
HETATM   13  C   UNL     1      61.739  10.545   1.752  1.00  0.00     0.000 A 
HETATM   14  C   UNL     1      62.206   9.232   1.714  1.00  0.00     0.001 A 
HETATM   15  C   UNL     1      62.755   8.649   2.857  1.00  0.00     0.009 A 
ENDBRANCH   9  10
ENDBRANCH   8   9
ENDBRANCH   4   8
BRANCH   1  16
HETATM   16  N   UNL     1      67.068   8.790   7.622  1.00  0.00    -0.383 N 
HETATM   17  H   UNL     1      67.823   9.423   7.628  1.00  0.00     0.157 HD
HETATM   18  H   UNL     1      66.466   8.737   8.399  1.00  0.00     0.157 HD
ENDBRANCH   1  16
TORSDOF 4
ENDMDL
MODEL 2
REMARK VINA RESULT:      -5.9      0.057      1.245
REMARK  4 active torsions:
REMARK  status: ('A' for Active; 'I' for Inactive)
REMARK    1  A    between atoms: C_1  and  N_6 
REMARK    2  A    between atoms: C_4  and  O_5 
REMARK    3  A    between atoms: O_5  and  C_7 
REMARK    4  A    between atoms: C_7  and  C_8 
ROOT
HETATM    1  C   UNL     1      66.845   7.932   6.521  1.00  0.00     0.132 A 
HETATM    2  N   UNL     1      67.727   6.908   6.448  1.00  0.00    -0.350 N 
ATOM      3  HN  UNL     1      68.462   6.799   7.146  1.00  0.00     0.166 HD
HETATM    4  C   UNL     1      65.828   8.119   5.580  1.00  0.00     0.112 A 
HETATM    5  C   UNL     1      67.607   6.036   5.424  1.00  0.00     0.090 A 
HETATM    6  C   UNL     1      65.761   7.209   4.516  1.00  0.00     0.042 A 
HETATM    7  C   UNL     1      66.654   6.150   4.433  1.00  0.00     0.020 A 
ENDROOT
BRANCH   4   8
HETATM    8  O   UNL     1      64.838   9.059   5.514  1.00  0.00    -0.343 OA
BRANCH   8   9
HETATM    9  C   UNL     1      63.483   8.698   5.267  1.00  0.00     0.214 C 
BRANCH   9  10
HETATM   10  C   UNL     1      62.875   9.333   4.030  1.00  0.00    -0.034 A 
HETATM   11  C   UNL     1      62.816   8.677   2.792  1.00  0.00     0.009 A 
HETATM   12  C   UNL     1      62.222   9.289   1.686  1.00  0.00     0.001 A 
HETATM   13  C   UNL     1      61.697  10.574   1.797  1.00  0.00     0.000 A 
HETATM   14  C   UNL     1      61.780  11.253   3.012  1.00  0.00     0.001 A 
HETATM   15  C   UNL     1      62.367  10.638   4.119  1.00  0.00     0.009 A 
ENDBRANCH   9  10
ENDBRANCH   8   9
ENDBRANCH   4   8
BRANCH   1  16
HETATM   16  N   UNL     1      67.072   8.752   7.622  1.00  0.00    -0.383 N 
HETATM   17  H   UNL     1      66.995   9.730   7.532  1.00  0.00     0.157 HD
HETATM   18  H   UNL     1      67.309   8.356   8.491  1.00  0.00     0.157 HD
ENDBRANCH   1  16
TORSDOF 4
ENDMDL
MODEL 3
REMARK VINA RESULT:      -5.6      2.480      6.159
REMARK  4 active torsions:
REMARK  status: ('A' for Active; 'I' for Inactive)
REMARK    1  A    between atoms: C_1  and  N_6 
REMARK    2  A    between atoms: C_4  and  O_5 
REMARK    3  A    between atoms: O_5  and  C_7 
REMARK    4  A    between atoms: C_7  and  C_8 
ROOT
HETATM    1  C   UNL     1      63.484  10.305   5.340  1.00  0.00     0.132 A 
HETATM    2  N   UNL     1      62.430  10.435   4.502  1.00  0.00    -0.350 N 
ATOM      3  HN  UNL     1      61.827  11.257   4.541  1.00  0.00     0.166 HD
HETATM    4  C   UNL     1      64.329   9.191   5.321  1.00  0.00     0.112 A 
HETATM    5  C   UNL     1      62.199   9.447   3.612  1.00  0.00     0.090 A 
HETATM    6  C   UNL     1      64.032   8.175   4.403  1.00  0.00     0.042 A 
HETATM    7  C   UNL     1      62.959   8.299   3.531  1.00  0.00     0.020 A 
ENDROOT
BRANCH   4   8
HETATM    8  O   UNL     1      65.446   8.908   6.055  1.00  0.00    -0.343 OA
BRANCH   8   9
HETATM    9  C   UNL     1      66.400   7.944   5.620  1.00  0.00     0.214 C 
BRANCH   9  10
HETATM   10  C   UNL     1      66.897   7.012   6.709  1.00  0.00    -0.034 A 
HETATM   11  C   UNL     1      66.682   7.258   8.074  1.00  0.00     0.009 A 
HETATM   12  C   UNL     1      67.133   6.358   9.042  1.00  0.00     0.001 A 
HETATM   13  C   UNL     1      67.823   5.210   8.662  1.00  0.00     0.000 A 
HETATM   14  C   UNL     1      68.075   4.970   7.311  1.00  0.00     0.001 A 
HETATM   15  C   UNL     1      67.618   5.866   6.343  1.00  0.00     0.009 A 
ENDBRANCH   9  10
ENDBRANCH   8   9
ENDBRANCH   4   8
BRANCH   1  16
HETATM   16  N   UNL     1      63.616  11.390   6.201  1.00  0.00    -0.383 N 
HETATM   17  H   UNL     1      64.500  11.802   6.343  1.00  0.00     0.157 HD
HETATM   18  H   UNL     1      62.827  11.748   6.668  1.00  0.00     0.157 HD
ENDBRANCH   1  16
TORSDOF 4
ENDMDL
MODEL 4
REMARK VINA RESULT:      -5.1      2.729      5.827
REMARK  4 active torsions:
REMARK  status: ('A' for Active; 'I' for Inactive)
REMARK    1  A    between atoms: C_1  and  N_6 
REMARK    2  A    between atoms: C_4  and  O_5 
REMARK    3  A    between atoms: O_5  and  C_7 
REMARK    4  A    between atoms: C_7  and  C_8 
ROOT
HETATM    1  C   UNL     1      62.325  10.681   4.024  1.00  0.00     0.132 A 
HETATM    2  N   UNL     1      61.766  10.913   2.814  1.00  0.00    -0.350 N 
ATOM      3  HN  UNL     1      61.366  11.822   2.587  1.00  0.00     0.166 HD
HETATM    4  C   UNL     1      62.878   9.446   4.375  1.00  0.00     0.112 A 
HETATM    5  C   UNL     1      61.753   9.905   1.915  1.00  0.00     0.090 A 
HETATM    6  C   UNL     1      62.813   8.419   3.423  1.00  0.00     0.042 A 
HETATM    7  C   UNL     1      62.250   8.645   2.175  1.00  0.00     0.020 A 
ENDROOT
BRANCH   4   8
HETATM    8  O   UNL     1      63.509   9.045   5.519  1.00  0.00    -0.343 OA
BRANCH   8   9
HETATM    9  C   UNL     1      63.734   7.668   5.803  1.00  0.00     0.214 C 
BRANCH   9  10
HETATM   10  C   UNL     1      65.196   7.270   5.878  1.00  0.00    -0.034 A 
HETATM   11  C   UNL     1      66.159   7.746   4.977  1.00  0.00     0.009 A 
HETATM   12  C   UNL     1      67.500   7.376   5.102  1.00  0.00     0.001 A 
HETATM   13  C   UNL     1      67.894   6.508   6.117  1.00  0.00     0.000 A 
HETATM   14  C   UNL     1      66.942   5.998   6.999  1.00  0.00     0.001 A 
HETATM   15  C   UNL     1      65.603   6.374   6.879  1.00  0.00     0.009 A 
ENDBRANCH   9  10
ENDBRANCH   8   9
ENDBRANCH   4   8
BRANCH   1  16
HETATM   16  N   UNL     1      62.281  11.798   4.853  1.00  0.00    -0.383 N 
HETATM   17  H   UNL     1      62.972  12.496   4.778  1.00  0.00     0.157 HD
HETATM   18  H   UNL     1      61.558  11.892   5.515  1.00  0.00     0.157 HD
ENDBRANCH   1  16
TORSDOF 4
ENDMDL
MODEL 5
REMARK VINA RESULT:      -5.1      2.373      3.038
REMARK  4 active torsions:
REMARK  status: ('A' for Active; 'I' for Inactive)
REMARK    1  A    between atoms: C_1  and  N_6 
REMARK    2  A    between atoms: C_4  and  O_5 
REMARK    3  A    between atoms: O_5  and  C_7 
REMARK    4  A    between atoms: C_7  and  C_8 
ROOT
HETATM    1  C   UNL     1      65.567   4.978   7.551  1.00  0.00     0.132 A 
HETATM    2  N   UNL     1      66.443   4.153   8.169  1.00  0.00    -0.350 N 
ATOM      3  HN  UNL     1      66.302   3.143   8.167  1.00  0.00     0.166 HD
HETATM    4  C   UNL     1      65.723   6.368   7.537  1.00  0.00     0.112 A 
HETATM    5  C   UNL     1      67.508   4.704   8.790  1.00  0.00     0.090 A 
HETATM    6  C   UNL     1      66.824   6.898   8.222  1.00  0.00     0.042 A 
HETATM    7  C   UNL     1      67.735   6.063   8.853  1.00  0.00     0.020 A 
ENDROOT
BRANCH   4   8
HETATM    8  O   UNL     1      64.972   7.342   6.942  1.00  0.00    -0.343 OA
BRANCH   8   9
HETATM    9  C   UNL     1      65.384   7.962   5.727  1.00  0.00     0.214 C 
BRANCH   9  10
HETATM   10  C   UNL     1      64.245   8.398   4.824  1.00  0.00    -0.034 A 
HETATM   11  C   UNL     1      63.467   9.536   5.080  1.00  0.00     0.009 A 
HETATM   12  C   UNL     1      62.447   9.916   4.204  1.00  0.00     0.001 A 
HETATM   13  C   UNL     1      62.176   9.152   3.072  1.00  0.00     0.000 A 
HETATM   14  C   UNL     1      62.918   7.998   2.823  1.00  0.00     0.001 A 
HETATM   15  C   UNL     1      63.943   7.622   3.694  1.00  0.00     0.009 A 
ENDBRANCH   9  10
ENDBRANCH   8   9
ENDBRANCH   4   8
BRANCH   1  16
HETATM   16  N   UNL     1      64.521   4.288   6.946  1.00  0.00    -0.383 N 
HETATM   17  H   UNL     1      63.629   4.281   7.364  1.00  0.00     0.157 HD
HETATM   18  H   UNL     1      64.672   3.807   6.101  1.00  0.00     0.157 HD
ENDBRANCH   1  16
TORSDOF 4
ENDMDL
MODEL 6
REMARK VINA RESULT:      -5.1      1.451      2.064
REMARK  4 active torsions:
REMARK  status: ('A' for Active; 'I' for Inactive)
REMARK    1  A    between atoms: C_1  and  N_6 
REMARK    2  A    between atoms: C_4  and  O_5 
REMARK    3  A    between atoms: O_5  and  C_7 
REMARK    4  A    between atoms: C_7  and  C_8 
ROOT
HETATM    1  C   UNL     1      65.306   6.029   6.051  1.00  0.00     0.132 A 
HETATM    2  N   UNL     1      66.483   5.451   5.719  1.00  0.00    -0.350 N 
ATOM      3  HN  UNL     1      66.694   4.493   5.998  1.00  0.00     0.166 HD
HETATM    4  C   UNL     1      64.984   7.342   5.692  1.00  0.00     0.112 A 
HETATM    5  C   UNL     1      67.371   6.178   5.008  1.00  0.00     0.090 A 
HETATM    6  C   UNL     1      65.948   8.070   4.983  1.00  0.00     0.042 A 
HETATM    7  C   UNL     1      67.156   7.486   4.628  1.00  0.00     0.020 A 
ENDROOT
BRANCH   4   8
HETATM    8  O   UNL     1      63.846   8.069   5.905  1.00  0.00    -0.343 OA
BRANCH   8   9
HETATM    9  C   UNL     1      62.650   7.810   5.177  1.00  0.00     0.214 C 
BRANCH   9  10
HETATM   10  C   UNL     1      62.434   8.712   3.976  1.00  0.00    -0.034 A 
HETATM   11  C   UNL     1      62.527   8.251   2.655  1.00  0.00     0.009 A 
HETATM   12  C   UNL     1      62.292   9.110   1.579  1.00  0.00     0.001 A 
HETATM   13  C   UNL     1      61.982  10.449   1.808  1.00  0.00     0.000 A 
HETATM   14  C   UNL     1      61.921  10.930   3.115  1.00  0.00     0.001 A 
HETATM   15  C   UNL     1      62.148  10.069   4.191  1.00  0.00     0.009 A 
ENDBRANCH   9  10
ENDBRANCH   8   9
ENDBRANCH   4   8
BRANCH   1  16
HETATM   16  N   UNL     1      64.480   5.176   6.776  1.00  0.00    -0.383 N 
HETATM   17  H   UNL     1      64.543   4.201   6.647  1.00  0.00     0.157 HD
HETATM   18  H   UNL     1      63.832   5.546   7.418  1.00  0.00     0.157 HD
ENDBRANCH   1  16
TORSDOF 4
ENDMDL
MODEL 7
REMARK VINA RESULT:      -5.1      1.441      2.286
REMARK  4 active torsions:
REMARK  status: ('A' for Active; 'I' for Inactive)
REMARK    1  A    between atoms: C_1  and  N_6 
REMARK    2  A    between atoms: C_4  and  O_5 
REMARK    3  A    between atoms: O_5  and  C_7 
REMARK    4  A    between atoms: C_7  and  C_8 
ROOT
HETATM    1  C   UNL     1      66.350   6.291   4.178  1.00  0.00     0.132 A 
HETATM    2  N   UNL     1      67.649   6.465   4.513  1.00  0.00    -0.350 N 
ATOM      3  HN  UNL     1      68.385   5.930   4.053  1.00  0.00     0.166 HD
HETATM    4  C   UNL     1      65.312   7.001   4.792  1.00  0.00     0.112 A 
HETATM    5  C   UNL     1      67.944   7.366   5.474  1.00  0.00     0.090 A 
HETATM    6  C   UNL     1      65.661   7.902   5.806  1.00  0.00     0.042 A 
HETATM    7  C   UNL     1      66.991   8.097   6.153  1.00  0.00     0.020 A 
ENDROOT
BRANCH   4   8
HETATM    8  O   UNL     1      63.965   6.984   4.562  1.00  0.00    -0.343 OA
BRANCH   8   9
HETATM    9  C   UNL     1      63.425   7.279   3.277  1.00  0.00     0.214 C 
BRANCH   9  10
HETATM   10  C   UNL     1      62.835   8.670   3.145  1.00  0.00    -0.034 A 
HETATM   11  C   UNL     1      62.704   9.545   4.234  1.00  0.00     0.009 A 
HETATM   12  C   UNL     1      62.181  10.829   4.060  1.00  0.00     0.001 A 
HETATM   13  C   UNL     1      61.762  11.249   2.801  1.00  0.00     0.000 A 
HETATM   14  C   UNL     1      61.854  10.378   1.716  1.00  0.00     0.001 A 
HETATM   15  C   UNL     1      62.384   9.098   1.887  1.00  0.00     0.009 A 
ENDBRANCH   9  10
ENDBRANCH   8   9
ENDBRANCH   4   8
BRANCH   1  16
HETATM   16  N   UNL     1      66.181   5.342   3.175  1.00  0.00    -0.383 N 
HETATM   17  H   UNL     1      65.510   5.486   2.468  1.00  0.00     0.157 HD
HETATM   18  H   UNL     1      66.732   4.527   3.171  1.00  0.00     0.157 HD
ENDBRANCH   1  16
TORSDOF 4
ENDMDL
MODEL 8
REMARK VINA RESULT:      -4.9      4.914      6.227
REMARK  4 active torsions:
REMARK  status: ('A' for Active; 'I' for Inactive)
REMARK    1  A    between atoms: C_1  and  N_6 
REMARK    2  A    between atoms: C_4  and  O_5 
REMARK    3  A    between atoms: O_5  and  C_7 
REMARK    4  A    between atoms: C_7  and  C_8 
ROOT
HETATM    1  C   UNL     1      59.172   7.627   2.138  1.00  0.00     0.132 A 
HETATM    2  N   UNL     1      58.049   7.643   2.893  1.00  0.00    -0.350 N 
ATOM      3  HN  UNL     1      57.212   8.133   2.577  1.00  0.00     0.166 HD
HETATM    4  C   UNL     1      60.341   6.972   2.540  1.00  0.00     0.112 A 
HETATM    5  C   UNL     1      58.068   6.993   4.076  1.00  0.00     0.090 A 
HETATM    6  C   UNL     1      60.325   6.339   3.789  1.00  0.00     0.042 A 
HETATM    7  C   UNL     1      59.178   6.340   4.570  1.00  0.00     0.020 A 
ENDROOT
BRANCH   4   8
HETATM    8  O   UNL     1      61.540   6.820   1.902  1.00  0.00    -0.343 OA
BRANCH   8   9
HETATM    9  C   UNL     1      62.688   7.568   2.287  1.00  0.00     0.214 C 
BRANCH   9  10
HETATM   10  C   UNL     1      62.412   9.023   2.617  1.00  0.00    -0.034 A 
HETATM   11  C   UNL     1      62.072   9.971   1.639  1.00  0.00     0.009 A 
HETATM   12  C   UNL     1      61.797  11.294   1.992  1.00  0.00     0.001 A 
HETATM   13  C   UNL     1      61.878  11.695   3.323  1.00  0.00     0.000 A 
HETATM   14  C   UNL     1      62.249  10.772   4.301  1.00  0.00     0.001 A 
HETATM   15  C   UNL     1      62.516   9.448   3.950  1.00  0.00     0.009 A 
ENDBRANCH   9  10
ENDBRANCH   8   9
ENDBRANCH   4   8
BRANCH   1  16
HETATM   16  N   UNL     1      59.020   8.325   0.944  1.00  0.00    -0.383 N 
HETATM   17  H   UNL     1      58.127   8.624   0.657  1.00  0.00     0.157 HD
HETATM   18  H   UNL     1      59.806   8.521   0.385  1.00  0.00     0.157 HD
ENDBRANCH   1  16
TORSDOF 4
ENDMDL
MODEL 9
REMARK VINA RESULT:      -4.8      3.216      6.103
REMARK  4 active torsions:
REMARK  status: ('A' for Active; 'I' for Inactive)
REMARK    1  A    between atoms: C_1  and  N_6 
REMARK    2  A    between atoms: C_4  and  O_5 
REMARK    3  A    between atoms: O_5  and  C_7 
REMARK    4  A    between atoms: C_7  and  C_8 
ROOT
HETATM    1  C   UNL     1      62.141   9.311   2.076  1.00  0.00     0.132 A 
HETATM    2  N   UNL     1      61.799  10.602   1.861  1.00  0.00    -0.350 N 
ATOM      3  HN  UNL     1      61.546  10.929   0.928  1.00  0.00     0.166 HD
HETATM    4  C   UNL     1      62.501   8.827   3.338  1.00  0.00     0.112 A 
HETATM    5  C   UNL     1      61.803  11.446   2.914  1.00  0.00     0.090 A 
HETATM    6  C   UNL     1      62.522   9.746   4.396  1.00  0.00     0.042 A 
HETATM    7  C   UNL     1      62.165  11.071   4.191  1.00  0.00     0.020 A 
ENDROOT
BRANCH   4   8
HETATM    8  O   UNL     1      62.835   7.567   3.746  1.00  0.00    -0.343 OA
BRANCH   8   9
HETATM    9  C   UNL     1      64.170   7.081   3.646  1.00  0.00     0.214 C 
BRANCH   9  10
HETATM   10  C   UNL     1      64.963   7.146   4.939  1.00  0.00    -0.034 A 
HETATM   11  C   UNL     1      64.577   6.461   6.100  1.00  0.00     0.009 A 
HETATM   12  C   UNL     1      65.353   6.526   7.260  1.00  0.00     0.001 A 
HETATM   13  C   UNL     1      66.515   7.294   7.281  1.00  0.00     0.000 A 
HETATM   14  C   UNL     1      66.893   8.008   6.145  1.00  0.00     0.001 A 
HETATM   15  C   UNL     1      66.121   7.937   4.984  1.00  0.00     0.009 A 
ENDBRANCH   9  10
ENDBRANCH   8   9
ENDBRANCH   4   8
BRANCH   1  16
HETATM   16  N   UNL     1      62.092   8.547   0.914  1.00  0.00    -0.383 N 
HETATM   17  H   UNL     1      61.477   8.795   0.187  1.00  0.00     0.157 HD
HETATM   18  H   UNL     1      62.673   7.758   0.819  1.00  0.00     0.157 HD
ENDBRANCH   1  16
TORSDOF 4
ENDMDL
