MODEL 1
REMARK VINA RESULT:      -5.2      0.000      0.000
REMARK  2 active torsions:
REMARK  status: ('A' for Active; 'I' for Inactive)
REMARK    1  A    between atoms: C_7  and  O_11 
REMARK    2  A    between atoms: C_9  and  O_12 
ROOT
HETATM    1  C   UNL     1      62.658   8.703   3.129  1.00  0.00    -0.005 A 
HETATM    2  C   UNL     1      62.991   7.331   3.185  1.00  0.00     0.053 A 
HETATM    3  C   UNL     1      62.766   9.462   4.286  1.00  0.00    -0.042 A 
HETATM    4  N   UNL     1      61.757  10.608   1.867  1.00  0.00    -0.392 N 
ATOM      5  HN  UNL     1      61.431  10.988   0.978  1.00  0.00     0.159 HD
HETATM    6  C   UNL     1      62.148   9.381   1.915  1.00  0.00     0.012 A 
HETATM    7  C   UNL     1      63.424   6.715   4.385  1.00  0.00     0.102 A 
HETATM    8  C   UNL     1      63.241   8.861   5.453  1.00  0.00     0.047 A 
HETATM    9  C   UNL     1      63.568   7.497   5.537  1.00  0.00     0.102 A 
HETATM   10  C   UNL     1      61.766  11.475   3.044  1.00  0.00     0.124 A 
HETATM   11  C   UNL     1      62.322  10.890   4.337  1.00  0.00     0.059 A 
HETATM   12  C   UNL     1      62.063   8.605   0.622  1.00  0.00     0.068 C 
ENDROOT
BRANCH   7  13
HETATM   13  O   UNL     1      63.411   5.343   4.359  1.00  0.00    -0.353 OA
HETATM   14  C   UNL     1      64.645   4.702   4.054  1.00  0.00     0.210 C 
ENDBRANCH   7  13
BRANCH   9  15
HETATM   15  O   UNL     1      63.887   7.185   6.821  1.00  0.00    -0.353 OA
HETATM   16  C   UNL     1      65.152   6.682   7.185  1.00  0.00     0.210 C 
ENDBRANCH   9  15
TORSDOF 2
ENDMDL
MODEL 2
REMARK VINA RESULT:      -5.1      1.147      2.890
REMARK  2 active torsions:
REMARK  status: ('A' for Active; 'I' for Inactive)
REMARK    1  A    between atoms: C_7  and  O_11 
REMARK    2  A    between atoms: C_9  and  O_12 
ROOT
HETATM    1  C   UNL     1      62.945   9.071   3.845  1.00  0.00    -0.005 A 
HETATM    2  C   UNL     1      63.631   8.935   5.073  1.00  0.00     0.053 A 
HETATM    3  C   UNL     1      62.991   8.023   2.937  1.00  0.00    -0.042 A 
HETATM    4  N   UNL     1      61.657  10.469   2.289  1.00  0.00    -0.392 N 
ATOM      5  HN  UNL     1      61.167  11.344   2.107  1.00  0.00     0.159 HD
HETATM    6  C   UNL     1      62.214  10.293   3.438  1.00  0.00     0.012 A 
HETATM    7  C   UNL     1      64.363   7.765   5.395  1.00  0.00     0.102 A 
HETATM    8  C   UNL     1      63.672   6.853   3.280  1.00  0.00     0.047 A 
HETATM    9  C   UNL     1      64.370   6.697   4.490  1.00  0.00     0.102 A 
HETATM   10  C   UNL     1      61.705   9.454   1.237  1.00  0.00     0.124 A 
HETATM   11  C   UNL     1      62.391   8.135   1.570  1.00  0.00     0.059 A 
HETATM   12  C   UNL     1      62.096  11.438   4.415  1.00  0.00     0.068 C 
ENDROOT
BRANCH   7  13
HETATM   13  O   UNL     1      65.213   7.900   6.463  1.00  0.00    -0.353 OA
HETATM   14  C   UNL     1      66.590   8.100   6.160  1.00  0.00     0.210 C 
ENDBRANCH   7  13
BRANCH   9  15
HETATM   15  O   UNL     1      65.022   5.505   4.487  1.00  0.00    -0.353 OA
HETATM   16  C   UNL     1      64.787   4.512   5.459  1.00  0.00     0.210 C 
ENDBRANCH   9  15
TORSDOF 2
ENDMDL
MODEL 3
REMARK VINA RESULT:      -4.7      1.820      3.056
REMARK  2 active torsions:
REMARK  status: ('A' for Active; 'I' for Inactive)
REMARK    1  A    between atoms: C_7  and  O_11 
REMARK    2  A    between atoms: C_9  and  O_12 
ROOT
HETATM    1  C   UNL     1      62.735   8.514   4.376  1.00  0.00    -0.005 A 
HETATM    2  C   UNL     1      64.022   8.887   4.822  1.00  0.00     0.053 A 
HETATM    3  C   UNL     1      62.376   7.175   4.422  1.00  0.00    -0.042 A 
HETATM    4  N   UNL     1      60.606   9.131   3.314  1.00  0.00    -0.392 N 
ATOM      5  HN  UNL     1      59.992   9.861   2.955  1.00  0.00     0.159 HD
HETATM    6  C   UNL     1      61.750   9.464   3.807  1.00  0.00     0.012 A 
HETATM    7  C   UNL     1      64.950   7.934   5.309  1.00  0.00     0.102 A 
HETATM    8  C   UNL     1      63.276   6.247   4.949  1.00  0.00     0.047 A 
HETATM    9  C   UNL     1      64.565   6.590   5.389  1.00  0.00     0.102 A 
HETATM   10  C   UNL     1      60.160   7.739   3.253  1.00  0.00     0.124 A 
HETATM   11  C   UNL     1      61.078   6.685   3.859  1.00  0.00     0.059 A 
HETATM   12  C   UNL     1      62.079  10.937   3.784  1.00  0.00     0.068 C 
ENDROOT
BRANCH   7  13
HETATM   13  O   UNL     1      66.239   8.392   5.412  1.00  0.00    -0.353 OA
HETATM   14  C   UNL     1      66.821   8.368   6.711  1.00  0.00     0.210 C 
ENDBRANCH   7  13
BRANCH   9  15
HETATM   15  O   UNL     1      65.241   5.464   5.737  1.00  0.00    -0.353 OA
HETATM   16  C   UNL     1      65.311   5.004   7.067  1.00  0.00     0.210 C 
ENDBRANCH   9  15
TORSDOF 2
ENDMDL
MODEL 4
REMARK VINA RESULT:      -4.5      2.903      5.410
REMARK  2 active torsions:
REMARK  status: ('A' for Active; 'I' for Inactive)
REMARK    1  A    between atoms: C_7  and  O_11 
REMARK    2  A    between atoms: C_9  and  O_12 
ROOT
HETATM    1  C   UNL     1      65.629   7.276   4.360  1.00  0.00    -0.005 A 
HETATM    2  C   UNL     1      65.054   8.370   5.046  1.00  0.00     0.053 A 
HETATM    3  C   UNL     1      64.827   6.523   3.515  1.00  0.00    -0.042 A 
HETATM    4  N   UNL     1      67.555   5.800   3.977  1.00  0.00    -0.392 N 
ATOM      5  HN  UNL     1      68.540   5.593   4.144  1.00  0.00     0.159 HD
HETATM    6  C   UNL     1      67.037   6.845   4.525  1.00  0.00     0.012 A 
HETATM    7  C   UNL     1      63.687   8.710   4.896  1.00  0.00     0.102 A 
HETATM    8  C   UNL     1      63.493   6.894   3.333  1.00  0.00     0.047 A 
HETATM    9  C   UNL     1      62.895   7.970   4.011  1.00  0.00     0.102 A 
HETATM   10  C   UNL     1      66.779   4.902   3.124  1.00  0.00     0.124 A 
HETATM   11  C   UNL     1      65.329   5.282   2.846  1.00  0.00     0.059 A 
HETATM   12  C   UNL     1      67.959   7.666   5.395  1.00  0.00     0.068 C 
ENDROOT
BRANCH   7  13
HETATM   13  O   UNL     1      63.209   9.583   5.840  1.00  0.00    -0.353 OA
HETATM   14  C   UNL     1      62.875  10.891   5.387  1.00  0.00     0.210 C 
ENDBRANCH   7  13
BRANCH   9  15
HETATM   15  O   UNL     1      61.569   8.011   3.716  1.00  0.00    -0.353 OA
HETATM   16  C   UNL     1      61.051   8.797   2.668  1.00  0.00     0.210 C 
ENDBRANCH   9  15
TORSDOF 2
ENDMDL
MODEL 5
REMARK VINA RESULT:      -4.5      2.360      2.699
REMARK  2 active torsions:
REMARK  status: ('A' for Active; 'I' for Inactive)
REMARK    1  A    between atoms: C_7  and  O_11 
REMARK    2  A    between atoms: C_9  and  O_12 
ROOT
HETATM    1  C   UNL     1      60.971   7.483   3.857  1.00  0.00    -0.005 A 
HETATM    2  C   UNL     1      60.663   6.674   4.974  1.00  0.00     0.053 A 
HETATM    3  C   UNL     1      62.170   8.181   3.850  1.00  0.00    -0.042 A 
HETATM    4  N   UNL     1      60.287   8.478   1.717  1.00  0.00    -0.392 N 
ATOM      5  HN  UNL     1      59.604   8.533   0.962  1.00  0.00     0.159 HD
HETATM    6  C   UNL     1      60.064   7.677   2.702  1.00  0.00     0.012 A 
HETATM    7  C   UNL     1      61.541   6.563   6.081  1.00  0.00     0.102 A 
HETATM    8  C   UNL     1      63.053   8.028   4.921  1.00  0.00     0.047 A 
HETATM    9  C   UNL     1      62.766   7.238   6.047  1.00  0.00     0.102 A 
HETATM   10  C   UNL     1      61.488   9.308   1.646  1.00  0.00     0.124 A 
HETATM   11  C   UNL     1      62.515   9.148   2.761  1.00  0.00     0.059 A 
HETATM   12  C   UNL     1      58.771   6.898   2.645  1.00  0.00     0.068 C 
ENDROOT
BRANCH   7  13
HETATM   13  O   UNL     1      60.980   6.001   7.200  1.00  0.00    -0.353 OA
HETATM   14  C   UNL     1      60.649   4.619   7.120  1.00  0.00     0.210 C 
ENDBRANCH   7  13
BRANCH   9  15
HETATM   15  O   UNL     1      63.759   7.378   6.964  1.00  0.00    -0.353 OA
HETATM   16  C   UNL     1      64.954   6.633   6.905  1.00  0.00     0.210 C 
ENDBRANCH   9  15
TORSDOF 2
ENDMDL
MODEL 6
REMARK VINA RESULT:      -4.4      2.936      4.739
REMARK  2 active torsions:
REMARK  status: ('A' for Active; 'I' for Inactive)
REMARK    1  A    between atoms: C_7  and  O_11 
REMARK    2  A    between atoms: C_9  and  O_12 
ROOT
HETATM    1  C   UNL     1      65.258   6.825   3.898  1.00  0.00    -0.005 A 
HETATM    2  C   UNL     1      64.095   6.780   3.097  1.00  0.00     0.053 A 
HETATM    3  C   UNL     1      65.376   7.832   4.844  1.00  0.00    -0.042 A 
HETATM    4  N   UNL     1      67.501   5.965   4.416  1.00  0.00    -0.392 N 
ATOM      5  HN  UNL     1      68.223   5.263   4.254  1.00  0.00     0.159 HD
HETATM    6  C   UNL     1      66.396   5.887   3.757  1.00  0.00     0.012 A 
HETATM    7  C   UNL     1      63.056   7.733   3.234  1.00  0.00     0.102 A 
HETATM    8  C   UNL     1      64.327   8.739   5.009  1.00  0.00     0.047 A 
HETATM    9  C   UNL     1      63.165   8.721   4.219  1.00  0.00     0.102 A 
HETATM   10  C   UNL     1      67.753   7.028   5.388  1.00  0.00     0.124 A 
HETATM   11  C   UNL     1      66.625   8.019   5.648  1.00  0.00     0.059 A 
HETATM   12  C   UNL     1      66.289   4.745   2.774  1.00  0.00     0.068 C 
ENDROOT
BRANCH   7  13
HETATM   13  O   UNL     1      62.154   7.745   2.200  1.00  0.00    -0.353 OA
HETATM   14  C   UNL     1      61.125   6.762   2.243  1.00  0.00     0.210 C 
ENDBRANCH   7  13
BRANCH   9  15
HETATM   15  O   UNL     1      62.386   9.789   4.534  1.00  0.00    -0.353 OA
HETATM   16  C   UNL     1      62.015  10.761   3.585  1.00  0.00     0.210 C 
ENDBRANCH   9  15
TORSDOF 2
ENDMDL
MODEL 7
REMARK VINA RESULT:      -4.4      2.788      4.716
REMARK  2 active torsions:
REMARK  status: ('A' for Active; 'I' for Inactive)
REMARK    1  A    between atoms: C_7  and  O_11 
REMARK    2  A    between atoms: C_9  and  O_12 
ROOT
HETATM    1  C   UNL     1      63.342   7.164   4.691  1.00  0.00    -0.005 A 
HETATM    2  C   UNL     1      62.078   7.152   4.059  1.00  0.00     0.053 A 
HETATM    3  C   UNL     1      63.944   8.386   4.953  1.00  0.00    -0.042 A 
HETATM    4  N   UNL     1      65.288   5.931   5.545  1.00  0.00    -0.392 N 
ATOM      5  HN  UNL     1      65.722   5.036   5.768  1.00  0.00     0.159 HD
HETATM    6  C   UNL     1      64.098   5.942   5.050  1.00  0.00     0.012 A 
HETATM    7  C   UNL     1      61.417   8.349   3.686  1.00  0.00     0.102 A 
HETATM    8  C   UNL     1      63.265   9.563   4.629  1.00  0.00     0.047 A 
HETATM    9  C   UNL     1      62.013   9.578   3.992  1.00  0.00     0.102 A 
HETATM   10  C   UNL     1      66.037   7.162   5.797  1.00  0.00     0.124 A 
HETATM   11  C   UNL     1      65.330   8.481   5.510  1.00  0.00     0.059 A 
HETATM   12  C   UNL     1      63.459   4.591   4.828  1.00  0.00     0.068 C 
ENDROOT
BRANCH   7  13
HETATM   13  O   UNL     1      60.366   8.175   2.823  1.00  0.00    -0.353 OA
HETATM   14  C   UNL     1      60.696   7.871   1.471  1.00  0.00     0.210 C 
ENDBRANCH   7  13
BRANCH   9  15
HETATM   15  O   UNL     1      61.665  10.860   3.705  1.00  0.00    -0.353 OA
HETATM   16  C   UNL     1      61.784  11.405   2.411  1.00  0.00     0.210 C 
ENDBRANCH   9  15
TORSDOF 2
ENDMDL
MODEL 8
REMARK VINA RESULT:      -4.4      2.669      4.762
REMARK  2 active torsions:
REMARK  status: ('A' for Active; 'I' for Inactive)
REMARK    1  A    between atoms: C_7  and  O_11 
REMARK    2  A    between atoms: C_9  and  O_12 
ROOT
HETATM    1  C   UNL     1      62.795   8.829   3.388  1.00  0.00    -0.005 A 
HETATM    2  C   UNL     1      61.789   9.156   2.451  1.00  0.00     0.053 A 
HETATM    3  C   UNL     1      63.492   7.640   3.230  1.00  0.00    -0.042 A 
HETATM    4  N   UNL     1      63.973   9.333   5.484  1.00  0.00    -0.392 N 
ATOM      5  HN  UNL     1      64.137   9.978   6.257  1.00  0.00     0.159 HD
HETATM    6  C   UNL     1      63.123   9.657   4.572  1.00  0.00     0.012 A 
HETATM    7  C   UNL     1      61.476   8.303   1.363  1.00  0.00     0.102 A 
HETATM    8  C   UNL     1      63.213   6.828   2.128  1.00  0.00     0.047 A 
HETATM    9  C   UNL     1      62.212   7.126   1.188  1.00  0.00     0.102 A 
HETATM   10  C   UNL     1      64.712   8.072   5.447  1.00  0.00     0.124 A 
HETATM   11  C   UNL     1      64.488   7.166   4.242  1.00  0.00     0.059 A 
HETATM   12  C   UNL     1      62.423  10.983   4.756  1.00  0.00     0.068 C 
ENDROOT
BRANCH   7  13
HETATM   13  O   UNL     1      60.294   8.596   0.731  1.00  0.00    -0.353 OA
HETATM   14  C   UNL     1      59.179   7.771   1.052  1.00  0.00     0.210 C 
ENDBRANCH   7  13
BRANCH   9  15
HETATM   15  O   UNL     1      62.099   6.099   0.305  1.00  0.00    -0.353 OA
HETATM   16  C   UNL     1      62.909   4.948   0.375  1.00  0.00     0.210 C 
ENDBRANCH   9  15
TORSDOF 2
ENDMDL
MODEL 9
REMARK VINA RESULT:      -4.2      3.256      5.514
REMARK  2 active torsions:
REMARK  status: ('A' for Active; 'I' for Inactive)
REMARK    1  A    between atoms: C_7  and  O_11 
REMARK    2  A    between atoms: C_9  and  O_12 
ROOT
HETATM    1  C   UNL     1      65.744   7.085   5.691  1.00  0.00    -0.005 A 
HETATM    2  C   UNL     1      65.068   8.071   4.938  1.00  0.00     0.053 A 
HETATM    3  C   UNL     1      64.995   6.152   6.393  1.00  0.00    -0.042 A 
HETATM    4  N   UNL     1      67.849   6.176   6.575  1.00  0.00    -0.392 N 
ATOM      5  HN  UNL     1      68.869   6.199   6.590  1.00  0.00     0.159 HD
HETATM    6  C   UNL     1      67.218   7.012   5.823  1.00  0.00     0.012 A 
HETATM    7  C   UNL     1      63.654   8.132   4.885  1.00  0.00     0.102 A 
HETATM    8  C   UNL     1      63.602   6.186   6.297  1.00  0.00     0.047 A 
HETATM    9  C   UNL     1      62.906   7.162   5.563  1.00  0.00     0.102 A 
HETATM   10  C   UNL     1      67.152   5.196   7.406  1.00  0.00     0.124 A 
HETATM   11  C   UNL     1      65.632   5.151   7.305  1.00  0.00     0.059 A 
HETATM   12  C   UNL     1      68.074   7.976   5.037  1.00  0.00     0.068 C 
ENDROOT
BRANCH   7  13
HETATM   13  O   UNL     1      63.152   9.303   4.378  1.00  0.00    -0.353 OA
HETATM   14  C   UNL     1      63.050  10.397   5.285  1.00  0.00     0.210 C 
ENDBRANCH   7  13
BRANCH   9  15
HETATM   15  O   UNL     1      61.570   7.005   5.753  1.00  0.00    -0.353 OA
HETATM   16  C   UNL     1      61.038   6.038   6.629  1.00  0.00     0.210 C 
ENDBRANCH   9  15
TORSDOF 2
ENDMDL
