MODEL 1
REMARK VINA RESULT:      -5.1      0.000      0.000
REMARK  2 active torsions:
REMARK  status: ('A' for Active; 'I' for Inactive)
REMARK    1  A    between atoms: N_1  and  C_2 
REMARK    2  A    between atoms: C_3  and  N_5 
ROOT
HETATM    1  C   UNL     1      62.879   9.293   4.216  1.00  0.00     0.056 A 
HETATM    2  C   UNL     1      62.672  10.652   4.579  1.00  0.00     0.052 A 
HETATM    3  C   UNL     1      62.526   8.928   2.903  1.00  0.00     0.031 A 
HETATM    4  C   UNL     1      62.010  11.531   3.707  1.00  0.00     0.031 A 
HETATM    5  C   UNL     1      61.954   9.837   2.005  1.00  0.00     0.002 A 
HETATM    6  C   UNL     1      61.682  11.137   2.415  1.00  0.00     0.002 A 
ENDROOT
BRANCH   1   7
HETATM    7  N   UNL     1      63.501   8.391   5.067  1.00  0.00    -0.375 N 
HETATM    8  C   UNL     1      62.781   7.686   6.135  1.00  0.00     0.149 C 
HETATM    9  C   UNL     1      63.311   6.240   6.178  1.00  0.00     0.187 C 
HETATM   10  O   UNL     1      64.737   6.194   6.374  1.00  0.00    -0.388 OA
HETATM   11  C   UNL     1      65.423   6.925   5.338  1.00  0.00     0.187 C 
HETATM   12  C   UNL     1      64.958   8.394   5.290  1.00  0.00     0.149 C 
ENDBRANCH   1   7
BRANCH   2  13
HETATM   13  N   UNL     1      63.017  11.133   5.868  1.00  0.00    -0.397 N 
HETATM   14  H   UNL     1      62.558  10.778   6.665  1.00  0.00     0.156 HD
HETATM   15  H   UNL     1      63.714  11.821   5.967  1.00  0.00     0.156 HD
ENDBRANCH   2  13
TORSDOF 2
ENDMDL
MODEL 2
REMARK VINA RESULT:      -5.0      0.697      1.487
REMARK  2 active torsions:
REMARK  status: ('A' for Active; 'I' for Inactive)
REMARK    1  A    between atoms: N_1  and  C_2 
REMARK    2  A    between atoms: C_3  and  N_5 
ROOT
HETATM    1  C   UNL     1      62.730   9.083   3.799  1.00  0.00     0.056 A 
HETATM    2  C   UNL     1      62.583  10.372   4.382  1.00  0.00     0.052 A 
HETATM    3  C   UNL     1      62.414   8.966   2.433  1.00  0.00     0.031 A 
HETATM    4  C   UNL     1      62.008  11.424   3.651  1.00  0.00     0.031 A 
HETATM    5  C   UNL     1      61.931  10.045   1.685  1.00  0.00     0.002 A 
HETATM    6  C   UNL     1      61.713  11.272   2.300  1.00  0.00     0.002 A 
ENDROOT
BRANCH   1   7
HETATM    7  N   UNL     1      63.266   8.015   4.504  1.00  0.00    -0.375 N 
HETATM    8  C   UNL     1      64.710   7.757   4.574  1.00  0.00     0.149 C 
HETATM    9  C   UNL     1      65.034   7.305   6.010  1.00  0.00     0.187 C 
HETATM   10  O   UNL     1      64.266   6.149   6.397  1.00  0.00    -0.388 OA
HETATM   11  C   UNL     1      62.852   6.409   6.283  1.00  0.00     0.187 C 
HETATM   12  C   UNL     1      62.474   6.820   4.847  1.00  0.00     0.149 C 
ENDBRANCH   1   7
BRANCH   2  13
HETATM   13  N   UNL     1      62.899  10.608   5.744  1.00  0.00    -0.397 N 
HETATM   14  H   UNL     1      63.836  10.575   6.044  1.00  0.00     0.156 HD
HETATM   15  H   UNL     1      62.182  10.805   6.389  1.00  0.00     0.156 HD
ENDBRANCH   2  13
TORSDOF 2
ENDMDL
MODEL 3
REMARK VINA RESULT:      -4.9      0.913      2.000
REMARK  2 active torsions:
REMARK  status: ('A' for Active; 'I' for Inactive)
REMARK    1  A    between atoms: N_1  and  C_2 
REMARK    2  A    between atoms: C_3  and  N_5 
ROOT
HETATM    1  C   UNL     1      62.933   9.138   3.955  1.00  0.00     0.056 A 
HETATM    2  C   UNL     1      62.697   8.632   2.647  1.00  0.00     0.052 A 
HETATM    3  C   UNL     1      62.478  10.443   4.221  1.00  0.00     0.031 A 
HETATM    4  C   UNL     1      62.169   9.462   1.645  1.00  0.00     0.031 A 
HETATM    5  C   UNL     1      61.866  11.232   3.241  1.00  0.00     0.002 A 
HETATM    6  C   UNL     1      61.726  10.745   1.947  1.00  0.00     0.002 A 
ENDROOT
BRANCH   1   7
HETATM    7  N   UNL     1      63.482   8.352   4.958  1.00  0.00    -0.375 N 
HETATM    8  C   UNL     1      62.666   7.719   6.003  1.00  0.00     0.149 C 
HETATM    9  C   UNL     1      63.238   6.311   6.252  1.00  0.00     0.187 C 
HETATM   10  O   UNL     1      64.632   6.352   6.614  1.00  0.00    -0.388 OA
HETATM   11  C   UNL     1      65.409   7.012   5.595  1.00  0.00     0.187 C 
HETATM   12  C   UNL     1      64.901   8.446   5.346  1.00  0.00     0.149 C 
ENDBRANCH   1   7
BRANCH   2  13
HETATM   13  N   UNL     1      63.089   7.319   2.280  1.00  0.00    -0.397 N 
HETATM   14  H   UNL     1      62.932   6.568   2.897  1.00  0.00     0.156 HD
HETATM   15  H   UNL     1      63.518   7.159   1.409  1.00  0.00     0.156 HD
ENDBRANCH   2  13
TORSDOF 2
ENDMDL
MODEL 4
REMARK VINA RESULT:      -4.3      2.671      3.722
REMARK  2 active torsions:
REMARK  status: ('A' for Active; 'I' for Inactive)
REMARK    1  A    between atoms: N_1  and  C_2 
REMARK    2  A    between atoms: C_3  and  N_5 
ROOT
HETATM    1  C   UNL     1      61.165   8.584   2.929  1.00  0.00     0.056 A 
HETATM    2  C   UNL     1      61.125   8.631   1.509  1.00  0.00     0.052 A 
HETATM    3  C   UNL     1      60.119   7.893   3.569  1.00  0.00     0.031 A 
HETATM    4  C   UNL     1      60.012   8.137   0.809  1.00  0.00     0.031 A 
HETATM    5  C   UNL     1      59.060   7.319   2.858  1.00  0.00     0.002 A 
HETATM    6  C   UNL     1      58.999   7.456   1.476  1.00  0.00     0.002 A 
ENDROOT
BRANCH   1   7
HETATM    7  N   UNL     1      62.235   9.091   3.651  1.00  0.00    -0.375 N 
HETATM    8  C   UNL     1      62.360  10.515   3.986  1.00  0.00     0.149 C 
HETATM    9  C   UNL     1      62.905  10.610   5.424  1.00  0.00     0.187 C 
HETATM   10  O   UNL     1      64.158   9.915   5.572  1.00  0.00    -0.388 OA
HETATM   11  C   UNL     1      64.025   8.528   5.200  1.00  0.00     0.187 C 
HETATM   12  C   UNL     1      63.526   8.385   3.749  1.00  0.00     0.149 C 
ENDBRANCH   1   7
BRANCH   2  13
HETATM   13  N   UNL     1      62.143   9.277   0.761  1.00  0.00    -0.397 N 
HETATM   14  H   UNL     1      62.833   9.805   1.225  1.00  0.00     0.156 HD
HETATM   15  H   UNL     1      62.159   9.198  -0.219  1.00  0.00     0.156 HD
ENDBRANCH   2  13
TORSDOF 2
ENDMDL
MODEL 5
REMARK VINA RESULT:      -4.3      2.627      3.161
REMARK  2 active torsions:
REMARK  status: ('A' for Active; 'I' for Inactive)
REMARK    1  A    between atoms: N_1  and  C_2 
REMARK    2  A    between atoms: C_3  and  N_5 
ROOT
HETATM    1  C   UNL     1      62.485   8.751   3.045  1.00  0.00     0.056 A 
HETATM    2  C   UNL     1      62.106   9.423   1.851  1.00  0.00     0.052 A 
HETATM    3  C   UNL     1      62.475   9.511   4.230  1.00  0.00     0.031 A 
HETATM    4  C   UNL     1      61.880  10.809   1.853  1.00  0.00     0.031 A 
HETATM    5  C   UNL     1      62.155  10.873   4.239  1.00  0.00     0.002 A 
HETATM    6  C   UNL     1      61.873  11.526   3.044  1.00  0.00     0.002 A 
ENDROOT
BRANCH   1   7
HETATM    7  N   UNL     1      62.745   7.389   3.071  1.00  0.00    -0.375 N 
HETATM    8  C   UNL     1      61.727   6.396   3.440  1.00  0.00     0.149 C 
HETATM    9  C   UNL     1      61.896   5.185   2.504  1.00  0.00     0.187 C 
HETATM   10  O   UNL     1      63.226   4.635   2.567  1.00  0.00    -0.388 OA
HETATM   11  C   UNL     1      64.212   5.635   2.240  1.00  0.00     0.187 C 
HETATM   12  C   UNL     1      64.112   6.848   3.186  1.00  0.00     0.149 C 
ENDBRANCH   1   7
BRANCH   2  13
HETATM   13  N   UNL     1      62.055   8.746   0.606  1.00  0.00    -0.397 N 
HETATM   14  H   UNL     1      61.244   8.799   0.050  1.00  0.00     0.156 HD
HETATM   15  H   UNL     1      62.831   8.224   0.297  1.00  0.00     0.156 HD
ENDBRANCH   2  13
TORSDOF 2
ENDMDL
MODEL 6
REMARK VINA RESULT:      -4.1      2.993      6.077
REMARK  2 active torsions:
REMARK  status: ('A' for Active; 'I' for Inactive)
REMARK    1  A    between atoms: N_1  and  C_2 
REMARK    2  A    between atoms: C_3  and  N_5 
ROOT
HETATM    1  C   UNL     1      66.017   5.999   7.054  1.00  0.00     0.056 A 
HETATM    2  C   UNL     1      66.929   6.771   7.825  1.00  0.00     0.052 A 
HETATM    3  C   UNL     1      66.063   4.604   7.229  1.00  0.00     0.031 A 
HETATM    4  C   UNL     1      67.915   6.144   8.603  1.00  0.00     0.031 A 
HETATM    5  C   UNL     1      66.988   3.990   8.081  1.00  0.00     0.002 A 
HETATM    6  C   UNL     1      67.926   4.762   8.757  1.00  0.00     0.002 A 
ENDROOT
BRANCH   1   7
HETATM    7  N   UNL     1      65.051   6.589   6.251  1.00  0.00    -0.375 N 
HETATM    8  C   UNL     1      63.622   6.274   6.372  1.00  0.00     0.149 C 
HETATM    9  C   UNL     1      62.839   7.588   6.201  1.00  0.00     0.187 C 
HETATM   10  O   UNL     1      63.138   8.235   4.948  1.00  0.00    -0.388 OA
HETATM   11  C   UNL     1      64.551   8.499   4.831  1.00  0.00     0.187 C 
HETATM   12  C   UNL     1      65.374   7.201   4.950  1.00  0.00     0.149 C 
ENDBRANCH   1   7
BRANCH   2  13
HETATM   13  N   UNL     1      66.950   8.187   7.746  1.00  0.00    -0.397 N 
HETATM   14  H   UNL     1      66.115   8.699   7.858  1.00  0.00     0.156 HD
HETATM   15  H   UNL     1      67.797   8.659   7.580  1.00  0.00     0.156 HD
ENDBRANCH   2  13
TORSDOF 2
ENDMDL
MODEL 7
REMARK VINA RESULT:      -4.0      2.341      2.678
REMARK  2 active torsions:
REMARK  status: ('A' for Active; 'I' for Inactive)
REMARK    1  A    between atoms: N_1  and  C_2 
REMARK    2  A    between atoms: C_3  and  N_5 
ROOT
HETATM    1  C   UNL     1      62.642   8.543   3.772  1.00  0.00     0.056 A 
HETATM    2  C   UNL     1      63.083   9.137   4.987  1.00  0.00     0.052 A 
HETATM    3  C   UNL     1      62.069   9.404   2.818  1.00  0.00     0.031 A 
HETATM    4  C   UNL     1      62.815  10.488   5.259  1.00  0.00     0.031 A 
HETATM    5  C   UNL     1      61.891  10.771   3.059  1.00  0.00     0.002 A 
HETATM    6  C   UNL     1      62.251  11.310   4.289  1.00  0.00     0.002 A 
ENDROOT
BRANCH   1   7
HETATM    7  N   UNL     1      62.863   7.204   3.487  1.00  0.00    -0.375 N 
HETATM    8  C   UNL     1      61.987   6.133   3.981  1.00  0.00     0.149 C 
HETATM    9  C   UNL     1      61.827   5.102   2.848  1.00  0.00     0.187 C 
HETATM   10  O   UNL     1      63.096   4.589   2.402  1.00  0.00    -0.388 OA
HETATM   11  C   UNL     1      63.957   5.658   1.959  1.00  0.00     0.187 C 
HETATM   12  C   UNL     1      64.185   6.692   3.079  1.00  0.00     0.149 C 
ENDBRANCH   1   7
BRANCH   2  13
HETATM   13  N   UNL     1      63.699   8.366   6.005  1.00  0.00    -0.397 N 
HETATM   14  H   UNL     1      64.570   8.643   6.373  1.00  0.00     0.156 HD
HETATM   15  H   UNL     1      63.257   7.555   6.345  1.00  0.00     0.156 HD
ENDBRANCH   2  13
TORSDOF 2
ENDMDL
MODEL 8
REMARK VINA RESULT:      -4.0      2.888      4.151
REMARK  2 active torsions:
REMARK  status: ('A' for Active; 'I' for Inactive)
REMARK    1  A    between atoms: N_1  and  C_2 
REMARK    2  A    between atoms: C_3  and  N_5 
ROOT
HETATM    1  C   UNL     1      65.058   7.088   5.978  1.00  0.00     0.056 A 
HETATM    2  C   UNL     1      63.776   6.473   5.973  1.00  0.00     0.052 A 
HETATM    3  C   UNL     1      65.138   8.388   5.445  1.00  0.00     0.031 A 
HETATM    4  C   UNL     1      62.691   7.089   5.329  1.00  0.00     0.031 A 
HETATM    5  C   UNL     1      64.029   9.035   4.889  1.00  0.00     0.002 A 
HETATM    6  C   UNL     1      62.807   8.377   4.818  1.00  0.00     0.002 A 
ENDROOT
BRANCH   1   7
HETATM    7  N   UNL     1      66.157   6.491   6.578  1.00  0.00    -0.375 N 
HETATM    8  C   UNL     1      66.540   6.759   7.971  1.00  0.00     0.149 C 
HETATM    9  C   UNL     1      66.995   5.425   8.593  1.00  0.00     0.187 C 
HETATM   10  O   UNL     1      68.072   4.823   7.849  1.00  0.00    -0.388 OA
HETATM   11  C   UNL     1      67.690   4.606   6.476  1.00  0.00     0.187 C 
HETATM   12  C   UNL     1      67.272   5.925   5.797  1.00  0.00     0.149 C 
ENDBRANCH   1   7
BRANCH   2  13
HETATM   13  N   UNL     1      63.576   5.175   6.511  1.00  0.00    -0.397 N 
HETATM   14  H   UNL     1      62.677   4.896   6.799  1.00  0.00     0.156 HD
HETATM   15  H   UNL     1      64.336   4.555   6.595  1.00  0.00     0.156 HD
ENDBRANCH   2  13
TORSDOF 2
ENDMDL
MODEL 9
REMARK VINA RESULT:      -3.9      2.596      4.587
REMARK  2 active torsions:
REMARK  status: ('A' for Active; 'I' for Inactive)
REMARK    1  A    between atoms: N_1  and  C_2 
REMARK    2  A    between atoms: C_3  and  N_5 
ROOT
HETATM    1  C   UNL     1      63.643   7.878   3.748  1.00  0.00     0.056 A 
HETATM    2  C   UNL     1      64.103   8.622   4.869  1.00  0.00     0.052 A 
HETATM    3  C   UNL     1      64.446   6.801   3.330  1.00  0.00     0.031 A 
HETATM    4  C   UNL     1      65.368   8.370   5.422  1.00  0.00     0.031 A 
HETATM    5  C   UNL     1      65.664   6.496   3.948  1.00  0.00     0.002 A 
HETATM    6  C   UNL     1      66.132   7.293   4.986  1.00  0.00     0.002 A 
ENDROOT
BRANCH   1   7
HETATM    7  N   UNL     1      62.411   8.123   3.159  1.00  0.00    -0.375 N 
HETATM    8  C   UNL     1      62.192   9.222   2.209  1.00  0.00     0.149 C 
HETATM    9  C   UNL     1      61.265   8.698   1.096  1.00  0.00     0.187 C 
HETATM   10  O   UNL     1      60.023   8.192   1.622  1.00  0.00    -0.388 OA
HETATM   11  C   UNL     1      60.261   7.142   2.582  1.00  0.00     0.187 C 
HETATM   12  C   UNL     1      61.147   7.637   3.742  1.00  0.00     0.149 C 
ENDBRANCH   1   7
BRANCH   2  13
HETATM   13  N   UNL     1      63.357   9.711   5.390  1.00  0.00    -0.397 N 
HETATM   14  H   UNL     1      62.798   9.585   6.191  1.00  0.00     0.156 HD
HETATM   15  H   UNL     1      63.400  10.591   4.952  1.00  0.00     0.156 HD
ENDBRANCH   2  13
TORSDOF 2
ENDMDL
