MODEL 1
REMARK VINA RESULT:      -5.0      0.000      0.000
REMARK  0 active torsions:
REMARK  status: ('A' for Active; 'I' for Inactive)
ROOT
HETATM    1  N   UNL     1      62.111  11.909   4.236  1.00  0.00    -0.071 N 
HETATM    2  C   UNL     1      62.209   9.652   2.175  1.00  0.00    -0.026 A 
HETATM    3  C   UNL     1      62.932   8.628   3.252  1.00  0.00    -0.049 A 
HETATM    4  C   UNL     1      61.773  11.400   2.620  1.00  0.00     0.271 A 
HETATM    5  C   UNL     1      62.868  10.956   5.460  1.00  0.00     0.237 A 
HETATM    6  C   UNL     1      63.361   9.164   4.969  1.00  0.00     0.066 A 
HETATM    7  C   UNL     1      61.926   9.143   0.916  1.00  0.00     0.009 A 
HETATM    8  C   UNL     1      63.204   7.340   2.817  1.00  0.00     0.007 A 
HETATM    9  C   UNL     1      62.236   7.815   0.605  1.00  0.00     0.001 A 
HETATM   10  C   UNL     1      62.854   6.945   1.521  1.00  0.00     0.001 A 
HETATM   11  H   UNL     1      61.208  12.178   4.627  1.00  0.00     0.277 HD
HETATM   12  H   UNL     1      62.855  12.582   4.056  1.00  0.00     0.277 HD
ENDROOT
TORSDOF 0
ENDMDL
MODEL 2
REMARK VINA RESULT:      -4.9      1.176      2.514
REMARK  0 active torsions:
REMARK  status: ('A' for Active; 'I' for Inactive)
ROOT
HETATM    1  N   UNL     1      63.646   9.600   5.716  1.00  0.00    -0.071 N 
HETATM    2  C   UNL     1      63.069   8.138   3.093  1.00  0.00    -0.026 A 
HETATM    3  C   UNL     1      62.209   9.421   2.505  1.00  0.00    -0.049 A 
HETATM    4  C   UNL     1      63.831   8.156   4.785  1.00  0.00     0.271 A 
HETATM    5  C   UNL     1      62.769  11.008   5.238  1.00  0.00     0.237 A 
HETATM    6  C   UNL     1      61.942  10.955   3.503  1.00  0.00     0.066 A 
HETATM    7  C   UNL     1      63.213   7.040   2.256  1.00  0.00     0.009 A 
HETATM    8  C   UNL     1      61.692   9.304   1.224  1.00  0.00     0.007 A 
HETATM    9  C   UNL     1      62.655   7.054   0.973  1.00  0.00     0.001 A 
HETATM   10  C   UNL     1      61.921   8.144   0.475  1.00  0.00     0.001 A 
HETATM   11  H   UNL     1      64.595   9.924   5.898  1.00  0.00     0.277 HD
HETATM   12  H   UNL     1      63.031   9.255   6.453  1.00  0.00     0.277 HD
ENDROOT
TORSDOF 0
ENDMDL
MODEL 3
REMARK VINA RESULT:      -4.8      2.032      4.634
REMARK  0 active torsions:
REMARK  status: ('A' for Active; 'I' for Inactive)
ROOT
HETATM    1  N   UNL     1      63.276   6.478   1.615  1.00  0.00    -0.071 N 
HETATM    2  C   UNL     1      63.134   8.728   3.681  1.00  0.00    -0.026 A 
HETATM    3  C   UNL     1      62.283   9.697   2.647  1.00  0.00    -0.049 A 
HETATM    4  C   UNL     1      63.710   7.033   3.193  1.00  0.00     0.271 A 
HETATM    5  C   UNL     1      62.403   7.379   0.429  1.00  0.00     0.237 A 
HETATM    6  C   UNL     1      61.859   9.154   0.931  1.00  0.00     0.066 A 
HETATM    7  C   UNL     1      63.392   9.234   4.948  1.00  0.00     0.009 A 
HETATM    8  C   UNL     1      61.894  10.940   3.119  1.00  0.00     0.007 A 
HETATM    9  C   UNL     1      62.927  10.503   5.309  1.00  0.00     0.001 A 
HETATM   10  C   UNL     1      62.206  11.327   4.427  1.00  0.00     0.001 A 
HETATM   11  H   UNL     1      62.725   5.635   1.770  1.00  0.00     0.277 HD
HETATM   12  H   UNL     1      64.197   6.462   1.177  1.00  0.00     0.277 HD
ENDROOT
TORSDOF 0
ENDMDL
MODEL 4
REMARK VINA RESULT:      -4.6      2.217      3.927
REMARK  0 active torsions:
REMARK  status: ('A' for Active; 'I' for Inactive)
ROOT
HETATM    1  N   UNL     1      63.011   6.590   0.683  1.00  0.00    -0.071 N 
HETATM    2  C   UNL     1      62.283   9.273   1.957  1.00  0.00    -0.026 A 
HETATM    3  C   UNL     1      62.848   8.787   3.432  1.00  0.00    -0.049 A 
HETATM    4  C   UNL     1      62.316   8.158   0.474  1.00  0.00     0.271 A 
HETATM    5  C   UNL     1      63.629   5.945   2.161  1.00  0.00     0.237 A 
HETATM    6  C   UNL     1      63.541   7.093   3.700  1.00  0.00     0.066 A 
HETATM    7  C   UNL     1      61.791  10.567   1.867  1.00  0.00     0.009 A 
HETATM    8  C   UNL     1      62.784   9.704   4.469  1.00  0.00     0.007 A 
HETATM    9  C   UNL     1      61.798  11.404   2.988  1.00  0.00     0.001 A 
HETATM   10  C   UNL     1      62.276  10.989   4.244  1.00  0.00     0.001 A 
HETATM   11  H   UNL     1      63.792   6.554   0.028  1.00  0.00     0.277 HD
HETATM   12  H   UNL     1      62.177   6.014   0.578  1.00  0.00     0.277 HD
ENDROOT
TORSDOF 0
ENDMDL
MODEL 5
REMARK VINA RESULT:      -4.5      0.911      2.955
REMARK  0 active torsions:
REMARK  status: ('A' for Active; 'I' for Inactive)
ROOT
HETATM    1  N   UNL     1      62.184  11.904   4.240  1.00  0.00    -0.071 N 
HETATM    2  C   UNL     1      63.240   9.048   4.519  1.00  0.00    -0.026 A 
HETATM    3  C   UNL     1      62.836   8.688   2.957  1.00  0.00    -0.049 A 
HETATM    4  C   UNL     1      62.902  10.712   5.265  1.00  0.00     0.271 A 
HETATM    5  C   UNL     1      61.701  11.669   2.600  1.00  0.00     0.237 A 
HETATM    6  C   UNL     1      62.010   9.924   1.856  1.00  0.00     0.066 A 
HETATM    7  C   UNL     1      63.862   8.048   5.253  1.00  0.00     0.009 A 
HETATM    8  C   UNL     1      63.144   7.417   2.499  1.00  0.00     0.007 A 
HETATM    9  C   UNL     1      64.135   6.807   4.667  1.00  0.00     0.001 A 
HETATM   10  C   UNL     1      63.788   6.501   3.339  1.00  0.00     0.001 A 
HETATM   11  H   UNL     1      62.852  12.673   4.215  1.00  0.00     0.277 HD
HETATM   12  H   UNL     1      61.268  11.984   4.681  1.00  0.00     0.277 HD
ENDROOT
TORSDOF 0
ENDMDL
MODEL 6
REMARK VINA RESULT:      -4.2      2.400      4.023
REMARK  0 active torsions:
REMARK  status: ('A' for Active; 'I' for Inactive)
ROOT
HETATM    1  N   UNL     1      64.466   6.000   3.116  1.00  0.00    -0.071 N 
HETATM    2  C   UNL     1      62.953   8.654   3.231  1.00  0.00    -0.026 A 
HETATM    3  C   UNL     1      63.602   9.022   4.706  1.00  0.00    -0.049 A 
HETATM    4  C   UNL     1      63.345   7.069   2.350  1.00  0.00     0.271 A 
HETATM    5  C   UNL     1      65.212   6.246   4.653  1.00  0.00     0.237 A 
HETATM    6  C   UNL     1      64.755   7.869   5.577  1.00  0.00     0.066 A 
HETATM    7  C   UNL     1      62.104   9.595   2.665  1.00  0.00     0.009 A 
HETATM    8  C   UNL     1      63.248  10.238   5.268  1.00  0.00     0.007 A 
HETATM    9  C   UNL     1      61.840  10.798   3.330  1.00  0.00     0.001 A 
HETATM   10  C   UNL     1      62.390  11.108   4.586  1.00  0.00     0.001 A 
HETATM   11  H   UNL     1      65.237   5.903   2.456  1.00  0.00     0.277 HD
HETATM   12  H   UNL     1      63.841   5.229   3.348  1.00  0.00     0.277 HD
ENDROOT
TORSDOF 0
ENDMDL
MODEL 7
REMARK VINA RESULT:      -4.2      1.843      2.875
REMARK  0 active torsions:
REMARK  status: ('A' for Active; 'I' for Inactive)
ROOT
HETATM    1  N   UNL     1      64.559   8.414   5.863  1.00  0.00    -0.071 N 
HETATM    2  C   UNL     1      62.853   9.055   3.407  1.00  0.00    -0.026 A 
HETATM    3  C   UNL     1      63.240   7.614   2.696  1.00  0.00    -0.049 A 
HETATM    4  C   UNL     1      63.532   9.550   5.062  1.00  0.00     0.271 A 
HETATM    5  C   UNL     1      65.055   6.882   5.239  1.00  0.00     0.237 A 
HETATM    6  C   UNL     1      64.385   6.406   3.502  1.00  0.00     0.066 A 
HETATM    7  C   UNL     1      61.979   9.883   2.717  1.00  0.00     0.009 A 
HETATM    8  C   UNL     1      62.667   7.342   1.463  1.00  0.00     0.007 A 
HETATM    9  C   UNL     1      61.454   9.483   1.483  1.00  0.00     0.001 A 
HETATM   10  C   UNL     1      61.786   8.259   0.877  1.00  0.00     0.001 A 
HETATM   11  H   UNL     1      64.091   8.205   6.744  1.00  0.00     0.277 HD
HETATM   12  H   UNL     1      65.445   8.915   5.815  1.00  0.00     0.277 HD
ENDROOT
TORSDOF 0
ENDMDL
MODEL 8
REMARK VINA RESULT:      -4.1      2.214      3.401
REMARK  0 active torsions:
REMARK  status: ('A' for Active; 'I' for Inactive)
ROOT
HETATM    1  N   UNL     1      64.475   6.153   4.579  1.00  0.00    -0.071 N 
HETATM    2  C   UNL     1      62.985   7.858   2.524  1.00  0.00    -0.026 A 
HETATM    3  C   UNL     1      62.782   9.087   3.610  1.00  0.00    -0.049 A 
HETATM    4  C   UNL     1      63.844   6.277   2.975  1.00  0.00     0.271 A 
HETATM    5  C   UNL     1      64.330   7.346   5.818  1.00  0.00     0.237 A 
HETATM    6  C   UNL     1      63.392   8.958   5.351  1.00  0.00     0.066 A 
HETATM    7  C   UNL     1      62.494   8.064   1.242  1.00  0.00     0.009 A 
HETATM    8  C   UNL     1      62.135  10.228   3.163  1.00  0.00     0.007 A 
HETATM    9  C   UNL     1      61.873   9.273   0.911  1.00  0.00     0.001 A 
HETATM   10  C   UNL     1      61.698  10.317   1.837  1.00  0.00     0.001 A 
HETATM   11  H   UNL     1      65.478   6.009   4.462  1.00  0.00     0.277 HD
HETATM   12  H   UNL     1      63.856   5.437   4.955  1.00  0.00     0.277 HD
ENDROOT
TORSDOF 0
ENDMDL
MODEL 9
REMARK VINA RESULT:      -3.8      5.754      6.809
REMARK  0 active torsions:
REMARK  status: ('A' for Active; 'I' for Inactive)
ROOT
HETATM    1  N   UNL     1      67.250   7.515   8.317  1.00  0.00    -0.071 N 
HETATM    2  C   UNL     1      67.061   6.354   5.495  1.00  0.00    -0.026 A 
HETATM    3  C   UNL     1      67.581   4.872   6.011  1.00  0.00    -0.049 A 
HETATM    4  C   UNL     1      66.888   7.795   6.650  1.00  0.00     0.271 A 
HETATM    5  C   UNL     1      67.811   6.031   8.996  1.00  0.00     0.237 A 
HETATM    6  C   UNL     1      68.034   4.561   7.777  1.00  0.00     0.066 A 
HETATM    7  C   UNL     1      66.741   6.474   4.150  1.00  0.00     0.009 A 
HETATM    8  C   UNL     1      67.663   3.863   5.065  1.00  0.00     0.007 A 
HETATM    9  C   UNL     1      66.850   5.370   3.297  1.00  0.00     0.001 A 
HETATM   10  C   UNL     1      67.296   4.111   3.737  1.00  0.00     0.001 A 
HETATM   11  H   UNL     1      66.389   7.730   8.818  1.00  0.00     0.277 HD
HETATM   12  H   UNL     1      68.095   8.078   8.409  1.00  0.00     0.277 HD
ENDROOT
TORSDOF 0
ENDMDL
