MODEL 1
REMARK VINA RESULT:      -4.6      0.000      0.000
REMARK  4 active torsions:
REMARK  status: ('A' for Active; 'I' for Inactive)
REMARK    1  A    between atoms: C_1  and  O_8 
REMARK    2  A    between atoms: C_3  and  C_10 
REMARK    3  A    between atoms: C_4  and  O_9 
REMARK    4  A    between atoms: C_10  and  O_11 
ROOT
HETATM    1  C   UNL     1      62.979   8.487   3.090  1.00  0.00     0.123 A 
HETATM    2  C   UNL     1      63.212   9.066   4.367  1.00  0.00     0.078 A 
HETATM    3  C   UNL     1      62.722  10.362   4.681  1.00  0.00    -0.010 A 
HETATM    4  C   UNL     1      62.249   9.244   2.140  1.00  0.00     0.103 A 
HETATM    5  C   UNL     1      62.019  11.081   3.709  1.00  0.00     0.014 A 
HETATM    6  C   UNL     1      61.783  10.525   2.463  1.00  0.00     0.040 A 
HETATM    7 CL   UNL     1      64.113   8.268   5.624  1.00  0.00    -0.081 Cl
ENDROOT
BRANCH   3   8
HETATM    8  C   UNL     1      62.959  11.050   6.005  1.00  0.00     0.204 C 
BRANCH   8   9
HETATM    9  O   UNL     1      64.316  11.452   6.114  1.00  0.00    -0.396 OA
HETATM   10  H   UNL     1      64.893  10.700   5.907  1.00  0.00     0.209 HD
ENDBRANCH   8   9
ENDBRANCH   3   8
BRANCH   1  11
HETATM   11  O   UNL     1      63.388   7.266   2.632  1.00  0.00    -0.351 OA
HETATM   12  C   UNL     1      62.697   6.056   2.862  1.00  0.00     0.210 C 
ENDBRANCH   1  11
BRANCH   4  13
HETATM   13  O   UNL     1      61.897   8.916   0.853  1.00  0.00    -0.353 OA
HETATM   14  C   UNL     1      60.653   8.290   0.584  1.00  0.00     0.210 C 
ENDBRANCH   4  13
TORSDOF 4
ENDMDL
MODEL 2
REMARK VINA RESULT:      -4.5      1.540      2.785
REMARK  4 active torsions:
REMARK  status: ('A' for Active; 'I' for Inactive)
REMARK    1  A    between atoms: C_1  and  O_8 
REMARK    2  A    between atoms: C_3  and  C_10 
REMARK    3  A    between atoms: C_4  and  O_9 
REMARK    4  A    between atoms: C_10  and  O_11 
ROOT
HETATM    1  C   UNL     1      62.545   8.871   2.557  1.00  0.00     0.123 A 
HETATM    2  C   UNL     1      62.484   9.998   3.421  1.00  0.00     0.078 A 
HETATM    3  C   UNL     1      63.026   9.941   4.732  1.00  0.00    -0.010 A 
HETATM    4  C   UNL     1      63.157   7.691   3.045  1.00  0.00     0.103 A 
HETATM    5  C   UNL     1      63.609   8.751   5.181  1.00  0.00     0.014 A 
HETATM    6  C   UNL     1      63.677   7.649   4.345  1.00  0.00     0.040 A 
HETATM    7 CL   UNL     1      61.740  11.505   2.970  1.00  0.00    -0.081 Cl
ENDROOT
BRANCH   3   8
HETATM    8  C   UNL     1      62.969  11.088   5.714  1.00  0.00     0.204 C 
BRANCH   8   9
HETATM    9  O   UNL     1      64.266  11.362   6.225  1.00  0.00    -0.396 OA
HETATM   10  H   UNL     1      64.513  12.274   6.006  1.00  0.00     0.209 HD
ENDBRANCH   8   9
ENDBRANCH   3   8
BRANCH   1  11
HETATM   11  O   UNL     1      62.064   8.762   1.281  1.00  0.00    -0.351 OA
HETATM   12  C   UNL     1      60.721   8.471   0.958  1.00  0.00     0.210 C 
ENDBRANCH   1  11
BRANCH   4  13
HETATM   13  O   UNL     1      63.338   6.482   2.417  1.00  0.00    -0.353 OA
HETATM   14  C   UNL     1      62.397   5.435   2.586  1.00  0.00     0.210 C 
ENDBRANCH   4  13
TORSDOF 4
ENDMDL
MODEL 3
REMARK VINA RESULT:      -4.4      1.963      3.319
REMARK  4 active torsions:
REMARK  status: ('A' for Active; 'I' for Inactive)
REMARK    1  A    between atoms: C_1  and  O_8 
REMARK    2  A    between atoms: C_3  and  C_10 
REMARK    3  A    between atoms: C_4  and  O_9 
REMARK    4  A    between atoms: C_10  and  O_11 
ROOT
HETATM    1  C   UNL     1      63.594   8.511   4.752  1.00  0.00     0.123 A 
HETATM    2  C   UNL     1      63.012   9.797   4.577  1.00  0.00     0.078 A 
HETATM    3  C   UNL     1      62.329  10.130   3.377  1.00  0.00    -0.010 A 
HETATM    4  C   UNL     1      63.476   7.578   3.693  1.00  0.00     0.103 A 
HETATM    5  C   UNL     1      62.249   9.184   2.350  1.00  0.00     0.014 A 
HETATM    6  C   UNL     1      62.808   7.928   2.512  1.00  0.00     0.040 A 
HETATM    7 CL   UNL     1      63.099  11.053   5.777  1.00  0.00    -0.081 Cl
ENDROOT
BRANCH   3   8
HETATM    8  C   UNL     1      61.715  11.485   3.110  1.00  0.00     0.204 C 
BRANCH   8   9
HETATM    9  O   UNL     1      62.116  11.964   1.835  1.00  0.00    -0.396 OA
HETATM   10  H   UNL     1      61.537  12.693   1.567  1.00  0.00     0.209 HD
ENDBRANCH   8   9
ENDBRANCH   3   8
BRANCH   1  11
HETATM   11  O   UNL     1      64.287   8.042   5.833  1.00  0.00    -0.351 OA
HETATM   12  C   UNL     1      65.694   8.074   5.952  1.00  0.00     0.210 C 
ENDBRANCH   1  11
BRANCH   4  13
HETATM   13  O   UNL     1      63.945   6.289   3.614  1.00  0.00    -0.353 OA
HETATM   14  C   UNL     1      64.153   5.674   2.353  1.00  0.00     0.210 C 
ENDBRANCH   4  13
TORSDOF 4
ENDMDL
MODEL 4
REMARK VINA RESULT:      -4.1      2.055      2.978
REMARK  4 active torsions:
REMARK  status: ('A' for Active; 'I' for Inactive)
REMARK    1  A    between atoms: C_1  and  O_8 
REMARK    2  A    between atoms: C_3  and  C_10 
REMARK    3  A    between atoms: C_4  and  O_9 
REMARK    4  A    between atoms: C_10  and  O_11 
ROOT
HETATM    1  C   UNL     1      62.501   8.769   2.978  1.00  0.00     0.123 A 
HETATM    2  C   UNL     1      63.462   7.898   3.560  1.00  0.00     0.078 A 
HETATM    3  C   UNL     1      64.150   8.262   4.749  1.00  0.00    -0.010 A 
HETATM    4  C   UNL     1      62.255  10.009   3.616  1.00  0.00     0.103 A 
HETATM    5  C   UNL     1      63.888   9.503   5.338  1.00  0.00     0.014 A 
HETATM    6  C   UNL     1      62.950  10.357   4.782  1.00  0.00     0.040 A 
HETATM    7 CL   UNL     1      63.889   6.356   2.876  1.00  0.00    -0.081 Cl
ENDROOT
BRANCH   3   8
HETATM    8  C   UNL     1      65.205   7.401   5.404  1.00  0.00     0.204 C 
BRANCH   8   9
HETATM    9  O   UNL     1      65.688   8.028   6.582  1.00  0.00    -0.396 OA
HETATM   10  H   UNL     1      65.615   7.413   7.329  1.00  0.00     0.209 HD
ENDBRANCH   8   9
ENDBRANCH   3   8
BRANCH   1  11
HETATM   11  O   UNL     1      61.768   8.573   1.841  1.00  0.00    -0.351 OA
HETATM   12  C   UNL     1      62.291   8.652   0.532  1.00  0.00     0.210 C 
ENDBRANCH   1  11
BRANCH   4  13
HETATM   13  O   UNL     1      61.388  11.014   3.258  1.00  0.00    -0.353 OA
HETATM   14  C   UNL     1      61.710  11.898   2.198  1.00  0.00     0.210 C 
ENDBRANCH   4  13
TORSDOF 4
ENDMDL
MODEL 5
REMARK VINA RESULT:      -4.1      2.245      3.506
REMARK  4 active torsions:
REMARK  status: ('A' for Active; 'I' for Inactive)
REMARK    1  A    between atoms: C_1  and  O_8 
REMARK    2  A    between atoms: C_3  and  C_10 
REMARK    3  A    between atoms: C_4  and  O_9 
REMARK    4  A    between atoms: C_10  and  O_11 
ROOT
HETATM    1  C   UNL     1      63.207   7.578   3.022  1.00  0.00     0.123 A 
HETATM    2  C   UNL     1      62.654   8.830   2.639  1.00  0.00     0.078 A 
HETATM    3  C   UNL     1      62.478   9.871   3.591  1.00  0.00    -0.010 A 
HETATM    4  C   UNL     1      63.570   7.398   4.379  1.00  0.00     0.103 A 
HETATM    5  C   UNL     1      62.836   9.646   4.924  1.00  0.00     0.014 A 
HETATM    6  C   UNL     1      63.379   8.431   5.307  1.00  0.00     0.040 A 
HETATM    7 CL   UNL     1      62.138   9.188   1.017  1.00  0.00    -0.081 Cl
ENDROOT
BRANCH   3   8
HETATM    8  C   UNL     1      61.869  11.214   3.262  1.00  0.00     0.204 C 
BRANCH   8   9
HETATM    9  O   UNL     1      62.089  12.126   4.327  1.00  0.00    -0.396 OA
HETATM   10  H   UNL     1      62.611  11.694   5.020  1.00  0.00     0.209 HD
ENDBRANCH   8   9
ENDBRANCH   3   8
BRANCH   1  11
HETATM   11  O   UNL     1      63.430   6.482   2.236  1.00  0.00    -0.351 OA
HETATM   12  C   UNL     1      62.423   5.584   1.817  1.00  0.00     0.210 C 
ENDBRANCH   1  11
BRANCH   4  13
HETATM   13  O   UNL     1      64.115   6.296   4.994  1.00  0.00    -0.353 OA
HETATM   14  C   UNL     1      65.482   6.286   5.373  1.00  0.00     0.210 C 
ENDBRANCH   4  13
TORSDOF 4
ENDMDL
MODEL 6
REMARK VINA RESULT:      -4.1      2.601      4.304
REMARK  4 active torsions:
REMARK  status: ('A' for Active; 'I' for Inactive)
REMARK    1  A    between atoms: C_1  and  O_8 
REMARK    2  A    between atoms: C_3  and  C_10 
REMARK    3  A    between atoms: C_4  and  O_9 
REMARK    4  A    between atoms: C_10  and  O_11 
ROOT
HETATM    1  C   UNL     1      64.510   7.936   5.246  1.00  0.00     0.123 A 
HETATM    2  C   UNL     1      63.697   9.007   4.783  1.00  0.00     0.078 A 
HETATM    3  C   UNL     1      62.994   8.909   3.553  1.00  0.00    -0.010 A 
HETATM    4  C   UNL     1      64.601   6.774   4.441  1.00  0.00     0.103 A 
HETATM    5  C   UNL     1      63.124   7.749   2.781  1.00  0.00     0.014 A 
HETATM    6  C   UNL     1      63.910   6.699   3.225  1.00  0.00     0.040 A 
HETATM    7 CL   UNL     1      63.509  10.504   5.649  1.00  0.00    -0.081 Cl
ENDROOT
BRANCH   3   8
HETATM    8  C   UNL     1      62.138  10.017   2.986  1.00  0.00     0.204 C 
BRANCH   8   9
HETATM    9  O   UNL     1      60.890  10.069   3.662  1.00  0.00    -0.396 OA
HETATM   10  H   UNL     1      60.619   9.171   3.908  1.00  0.00     0.209 HD
ENDBRANCH   8   9
ENDBRANCH   3   8
BRANCH   1  11
HETATM   11  O   UNL     1      65.252   7.879   6.393  1.00  0.00    -0.351 OA
HETATM   12  C   UNL     1      66.603   8.279   6.488  1.00  0.00     0.210 C 
ENDBRANCH   1  11
BRANCH   4  13
HETATM   13  O   UNL     1      65.312   5.619   4.661  1.00  0.00    -0.353 OA
HETATM   14  C   UNL     1      66.588   5.435   4.070  1.00  0.00     0.210 C 
ENDBRANCH   4  13
TORSDOF 4
ENDMDL
MODEL 7
REMARK VINA RESULT:      -4.1      2.280      5.191
REMARK  4 active torsions:
REMARK  status: ('A' for Active; 'I' for Inactive)
REMARK    1  A    between atoms: C_1  and  O_8 
REMARK    2  A    between atoms: C_3  and  C_10 
REMARK    3  A    between atoms: C_4  and  O_9 
REMARK    4  A    between atoms: C_10  and  O_11 
ROOT
HETATM    1  C   UNL     1      63.426   8.861   5.007  1.00  0.00     0.123 A 
HETATM    2  C   UNL     1      62.704   8.185   3.985  1.00  0.00     0.078 A 
HETATM    3  C   UNL     1      63.313   7.151   3.225  1.00  0.00    -0.010 A 
HETATM    4  C   UNL     1      64.769   8.475   5.239  1.00  0.00     0.103 A 
HETATM    5  C   UNL     1      64.646   6.811   3.476  1.00  0.00     0.014 A 
HETATM    6  C   UNL     1      65.357   7.460   4.472  1.00  0.00     0.040 A 
HETATM    7 CL   UNL     1      61.058   8.568   3.569  1.00  0.00    -0.081 Cl
ENDROOT
BRANCH   3   8
HETATM    8  C   UNL     1      62.617   6.413   2.105  1.00  0.00     0.204 C 
BRANCH   8   9
HETATM    9  O   UNL     1      62.700   7.159   0.899  1.00  0.00    -0.396 OA
HETATM   10  H   UNL     1      62.652   8.106   1.102  1.00  0.00     0.209 HD
ENDBRANCH   8   9
ENDBRANCH   3   8
BRANCH   1  11
HETATM   11  O   UNL     1      62.992   9.875   5.813  1.00  0.00    -0.351 OA
HETATM   12  C   UNL     1      62.781  11.203   5.380  1.00  0.00     0.210 C 
ENDBRANCH   1  11
BRANCH   4  13
HETATM   13  O   UNL     1      65.669   8.966   6.153  1.00  0.00    -0.353 OA
HETATM   14  C   UNL     1      66.752   8.166   6.599  1.00  0.00     0.210 C 
ENDBRANCH   4  13
TORSDOF 4
ENDMDL
MODEL 8
REMARK VINA RESULT:      -4.1      2.449      4.859
REMARK  4 active torsions:
REMARK  status: ('A' for Active; 'I' for Inactive)
REMARK    1  A    between atoms: C_1  and  O_8 
REMARK    2  A    between atoms: C_3  and  C_10 
REMARK    3  A    between atoms: C_4  and  O_9 
REMARK    4  A    between atoms: C_10  and  O_11 
ROOT
HETATM    1  C   UNL     1      65.396   8.159   4.959  1.00  0.00     0.123 A 
HETATM    2  C   UNL     1      65.373   7.035   4.089  1.00  0.00     0.078 A 
HETATM    3  C   UNL     1      64.256   6.788   3.246  1.00  0.00    -0.010 A 
HETATM    4  C   UNL     1      64.271   9.019   4.964  1.00  0.00     0.103 A 
HETATM    5  C   UNL     1      63.158   7.655   3.293  1.00  0.00     0.014 A 
HETATM    6  C   UNL     1      63.173   8.755   4.134  1.00  0.00     0.040 A 
HETATM    7 CL   UNL     1      66.668   5.877   3.993  1.00  0.00    -0.081 Cl
ENDROOT
BRANCH   3   8
HETATM    8  C   UNL     1      64.150   5.598   2.321  1.00  0.00     0.204 C 
BRANCH   8   9
HETATM    9  O   UNL     1      63.638   6.002   1.059  1.00  0.00    -0.396 OA
HETATM   10  H   UNL     1      63.858   6.934   0.905  1.00  0.00     0.209 HD
ENDBRANCH   8   9
ENDBRANCH   3   8
BRANCH   1  11
HETATM   11  O   UNL     1      66.382   8.527   5.831  1.00  0.00    -0.351 OA
HETATM   12  C   UNL     1      66.736   7.796   6.987  1.00  0.00     0.210 C 
ENDBRANCH   1  11
BRANCH   4  13
HETATM   13  O   UNL     1      64.050  10.156   5.704  1.00  0.00    -0.353 OA
HETATM   14  C   UNL     1      62.906  10.959   5.464  1.00  0.00     0.210 C 
ENDBRANCH   4  13
TORSDOF 4
ENDMDL
MODEL 9
REMARK VINA RESULT:      -4.1      3.098      4.199
REMARK  4 active torsions:
REMARK  status: ('A' for Active; 'I' for Inactive)
REMARK    1  A    between atoms: C_1  and  O_8 
REMARK    2  A    between atoms: C_3  and  C_10 
REMARK    3  A    between atoms: C_4  and  O_9 
REMARK    4  A    between atoms: C_10  and  O_11 
ROOT
HETATM    1  C   UNL     1      62.664   7.542   5.881  1.00  0.00     0.123 A 
HETATM    2  C   UNL     1      62.778   8.653   5.002  1.00  0.00     0.078 A 
HETATM    3  C   UNL     1      61.880   8.816   3.913  1.00  0.00    -0.010 A 
HETATM    4  C   UNL     1      61.632   6.603   5.637  1.00  0.00     0.103 A 
HETATM    5  C   UNL     1      60.884   7.857   3.698  1.00  0.00     0.014 A 
HETATM    6  C   UNL     1      60.761   6.774   4.552  1.00  0.00     0.040 A 
HETATM    7 CL   UNL     1      64.010   9.872   5.161  1.00  0.00    -0.081 Cl
ENDROOT
BRANCH   3   8
HETATM    8  C   UNL     1      61.961   9.954   2.922  1.00  0.00     0.204 C 
BRANCH   8   9
HETATM    9  O   UNL     1      61.333  11.112   3.451  1.00  0.00    -0.396 OA
HETATM   10  H   UNL     1      60.478  11.244   3.015  1.00  0.00     0.209 HD
ENDBRANCH   8   9
ENDBRANCH   3   8
BRANCH   1  11
HETATM   11  O   UNL     1      63.448   7.238   6.959  1.00  0.00    -0.351 OA
HETATM   12  C   UNL     1      64.709   6.608   6.873  1.00  0.00     0.210 C 
ENDBRANCH   1  11
BRANCH   4  13
HETATM   13  O   UNL     1      61.316   5.459   6.329  1.00  0.00    -0.353 OA
HETATM   14  C   UNL     1      60.286   5.470   7.304  1.00  0.00     0.210 C 
ENDBRANCH   4  13
TORSDOF 4
ENDMDL
