MODEL 1
REMARK VINA RESULT:      -4.6      0.000      0.000
REMARK  2 active torsions:
REMARK  status: ('A' for Active; 'I' for Inactive)
REMARK    1  A    between atoms: C_1  and  N_6 
REMARK    2  A    between atoms: C_3  and  O_9 
ROOT
HETATM    1  C   UNL     1      62.796  10.691   5.420  1.00  0.00     0.061 A 
HETATM    2  C   UNL     1      62.347  11.453   4.322  1.00  0.00     0.055 A 
HETATM    3  C   UNL     1      62.989   9.307   5.223  1.00  0.00     0.094 A 
HETATM    4  C   UNL     1      62.659   8.735   3.978  1.00  0.00     0.041 A 
HETATM    5  C   UNL     1      62.022  10.868   3.100  1.00  0.00     0.036 A 
HETATM    6  C   UNL     1      62.175   9.502   2.922  1.00  0.00     0.026 A 
HETATM    7 CL   UNL     1      61.451  11.844   1.804  1.00  0.00    -0.084 Cl
ENDROOT
BRANCH   1   8
HETATM    8  N   UNL     1      63.226  11.421   6.543  1.00  0.00    -0.397 N 
HETATM    9  H   UNL     1      63.381  10.961   7.399  1.00  0.00     0.156 HD
HETATM   10  H   UNL     1      63.373  12.392   6.472  1.00  0.00     0.156 HD
ENDBRANCH   1   8
BRANCH   3  11
HETATM   11  O   UNL     1      63.468   8.352   6.076  1.00  0.00    -0.354 OA
HETATM   12  C   UNL     1      62.830   7.097   6.190  1.00  0.00     0.210 C 
ENDBRANCH   3  11
TORSDOF 2
ENDMDL
MODEL 2
REMARK VINA RESULT:      -4.4      2.762      3.705
REMARK  2 active torsions:
REMARK  status: ('A' for Active; 'I' for Inactive)
REMARK    1  A    between atoms: C_1  and  N_6 
REMARK    2  A    between atoms: C_3  and  O_9 
ROOT
HETATM    1  C   UNL     1      63.216  10.289   5.008  1.00  0.00     0.061 A 
HETATM    2  C   UNL     1      63.846   9.050   5.244  1.00  0.00     0.055 A 
HETATM    3  C   UNL     1      62.393  10.400   3.867  1.00  0.00     0.094 A 
HETATM    4  C   UNL     1      62.294   9.310   2.979  1.00  0.00     0.041 A 
HETATM    5  C   UNL     1      63.738   7.984   4.352  1.00  0.00     0.036 A 
HETATM    6  C   UNL     1      62.961   8.110   3.212  1.00  0.00     0.026 A 
HETATM    7 CL   UNL     1      64.553   6.505   4.677  1.00  0.00    -0.084 Cl
ENDROOT
BRANCH   1   8
HETATM    8  N   UNL     1      63.286  11.226   6.055  1.00  0.00    -0.397 N 
HETATM    9  H   UNL     1      64.050  11.844   6.112  1.00  0.00     0.156 HD
HETATM   10  H   UNL     1      62.570  11.264   6.730  1.00  0.00     0.156 HD
ENDBRANCH   1   8
BRANCH   3  11
HETATM   11  O   UNL     1      61.623  11.443   3.432  1.00  0.00    -0.354 OA
HETATM   12  C   UNL     1      61.686  11.879   2.090  1.00  0.00     0.210 C 
ENDBRANCH   3  11
TORSDOF 2
ENDMDL
MODEL 3
REMARK VINA RESULT:      -3.9      1.858      2.399
REMARK  2 active torsions:
REMARK  status: ('A' for Active; 'I' for Inactive)
REMARK    1  A    between atoms: C_1  and  N_6 
REMARK    2  A    between atoms: C_3  and  O_9 
ROOT
HETATM    1  C   UNL     1      62.320   8.284   3.885  1.00  0.00     0.061 A 
HETATM    2  C   UNL     1      61.955   9.286   2.962  1.00  0.00     0.055 A 
HETATM    3  C   UNL     1      62.735   8.695   5.169  1.00  0.00     0.094 A 
HETATM    4  C   UNL     1      62.842  10.072   5.453  1.00  0.00     0.041 A 
HETATM    5  C   UNL     1      62.071  10.643   3.261  1.00  0.00     0.036 A 
HETATM    6  C   UNL     1      62.517  11.043   4.510  1.00  0.00     0.026 A 
HETATM    7 CL   UNL     1      61.640  11.821   2.085  1.00  0.00    -0.084 Cl
ENDROOT
BRANCH   1   8
HETATM    8  N   UNL     1      62.016   6.962   3.512  1.00  0.00    -0.397 N 
HETATM    9  H   UNL     1      61.844   6.744   2.568  1.00  0.00     0.156 HD
HETATM   10  H   UNL     1      61.977   6.255   4.196  1.00  0.00     0.156 HD
ENDBRANCH   1   8
BRANCH   3  11
HETATM   11  O   UNL     1      63.080   7.953   6.266  1.00  0.00    -0.354 OA
HETATM   12  C   UNL     1      64.233   7.138   6.255  1.00  0.00     0.210 C 
ENDBRANCH   3  11
TORSDOF 2
ENDMDL
MODEL 4
REMARK VINA RESULT:      -3.8      3.166      4.040
REMARK  2 active torsions:
REMARK  status: ('A' for Active; 'I' for Inactive)
REMARK    1  A    between atoms: C_1  and  N_6 
REMARK    2  A    between atoms: C_3  and  O_9 
ROOT
HETATM    1  C   UNL     1      62.811   8.333   2.878  1.00  0.00     0.061 A 
HETATM    2  C   UNL     1      62.957   9.124   4.036  1.00  0.00     0.055 A 
HETATM    3  C   UNL     1      62.245   8.938   1.737  1.00  0.00     0.094 A 
HETATM    4  C   UNL     1      61.784  10.268   1.817  1.00  0.00     0.041 A 
HETATM    5  C   UNL     1      62.492  10.436   4.097  1.00  0.00     0.036 A 
HETATM    6  C   UNL     1      61.900  11.016   2.986  1.00  0.00     0.026 A 
HETATM    7 CL   UNL     1      62.670  11.345   5.547  1.00  0.00    -0.084 Cl
ENDROOT
BRANCH   1   8
HETATM    8  N   UNL     1      63.453   7.081   2.902  1.00  0.00    -0.397 N 
HETATM    9  H   UNL     1      63.101   6.358   3.470  1.00  0.00     0.156 HD
HETATM   10  H   UNL     1      64.254   6.928   2.350  1.00  0.00     0.156 HD
ENDBRANCH   1   8
BRANCH   3  11
HETATM   11  O   UNL     1      62.045   8.438   0.479  1.00  0.00    -0.354 OA
HETATM   12  C   UNL     1      60.943   7.601   0.200  1.00  0.00     0.210 C 
ENDBRANCH   3  11
TORSDOF 2
ENDMDL
MODEL 5
REMARK VINA RESULT:      -3.8      1.786      2.059
REMARK  2 active torsions:
REMARK  status: ('A' for Active; 'I' for Inactive)
REMARK    1  A    between atoms: C_1  and  N_6 
REMARK    2  A    between atoms: C_3  and  O_9 
ROOT
HETATM    1  C   UNL     1      62.612   9.051   4.433  1.00  0.00     0.061 A 
HETATM    2  C   UNL     1      62.289  10.314   3.896  1.00  0.00     0.055 A 
HETATM    3  C   UNL     1      62.728   7.967   3.538  1.00  0.00     0.094 A 
HETATM    4  C   UNL     1      62.447   8.167   2.171  1.00  0.00     0.041 A 
HETATM    5  C   UNL     1      62.012  10.491   2.541  1.00  0.00     0.036 A 
HETATM    6  C   UNL     1      62.088   9.416   1.671  1.00  0.00     0.026 A 
HETATM    7 CL   UNL     1      61.595  12.050   1.946  1.00  0.00    -0.084 Cl
ENDROOT
BRANCH   1   8
HETATM    8  N   UNL     1      63.011   9.039   5.782  1.00  0.00    -0.397 N 
HETATM    9  H   UNL     1      62.758   9.781   6.377  1.00  0.00     0.156 HD
HETATM   10  H   UNL     1      63.543   8.288   6.131  1.00  0.00     0.156 HD
ENDBRANCH   1   8
BRANCH   3  11
HETATM   11  O   UNL     1      63.085   6.666   3.767  1.00  0.00    -0.354 OA
HETATM   12  C   UNL     1      62.469   5.611   3.059  1.00  0.00     0.210 C 
ENDBRANCH   3  11
TORSDOF 2
ENDMDL
MODEL 6
REMARK VINA RESULT:      -3.5      5.152      6.643
REMARK  2 active torsions:
REMARK  status: ('A' for Active; 'I' for Inactive)
REMARK    1  A    between atoms: C_1  and  N_6 
REMARK    2  A    between atoms: C_3  and  O_9 
ROOT
HETATM    1  C   UNL     1      66.517   7.318   7.202  1.00  0.00     0.061 A 
HETATM    2  C   UNL     1      67.236   6.280   7.831  1.00  0.00     0.055 A 
HETATM    3  C   UNL     1      65.229   7.019   6.709  1.00  0.00     0.094 A 
HETATM    4  C   UNL     1      64.748   5.696   6.792  1.00  0.00     0.041 A 
HETATM    5  C   UNL     1      66.744   4.978   7.900  1.00  0.00     0.036 A 
HETATM    6  C   UNL     1      65.496   4.678   7.379  1.00  0.00     0.026 A 
HETATM    7 CL   UNL     1      67.678   3.745   8.652  1.00  0.00    -0.084 Cl
ENDROOT
BRANCH   1   8
HETATM    8  N   UNL     1      67.059   8.609   7.331  1.00  0.00    -0.397 N 
HETATM    9  H   UNL     1      66.480   9.399   7.230  1.00  0.00     0.156 HD
HETATM   10  H   UNL     1      68.018   8.723   7.524  1.00  0.00     0.156 HD
ENDBRANCH   1   8
BRANCH   3  11
HETATM   11  O   UNL     1      64.298   7.830   6.121  1.00  0.00    -0.354 OA
HETATM   12  C   UNL     1      64.506   8.350   4.825  1.00  0.00     0.210 C 
ENDBRANCH   3  11
TORSDOF 2
ENDMDL
MODEL 7
REMARK VINA RESULT:      -3.4      3.400      4.254
REMARK  2 active torsions:
REMARK  status: ('A' for Active; 'I' for Inactive)
REMARK    1  A    between atoms: C_1  and  N_6 
REMARK    2  A    between atoms: C_3  and  O_9 
ROOT
HETATM    1  C   UNL     1      62.208   9.647   2.858  1.00  0.00     0.061 A 
HETATM    2  C   UNL     1      62.987   9.288   3.977  1.00  0.00     0.055 A 
HETATM    3  C   UNL     1      62.055   8.690   1.832  1.00  0.00     0.094 A 
HETATM    4  C   UNL     1      62.738   7.461   1.926  1.00  0.00     0.041 A 
HETATM    5  C   UNL     1      63.658   8.068   4.051  1.00  0.00     0.036 A 
HETATM    6  C   UNL     1      63.537   7.147   3.023  1.00  0.00     0.026 A 
HETATM    7 CL   UNL     1      64.618   7.697   5.428  1.00  0.00    -0.084 Cl
ENDROOT
BRANCH   1   8
HETATM    8  N   UNL     1      61.471  10.839   2.976  1.00  0.00    -0.397 N 
HETATM    9  H   UNL     1      60.528  10.865   2.693  1.00  0.00     0.156 HD
HETATM   10  H   UNL     1      61.897  11.647   3.342  1.00  0.00     0.156 HD
ENDBRANCH   1   8
BRANCH   3  11
HETATM   11  O   UNL     1      61.318   8.740   0.681  1.00  0.00    -0.354 OA
HETATM   12  C   UNL     1      60.054   8.114   0.603  1.00  0.00     0.210 C 
ENDBRANCH   3  11
TORSDOF 2
ENDMDL
MODEL 8
REMARK VINA RESULT:      -3.3      2.005      2.354
REMARK  2 active torsions:
REMARK  status: ('A' for Active; 'I' for Inactive)
REMARK    1  A    between atoms: C_1  and  N_6 
REMARK    2  A    between atoms: C_3  and  O_9 
ROOT
HETATM    1  C   UNL     1      63.223   8.446   5.087  1.00  0.00     0.061 A 
HETATM    2  C   UNL     1      63.150   9.000   3.793  1.00  0.00     0.055 A 
HETATM    3  C   UNL     1      62.261   7.477   5.442  1.00  0.00     0.094 A 
HETATM    4  C   UNL     1      61.233   7.160   4.531  1.00  0.00     0.041 A 
HETATM    5  C   UNL     1      62.123   8.676   2.908  1.00  0.00     0.036 A 
HETATM    6  C   UNL     1      61.156   7.754   3.274  1.00  0.00     0.026 A 
HETATM    7 CL   UNL     1      62.067   9.406   1.352  1.00  0.00    -0.084 Cl
ENDROOT
BRANCH   1   8
HETATM    8  N   UNL     1      64.386   8.745   5.821  1.00  0.00    -0.397 N 
HETATM    9  H   UNL     1      65.055   9.366   5.452  1.00  0.00     0.156 HD
HETATM   10  H   UNL     1      64.530   8.333   6.703  1.00  0.00     0.156 HD
ENDBRANCH   1   8
BRANCH   3  11
HETATM   11  O   UNL     1      62.131   6.739   6.586  1.00  0.00    -0.354 OA
HETATM   12  C   UNL     1      61.010   5.903   6.784  1.00  0.00     0.210 C 
ENDBRANCH   3  11
TORSDOF 2
ENDMDL
MODEL 9
REMARK VINA RESULT:      -3.3      7.325      8.598
REMARK  2 active torsions:
REMARK  status: ('A' for Active; 'I' for Inactive)
REMARK    1  A    between atoms: C_1  and  N_6 
REMARK    2  A    between atoms: C_3  and  O_9 
ROOT
HETATM    1  C   UNL     1      67.701   5.866   7.964  1.00  0.00     0.061 A 
HETATM    2  C   UNL     1      67.749   4.860   8.950  1.00  0.00     0.055 A 
HETATM    3  C   UNL     1      67.762   5.464   6.613  1.00  0.00     0.094 A 
HETATM    4  C   UNL     1      67.943   4.100   6.306  1.00  0.00     0.041 A 
HETATM    5  C   UNL     1      67.932   3.517   8.627  1.00  0.00     0.036 A 
HETATM    6  C   UNL     1      68.032   3.129   7.300  1.00  0.00     0.026 A 
HETATM    7 CL   UNL     1      68.013   2.335   9.874  1.00  0.00    -0.084 Cl
ENDROOT
BRANCH   1   8
HETATM    8  N   UNL     1      67.367   7.156   8.415  1.00  0.00    -0.397 N 
HETATM    9  H   UNL     1      67.808   7.529   9.211  1.00  0.00     0.156 HD
HETATM   10  H   UNL     1      66.692   7.686   7.932  1.00  0.00     0.156 HD
ENDBRANCH   1   8
BRANCH   3  11
HETATM   11  O   UNL     1      67.674   6.204   5.466  1.00  0.00    -0.354 OA
HETATM   12  C   UNL     1      67.051   5.680   4.312  1.00  0.00     0.210 C 
ENDBRANCH   3  11
TORSDOF 2
ENDMDL
