MODEL 1
REMARK VINA RESULT:      -5.2      0.000      0.000
REMARK  4 active torsions:
REMARK  status: ('A' for Active; 'I' for Inactive)
REMARK    1  A    between atoms: C_1  and  C_6 
REMARK    2  A    between atoms: C_2  and  C_5 
REMARK    3  A    between atoms: C_4  and  O_8 
REMARK    4  A    between atoms: C_5  and  C_6 
ROOT
HETATM    1  C   UNL     1      62.737   9.006   3.780  1.00  0.00    -0.025 A 
HETATM    2  C   UNL     1      62.571  10.211   4.478  1.00  0.00     0.071 A 
HETATM    3  C   UNL     1      62.397   8.993   2.412  1.00  0.00     0.010 A 
HETATM    4  C   UNL     1      62.072  11.349   3.840  1.00  0.00     0.037 A 
HETATM    5  C   UNL     1      61.897  10.130   1.775  1.00  0.00     0.001 A 
HETATM    6  C   UNL     1      61.727  11.309   2.492  1.00  0.00     0.003 A 
ENDROOT
BRANCH   1   7
HETATM    7  C   UNL     1      63.198   7.711   4.415  1.00  0.00     0.052 C 
BRANCH   7   8
HETATM    8  C   UNL     1      64.720   7.602   4.519  1.00  0.00     0.118 C 
BRANCH   8   9
HETATM    9  C   UNL     1      65.181   7.918   5.910  1.00  0.00     0.172 C 
HETATM   10  O   UNL     1      65.132   7.191   6.887  1.00  0.00    -0.648 OA
HETATM   11  O   UNL     1      65.639   9.181   6.021  1.00  0.00    -0.648 OA
ENDBRANCH   8   9
ENDBRANCH   7   8
ENDBRANCH   1   7
BRANCH   2  12
HETATM   12  O   UNL     1      62.864  10.379   5.802  1.00  0.00    -0.360 OA
HETATM   13  H   UNL     1      63.212  11.194   6.105  1.00  0.00     0.217 HD
ENDBRANCH   2  12
TORSDOF 4
ENDMDL
MODEL 2
REMARK VINA RESULT:      -5.0      1.561      1.951
REMARK  4 active torsions:
REMARK  status: ('A' for Active; 'I' for Inactive)
REMARK    1  A    between atoms: C_1  and  C_6 
REMARK    2  A    between atoms: C_2  and  C_5 
REMARK    3  A    between atoms: C_4  and  O_8 
REMARK    4  A    between atoms: C_5  and  C_6 
ROOT
HETATM    1  C   UNL     1      62.766   9.000   3.759  1.00  0.00    -0.025 A 
HETATM    2  C   UNL     1      62.593  10.181   4.495  1.00  0.00     0.071 A 
HETATM    3  C   UNL     1      62.411   9.024   2.395  1.00  0.00     0.010 A 
HETATM    4  C   UNL     1      62.073  11.331   3.898  1.00  0.00     0.037 A 
HETATM    5  C   UNL     1      61.890  10.174   1.798  1.00  0.00     0.001 A 
HETATM    6  C   UNL     1      61.713  11.328   2.553  1.00  0.00     0.003 A 
ENDROOT
BRANCH   1   7
HETATM    7  C   UNL     1      63.249   7.693   4.349  1.00  0.00     0.052 C 
BRANCH   7   8
HETATM    8  C   UNL     1      62.112   6.803   4.851  1.00  0.00     0.118 C 
BRANCH   8   9
HETATM    9  C   UNL     1      62.021   6.850   6.347  1.00  0.00     0.172 C 
HETATM   10  O   UNL     1      61.148   6.370   7.049  1.00  0.00    -0.648 OA
HETATM   11  O   UNL     1      63.025   7.561   6.896  1.00  0.00    -0.648 OA
ENDBRANCH   8   9
ENDBRANCH   7   8
ENDBRANCH   1   7
BRANCH   2  12
HETATM   12  O   UNL     1      62.898  10.313   5.820  1.00  0.00    -0.360 OA
HETATM   13  H   UNL     1      63.779  10.188   6.113  1.00  0.00     0.217 HD
ENDBRANCH   2  12
TORSDOF 4
ENDMDL
MODEL 3
REMARK VINA RESULT:      -4.9      1.656      4.363
REMARK  4 active torsions:
REMARK  status: ('A' for Active; 'I' for Inactive)
REMARK    1  A    between atoms: C_1  and  C_6 
REMARK    2  A    between atoms: C_2  and  C_5 
REMARK    3  A    between atoms: C_4  and  O_8 
REMARK    4  A    between atoms: C_5  and  C_6 
ROOT
HETATM    1  C   UNL     1      63.655   7.988   4.147  1.00  0.00    -0.025 A 
HETATM    2  C   UNL     1      64.628   8.579   4.966  1.00  0.00     0.071 A 
HETATM    3  C   UNL     1      64.018   6.827   3.435  1.00  0.00     0.010 A 
HETATM    4  C   UNL     1      65.913   8.040   5.058  1.00  0.00     0.037 A 
HETATM    5  C   UNL     1      65.304   6.290   3.526  1.00  0.00     0.001 A 
HETATM    6  C   UNL     1      66.256   6.902   4.333  1.00  0.00     0.003 A 
ENDROOT
BRANCH   1   7
HETATM    7  C   UNL     1      62.266   8.552   3.933  1.00  0.00     0.052 C 
BRANCH   7   8
HETATM    8  C   UNL     1      62.194   9.551   2.778  1.00  0.00     0.118 C 
BRANCH   8   9
HETATM    9  C   UNL     1      62.057  10.951   3.295  1.00  0.00     0.172 C 
HETATM   10  O   UNL     1      62.005  11.306   4.460  1.00  0.00    -0.648 OA
HETATM   11  O   UNL     1      61.931  11.852   2.300  1.00  0.00    -0.648 OA
ENDBRANCH   8   9
ENDBRANCH   7   8
ENDBRANCH   1   7
BRANCH   2  12
HETATM   12  O   UNL     1      64.421   9.699   5.719  1.00  0.00    -0.360 OA
HETATM   13  H   UNL     1      63.877  10.388   5.395  1.00  0.00     0.217 HD
ENDBRANCH   2  12
TORSDOF 4
ENDMDL
MODEL 4
REMARK VINA RESULT:      -4.7      1.561      2.086
REMARK  4 active torsions:
REMARK  status: ('A' for Active; 'I' for Inactive)
REMARK    1  A    between atoms: C_1  and  C_6 
REMARK    2  A    between atoms: C_2  and  C_5 
REMARK    3  A    between atoms: C_4  and  O_8 
REMARK    4  A    between atoms: C_5  and  C_6 
ROOT
HETATM    1  C   UNL     1      62.618   8.744   3.486  1.00  0.00    -0.025 A 
HETATM    2  C   UNL     1      62.447   8.716   2.095  1.00  0.00     0.071 A 
HETATM    3  C   UNL     1      62.355   9.959   4.151  1.00  0.00     0.010 A 
HETATM    4  C   UNL     1      62.045   9.856   1.396  1.00  0.00     0.037 A 
HETATM    5  C   UNL     1      61.956  11.100   3.452  1.00  0.00     0.001 A 
HETATM    6  C   UNL     1      61.807  11.051   2.071  1.00  0.00     0.003 A 
ENDROOT
BRANCH   1   7
HETATM    7  C   UNL     1      63.123   7.576   4.306  1.00  0.00     0.052 C 
BRANCH   7   8
HETATM    8  C   UNL     1      64.646   7.554   4.445  1.00  0.00     0.118 C 
BRANCH   8   9
HETATM    9  C   UNL     1      65.059   7.973   5.824  1.00  0.00     0.172 C 
HETATM   10  O   UNL     1      65.029   7.301   6.840  1.00  0.00    -0.648 OA
HETATM   11  O   UNL     1      65.443   9.265   5.871  1.00  0.00    -0.648 OA
ENDBRANCH   8   9
ENDBRANCH   7   8
ENDBRANCH   1   7
BRANCH   2  12
HETATM   12  O   UNL     1      62.655   7.612   1.317  1.00  0.00    -0.360 OA
HETATM   13  H   UNL     1      62.479   6.758   1.658  1.00  0.00     0.217 HD
ENDBRANCH   2  12
TORSDOF 4
ENDMDL
MODEL 5
REMARK VINA RESULT:      -4.6      1.764      2.210
REMARK  4 active torsions:
REMARK  status: ('A' for Active; 'I' for Inactive)
REMARK    1  A    between atoms: C_1  and  C_6 
REMARK    2  A    between atoms: C_2  and  C_5 
REMARK    3  A    between atoms: C_4  and  O_8 
REMARK    4  A    between atoms: C_5  and  C_6 
ROOT
HETATM    1  C   UNL     1      63.981   9.283   4.975  1.00  0.00    -0.025 A 
HETATM    2  C   UNL     1      63.573  10.571   5.351  1.00  0.00     0.071 A 
HETATM    3  C   UNL     1      63.255   8.641   3.953  1.00  0.00     0.010 A 
HETATM    4  C   UNL     1      62.476  11.183   4.740  1.00  0.00     0.037 A 
HETATM    5  C   UNL     1      62.157   9.252   3.344  1.00  0.00     0.001 A 
HETATM    6  C   UNL     1      61.762  10.523   3.744  1.00  0.00     0.003 A 
ENDROOT
BRANCH   1   7
HETATM    7  C   UNL     1      65.109   8.522   5.638  1.00  0.00     0.052 C 
BRANCH   7   8
HETATM    8  C   UNL     1      65.572   7.309   4.830  1.00  0.00     0.118 C 
BRANCH   8   9
HETATM    9  C   UNL     1      67.065   7.298   4.695  1.00  0.00     0.172 C 
HETATM   10  O   UNL     1      67.807   8.263   4.633  1.00  0.00    -0.648 OA
HETATM   11  O   UNL     1      67.558   6.048   4.586  1.00  0.00    -0.648 OA
ENDBRANCH   8   9
ENDBRANCH   7   8
ENDBRANCH   1   7
BRANCH   2  12
HETATM   12  O   UNL     1      64.181  11.320   6.317  1.00  0.00    -0.360 OA
HETATM   13  H   UNL     1      64.557  12.149   6.101  1.00  0.00     0.217 HD
ENDBRANCH   2  12
TORSDOF 4
ENDMDL
MODEL 6
REMARK VINA RESULT:      -4.4      3.034      4.779
REMARK  4 active torsions:
REMARK  status: ('A' for Active; 'I' for Inactive)
REMARK    1  A    between atoms: C_1  and  C_6 
REMARK    2  A    between atoms: C_2  and  C_5 
REMARK    3  A    between atoms: C_4  and  O_8 
REMARK    4  A    between atoms: C_5  and  C_6 
ROOT
HETATM    1  C   UNL     1      62.281   9.184   2.657  1.00  0.00    -0.025 A 
HETATM    2  C   UNL     1      62.163  10.124   3.691  1.00  0.00     0.071 A 
HETATM    3  C   UNL     1      63.103   8.063   2.886  1.00  0.00     0.010 A 
HETATM    4  C   UNL     1      62.850   9.958   4.896  1.00  0.00     0.037 A 
HETATM    5  C   UNL     1      63.792   7.898   4.090  1.00  0.00     0.001 A 
HETATM    6  C   UNL     1      63.672   8.851   5.094  1.00  0.00     0.003 A 
ENDROOT
BRANCH   1   7
HETATM    7  C   UNL     1      61.631   9.328   1.298  1.00  0.00     0.052 C 
BRANCH   7   8
HETATM    8  C   UNL     1      61.078   8.011   0.753  1.00  0.00     0.118 C 
BRANCH   8   9
HETATM    9  C   UNL     1      59.685   7.772   1.256  1.00  0.00     0.172 C 
HETATM   10  O   UNL     1      58.652   8.254   0.824  1.00  0.00    -0.648 OA
HETATM   11  O   UNL     1      59.664   6.966   2.336  1.00  0.00    -0.648 OA
ENDBRANCH   8   9
ENDBRANCH   7   8
ENDBRANCH   1   7
BRANCH   2  12
HETATM   12  O   UNL     1      61.399  11.254   3.620  1.00  0.00    -0.360 OA
HETATM   13  H   UNL     1      61.171  11.716   4.401  1.00  0.00     0.217 HD
ENDBRANCH   2  12
TORSDOF 4
ENDMDL
MODEL 7
REMARK VINA RESULT:      -4.2      2.246      3.426
REMARK  4 active torsions:
REMARK  status: ('A' for Active; 'I' for Inactive)
REMARK    1  A    between atoms: C_1  and  C_6 
REMARK    2  A    between atoms: C_2  and  C_5 
REMARK    3  A    between atoms: C_4  and  O_8 
REMARK    4  A    between atoms: C_5  and  C_6 
ROOT
HETATM    1  C   UNL     1      61.689   8.478   3.343  1.00  0.00    -0.025 A 
HETATM    2  C   UNL     1      60.444   7.901   3.053  1.00  0.00     0.071 A 
HETATM    3  C   UNL     1      62.451   8.963   2.261  1.00  0.00     0.010 A 
HETATM    4  C   UNL     1      59.989   7.799   1.737  1.00  0.00     0.037 A 
HETATM    5  C   UNL     1      61.996   8.859   0.945  1.00  0.00     0.001 A 
HETATM    6  C   UNL     1      60.765   8.269   0.682  1.00  0.00     0.003 A 
ENDROOT
BRANCH   1   7
HETATM    7  C   UNL     1      62.287   8.558   4.731  1.00  0.00     0.052 C 
BRANCH   7   8
HETATM    8  C   UNL     1      63.386   9.615   4.852  1.00  0.00     0.118 C 
BRANCH   8   9
HETATM    9  C   UNL     1      62.813  10.928   5.293  1.00  0.00     0.172 C 
HETATM   10  O   UNL     1      62.079  11.664   4.656  1.00  0.00    -0.648 OA
HETATM   11  O   UNL     1      63.246  11.288   6.518  1.00  0.00    -0.648 OA
ENDBRANCH   8   9
ENDBRANCH   7   8
ENDBRANCH   1   7
BRANCH   2  12
HETATM   12  O   UNL     1      59.594   7.395   3.994  1.00  0.00    -0.360 OA
HETATM   13  H   UNL     1      58.670   7.520   3.906  1.00  0.00     0.217 HD
ENDBRANCH   2  12
TORSDOF 4
ENDMDL
MODEL 8
REMARK VINA RESULT:      -4.2     12.415     13.809
REMARK  4 active torsions:
REMARK  status: ('A' for Active; 'I' for Inactive)
REMARK    1  A    between atoms: C_1  and  C_6 
REMARK    2  A    between atoms: C_2  and  C_5 
REMARK    3  A    between atoms: C_4  and  O_8 
REMARK    4  A    between atoms: C_5  and  C_6 
ROOT
HETATM    1  C   UNL     1      56.693   1.708  13.291  1.00  0.00    -0.025 A 
HETATM    2  C   UNL     1      57.609   2.418  12.502  1.00  0.00     0.071 A 
HETATM    3  C   UNL     1      57.196   0.667  14.097  1.00  0.00     0.010 A 
HETATM    4  C   UNL     1      58.967   2.091  12.507  1.00  0.00     0.037 A 
HETATM    5  C   UNL     1      58.553   0.339  14.101  1.00  0.00     0.001 A 
HETATM    6  C   UNL     1      59.440   1.048  13.299  1.00  0.00     0.003 A 
ENDROOT
BRANCH   1   7
HETATM    7  C   UNL     1      55.198   1.949  13.285  1.00  0.00     0.052 C 
BRANCH   7   8
HETATM    8  C   UNL     1      54.747   2.951  14.348  1.00  0.00     0.118 C 
BRANCH   8   9
HETATM    9  C   UNL     1      54.421   4.275  13.725  1.00  0.00     0.172 C 
HETATM   10  O   UNL     1      54.214   5.330  14.300  1.00  0.00    -0.648 OA
HETATM   11  O   UNL     1      54.311   4.195  12.384  1.00  0.00    -0.648 OA
ENDBRANCH   8   9
ENDBRANCH   7   8
ENDBRANCH   1   7
BRANCH   2  12
HETATM   12  O   UNL     1      57.273   3.454  11.677  1.00  0.00    -0.360 OA
HETATM   13  H   UNL     1      57.834   3.687  10.965  1.00  0.00     0.217 HD
ENDBRANCH   2  12
TORSDOF 4
ENDMDL
MODEL 9
REMARK VINA RESULT:      -4.1      1.509      2.242
REMARK  4 active torsions:
REMARK  status: ('A' for Active; 'I' for Inactive)
REMARK    1  A    between atoms: C_1  and  C_6 
REMARK    2  A    between atoms: C_2  and  C_5 
REMARK    3  A    between atoms: C_4  and  O_8 
REMARK    4  A    between atoms: C_5  and  C_6 
ROOT
HETATM    1  C   UNL     1      64.445   7.854   4.209  1.00  0.00    -0.025 A 
HETATM    2  C   UNL     1      64.129   9.013   4.933  1.00  0.00     0.071 A 
HETATM    3  C   UNL     1      63.544   7.447   3.205  1.00  0.00     0.010 A 
HETATM    4  C   UNL     1      62.955   9.723   4.676  1.00  0.00     0.037 A 
HETATM    5  C   UNL     1      62.368   8.156   2.950  1.00  0.00     0.001 A 
HETATM    6  C   UNL     1      62.070   9.293   3.691  1.00  0.00     0.003 A 
ENDROOT
BRANCH   1   7
HETATM    7  C   UNL     1      65.656   6.987   4.477  1.00  0.00     0.052 C 
BRANCH   7   8
HETATM    8  C   UNL     1      65.423   5.954   5.581  1.00  0.00     0.118 C 
BRANCH   8   9
HETATM    9  C   UNL     1      65.963   6.445   6.890  1.00  0.00     0.172 C 
HETATM   10  O   UNL     1      67.109   6.358   7.295  1.00  0.00    -0.648 OA
HETATM   11  O   UNL     1      65.002   6.983   7.668  1.00  0.00    -0.648 OA
ENDBRANCH   8   9
ENDBRANCH   7   8
ENDBRANCH   1   7
BRANCH   2  12
HETATM   12  O   UNL     1      64.907   9.533   5.928  1.00  0.00    -0.360 OA
HETATM   13  H   UNL     1      65.840   9.523   5.847  1.00  0.00     0.217 HD
ENDBRANCH   2  12
TORSDOF 4
ENDMDL
