MODEL 1
REMARK VINA RESULT:      -5.0      0.000      0.000
REMARK  2 active torsions:
REMARK  status: ('A' for Active; 'I' for Inactive)
REMARK    1  A    between atoms: N_1  and  C_2 
REMARK    2  A    between atoms: C_5  and  N_6 
ROOT
HETATM    1  C   UNL     1      62.508   9.035   3.128  1.00  0.00     0.030 A 
HETATM    2  C   UNL     1      63.443   8.622   4.087  1.00  0.00     0.031 A 
HETATM    3  C   UNL     1      61.937  10.301   3.322  1.00  0.00     0.031 A 
HETATM    4  C   UNL     1      63.167  10.659   5.384  1.00  0.00     0.025 A 
HETATM    5  C   UNL     1      63.787   9.430   5.181  1.00  0.00     0.031 A 
HETATM    6  C   UNL     1      62.274  11.109   4.417  1.00  0.00     0.031 A 
ENDROOT
BRANCH   1   7
HETATM    7  N   UNL     1      62.171   8.252   2.040  1.00  0.00    -0.381 N 
HETATM    8  C   UNL     1      61.556   8.810   0.836  1.00  0.00     0.123 C 
HETATM    9  C   UNL     1      60.165   8.215   0.633  1.00  0.00     0.020 C 
HETATM   10  C   UNL     1      60.212   6.687   0.641  1.00  0.00     0.003 C 
HETATM   11  C   UNL     1      60.894   6.170   1.906  1.00  0.00     0.020 C 
HETATM   12  C   UNL     1      62.278   6.793   2.095  1.00  0.00     0.123 C 
ENDBRANCH   1   7
BRANCH   4  13
HETATM   13  N   UNL     1      63.604  11.517   6.399  1.00  0.00    -0.399 N 
HETATM   14  H   UNL     1      64.555  11.532   6.655  1.00  0.00     0.156 HD
HETATM   15  H   UNL     1      62.963  12.107   6.856  1.00  0.00     0.156 HD
ENDBRANCH   4  13
TORSDOF 2
ENDMDL
MODEL 2
REMARK VINA RESULT:      -4.8      2.578      4.687
REMARK  2 active torsions:
REMARK  status: ('A' for Active; 'I' for Inactive)
REMARK    1  A    between atoms: N_1  and  C_2 
REMARK    2  A    between atoms: C_5  and  N_6 
ROOT
HETATM    1  C   UNL     1      63.551   8.750   4.810  1.00  0.00     0.030 A 
HETATM    2  C   UNL     1      63.102  10.011   5.224  1.00  0.00     0.031 A 
HETATM    3  C   UNL     1      63.205   8.363   3.507  1.00  0.00     0.031 A 
HETATM    4  C   UNL     1      61.967  10.414   3.112  1.00  0.00     0.025 A 
HETATM    5  C   UNL     1      62.346  10.841   4.382  1.00  0.00     0.031 A 
HETATM    6  C   UNL     1      62.445   9.187   2.664  1.00  0.00     0.031 A 
ENDROOT
BRANCH   1   7
HETATM    7  N   UNL     1      64.305   7.930   5.629  1.00  0.00    -0.381 N 
HETATM    8  C   UNL     1      65.758   8.060   5.740  1.00  0.00     0.123 C 
HETATM    9  C   UNL     1      66.439   6.785   5.249  1.00  0.00     0.020 C 
HETATM   10  C   UNL     1      65.881   5.553   5.961  1.00  0.00     0.003 C 
HETATM   11  C   UNL     1      64.360   5.493   5.836  1.00  0.00     0.020 C 
HETATM   12  C   UNL     1      63.703   6.788   6.319  1.00  0.00     0.123 C 
ENDBRANCH   1   7
BRANCH   4  13
HETATM   13  N   UNL     1      61.328  11.291   2.229  1.00  0.00    -0.399 N 
HETATM   14  H   UNL     1      61.759  11.530   1.376  1.00  0.00     0.156 HD
HETATM   15  H   UNL     1      60.449  11.668   2.459  1.00  0.00     0.156 HD
ENDBRANCH   4  13
TORSDOF 2
ENDMDL
MODEL 3
REMARK VINA RESULT:      -4.7      0.864      1.973
REMARK  2 active torsions:
REMARK  status: ('A' for Active; 'I' for Inactive)
REMARK    1  A    between atoms: N_1  and  C_2 
REMARK    2  A    between atoms: C_5  and  N_6 
ROOT
HETATM    1  C   UNL     1      62.051   9.233   3.087  1.00  0.00     0.030 A 
HETATM    2  C   UNL     1      61.713  10.575   3.304  1.00  0.00     0.031 A 
HETATM    3  C   UNL     1      62.939   8.658   4.008  1.00  0.00     0.031 A 
HETATM    4  C   UNL     1      63.159  10.732   5.252  1.00  0.00     0.025 A 
HETATM    5  C   UNL     1      62.236  11.306   4.381  1.00  0.00     0.031 A 
HETATM    6  C   UNL     1      63.468   9.386   5.084  1.00  0.00     0.031 A 
ENDROOT
BRANCH   1   7
HETATM    7  N   UNL     1      61.533   8.502   2.034  1.00  0.00    -0.381 N 
HETATM    8  C   UNL     1      60.547   7.439   2.231  1.00  0.00     0.123 C 
HETATM    9  C   UNL     1      61.122   6.099   1.780  1.00  0.00     0.020 C 
HETATM   10  C   UNL     1      61.653   6.181   0.348  1.00  0.00     0.003 C 
HETATM   11  C   UNL     1      62.649   7.329   0.202  1.00  0.00     0.020 C 
HETATM   12  C   UNL     1      62.055   8.656   0.676  1.00  0.00     0.123 C 
ENDBRANCH   1   7
BRANCH   4  13
HETATM   13  N   UNL     1      63.576  11.417   6.398  1.00  0.00    -0.399 N 
HETATM   14  H   UNL     1      63.052  12.181   6.733  1.00  0.00     0.156 HD
HETATM   15  H   UNL     1      64.393  11.136   6.870  1.00  0.00     0.156 HD
ENDBRANCH   4  13
TORSDOF 2
ENDMDL
MODEL 4
REMARK VINA RESULT:      -4.7      2.761      5.056
REMARK  2 active torsions:
REMARK  status: ('A' for Active; 'I' for Inactive)
REMARK    1  A    between atoms: N_1  and  C_2 
REMARK    2  A    between atoms: C_5  and  N_6 
ROOT
HETATM    1  C   UNL     1      63.919   8.131   4.380  1.00  0.00     0.030 A 
HETATM    2  C   UNL     1      63.558   9.307   5.050  1.00  0.00     0.031 A 
HETATM    3  C   UNL     1      63.350   7.939   3.112  1.00  0.00     0.031 A 
HETATM    4  C   UNL     1      62.080  10.003   3.251  1.00  0.00     0.025 A 
HETATM    5  C   UNL     1      62.676  10.240   4.486  1.00  0.00     0.031 A 
HETATM    6  C   UNL     1      62.463   8.866   2.547  1.00  0.00     0.031 A 
ENDROOT
BRANCH   1   7
HETATM    7  N   UNL     1      64.796   7.210   4.922  1.00  0.00    -0.381 N 
HETATM    8  C   UNL     1      64.907   6.994   6.365  1.00  0.00     0.123 C 
HETATM    9  C   UNL     1      66.310   7.356   6.844  1.00  0.00     0.020 C 
HETATM   10  C   UNL     1      67.377   6.621   6.033  1.00  0.00     0.003 C 
HETATM   11  C   UNL     1      67.185   6.860   4.537  1.00  0.00     0.020 C 
HETATM   12  C   UNL     1      65.767   6.505   4.086  1.00  0.00     0.123 C 
ENDBRANCH   1   7
BRANCH   4  13
HETATM   13  N   UNL     1      61.306  10.992   2.633  1.00  0.00    -0.399 N 
HETATM   14  H   UNL     1      61.668  11.492   1.866  1.00  0.00     0.156 HD
HETATM   15  H   UNL     1      60.401  11.187   2.965  1.00  0.00     0.156 HD
ENDBRANCH   4  13
TORSDOF 2
ENDMDL
MODEL 5
REMARK VINA RESULT:      -4.6      2.316      4.121
REMARK  2 active torsions:
REMARK  status: ('A' for Active; 'I' for Inactive)
REMARK    1  A    between atoms: N_1  and  C_2 
REMARK    2  A    between atoms: C_5  and  N_6 
ROOT
HETATM    1  C   UNL     1      62.794   8.505   3.453  1.00  0.00     0.030 A 
HETATM    2  C   UNL     1      62.596   9.635   4.258  1.00  0.00     0.031 A 
HETATM    3  C   UNL     1      62.515   8.658   2.088  1.00  0.00     0.031 A 
HETATM    4  C   UNL     1      61.819  10.966   2.379  1.00  0.00     0.025 A 
HETATM    5  C   UNL     1      62.142  10.852   3.728  1.00  0.00     0.031 A 
HETATM    6  C   UNL     1      62.056   9.871   1.554  1.00  0.00     0.031 A 
ENDROOT
BRANCH   1   7
HETATM    7  N   UNL     1      63.250   7.305   3.965  1.00  0.00    -0.381 N 
HETATM    8  C   UNL     1      62.894   6.841   5.305  1.00  0.00     0.123 C 
HETATM    9  C   UNL     1      64.146   6.722   6.170  1.00  0.00     0.020 C 
HETATM   10  C   UNL     1      65.208   5.859   5.489  1.00  0.00     0.003 C 
HETATM   11  C   UNL     1      65.509   6.375   4.084  1.00  0.00     0.020 C 
HETATM   12  C   UNL     1      64.237   6.500   3.243  1.00  0.00     0.123 C 
ENDBRANCH   1   7
BRANCH   4  13
HETATM   13  N   UNL     1      61.494  12.211   1.829  1.00  0.00    -0.399 N 
HETATM   14  H   UNL     1      62.101  12.977   1.951  1.00  0.00     0.156 HD
HETATM   15  H   UNL     1      60.660  12.321   1.319  1.00  0.00     0.156 HD
ENDBRANCH   4  13
TORSDOF 2
ENDMDL
MODEL 6
REMARK VINA RESULT:      -4.6      2.589      3.982
REMARK  2 active torsions:
REMARK  status: ('A' for Active; 'I' for Inactive)
REMARK    1  A    between atoms: N_1  and  C_2 
REMARK    2  A    between atoms: C_5  and  N_6 
ROOT
HETATM    1  C   UNL     1      63.908   8.093   3.952  1.00  0.00     0.030 A 
HETATM    2  C   UNL     1      64.672   8.650   4.986  1.00  0.00     0.031 A 
HETATM    3  C   UNL     1      64.366   6.875   3.427  1.00  0.00     0.031 A 
HETATM    4  C   UNL     1      66.299   6.847   4.896  1.00  0.00     0.025 A 
HETATM    5  C   UNL     1      65.832   8.026   5.468  1.00  0.00     0.031 A 
HETATM    6  C   UNL     1      65.528   6.251   3.903  1.00  0.00     0.031 A 
ENDROOT
BRANCH   1   7
HETATM    7  N   UNL     1      62.758   8.694   3.476  1.00  0.00    -0.381 N 
HETATM    8  C   UNL     1      62.231   8.425   2.139  1.00  0.00     0.123 C 
HETATM    9  C   UNL     1      62.238   9.704   1.305  1.00  0.00     0.020 C 
HETATM   10  C   UNL     1      61.514  10.839   2.028  1.00  0.00     0.003 C 
HETATM   11  C   UNL     1      62.087  11.046   3.428  1.00  0.00     0.020 C 
HETATM   12  C   UNL     1      62.084   9.747   4.237  1.00  0.00     0.123 C 
ENDBRANCH   1   7
BRANCH   4  13
HETATM   13  N   UNL     1      67.378   6.160   5.463  1.00  0.00    -0.399 N 
HETATM   14  H   UNL     1      68.110   6.660   5.891  1.00  0.00     0.156 HD
HETATM   15  H   UNL     1      67.404   5.176   5.436  1.00  0.00     0.156 HD
ENDBRANCH   4  13
TORSDOF 2
ENDMDL
MODEL 7
REMARK VINA RESULT:      -4.6      3.212      5.555
REMARK  2 active torsions:
REMARK  status: ('A' for Active; 'I' for Inactive)
REMARK    1  A    between atoms: N_1  and  C_2 
REMARK    2  A    between atoms: C_5  and  N_6 
ROOT
HETATM    1  C   UNL     1      64.791   8.111   4.652  1.00  0.00     0.030 A 
HETATM    2  C   UNL     1      64.115   7.362   3.680  1.00  0.00     0.031 A 
HETATM    3  C   UNL     1      64.109   9.225   5.163  1.00  0.00     0.031 A 
HETATM    4  C   UNL     1      62.192   8.847   3.722  1.00  0.00     0.025 A 
HETATM    5  C   UNL     1      62.828   7.707   3.241  1.00  0.00     0.031 A 
HETATM    6  C   UNL     1      62.825   9.576   4.724  1.00  0.00     0.031 A 
ENDROOT
BRANCH   1   7
HETATM    7  N   UNL     1      66.055   7.773   5.098  1.00  0.00    -0.381 N 
HETATM    8  C   UNL     1      66.945   6.900   4.335  1.00  0.00     0.123 C 
HETATM    9  C   UNL     1      67.241   5.629   5.127  1.00  0.00     0.020 C 
HETATM   10  C   UNL     1      67.763   5.959   6.525  1.00  0.00     0.003 C 
HETATM   11  C   UNL     1      66.806   6.899   7.255  1.00  0.00     0.020 C 
HETATM   12  C   UNL     1      66.514   8.156   6.434  1.00  0.00     0.123 C 
ENDBRANCH   1   7
BRANCH   4  13
HETATM   13  N   UNL     1      60.861   9.116   3.383  1.00  0.00    -0.399 N 
HETATM   14  H   UNL     1      60.630   9.372   2.461  1.00  0.00     0.156 HD
HETATM   15  H   UNL     1      60.156   9.048   4.066  1.00  0.00     0.156 HD
ENDBRANCH   4  13
TORSDOF 2
ENDMDL
MODEL 8
REMARK VINA RESULT:      -4.1      2.873      4.395
REMARK  2 active torsions:
REMARK  status: ('A' for Active; 'I' for Inactive)
REMARK    1  A    between atoms: N_1  and  C_2 
REMARK    2  A    between atoms: C_5  and  N_6 
ROOT
HETATM    1  C   UNL     1      61.754   7.571   4.417  1.00  0.00     0.030 A 
HETATM    2  C   UNL     1      60.546   6.945   4.083  1.00  0.00     0.031 A 
HETATM    3  C   UNL     1      62.371   7.140   5.601  1.00  0.00     0.031 A 
HETATM    4  C   UNL     1      60.582   5.573   6.089  1.00  0.00     0.025 A 
HETATM    5  C   UNL     1      59.982   5.945   4.889  1.00  0.00     0.031 A 
HETATM    6  C   UNL     1      61.808   6.145   6.413  1.00  0.00     0.031 A 
ENDROOT
BRANCH   1   7
HETATM    7  N   UNL     1      62.323   8.549   3.623  1.00  0.00    -0.381 N 
HETATM    8  C   UNL     1      62.661   9.875   4.140  1.00  0.00     0.123 C 
HETATM    9  C   UNL     1      61.847  10.944   3.416  1.00  0.00     0.020 C 
HETATM   10  C   UNL     1      62.001  10.823   1.900  1.00  0.00     0.003 C 
HETATM   11  C   UNL     1      61.667   9.409   1.430  1.00  0.00     0.020 C 
HETATM   12  C   UNL     1      62.484   8.356   2.181  1.00  0.00     0.123 C 
ENDBRANCH   1   7
BRANCH   4  13
HETATM   13  N   UNL     1      60.090   4.488   6.823  1.00  0.00    -0.399 N 
HETATM   14  H   UNL     1      60.667   3.708   6.995  1.00  0.00     0.156 HD
HETATM   15  H   UNL     1      59.169   4.504   7.167  1.00  0.00     0.156 HD
ENDBRANCH   4  13
TORSDOF 2
ENDMDL
MODEL 9
REMARK VINA RESULT:      -3.8      3.472      4.802
REMARK  2 active torsions:
REMARK  status: ('A' for Active; 'I' for Inactive)
REMARK    1  A    between atoms: N_1  and  C_2 
REMARK    2  A    between atoms: C_5  and  N_6 
ROOT
HETATM    1  C   UNL     1      59.734   7.194   3.913  1.00  0.00     0.030 A 
HETATM    2  C   UNL     1      59.874   6.371   5.039  1.00  0.00     0.031 A 
HETATM    3  C   UNL     1      58.433   7.627   3.619  1.00  0.00     0.031 A 
HETATM    4  C   UNL     1      57.485   6.395   5.484  1.00  0.00     0.025 A 
HETATM    5  C   UNL     1      58.775   5.999   5.826  1.00  0.00     0.031 A 
HETATM    6  C   UNL     1      57.330   7.253   4.400  1.00  0.00     0.031 A 
ENDROOT
BRANCH   1   7
HETATM    7  N   UNL     1      60.813   7.574   3.138  1.00  0.00    -0.381 N 
HETATM    8  C   UNL     1      61.866   8.455   3.642  1.00  0.00     0.123 C 
HETATM    9  C   UNL     1      61.900   9.750   2.834  1.00  0.00     0.020 C 
HETATM   10  C   UNL     1      62.011   9.462   1.337  1.00  0.00     0.003 C 
HETATM   11  C   UNL     1      60.906   8.513   0.881  1.00  0.00     0.020 C 
HETATM   12  C   UNL     1      60.882   7.231   1.717  1.00  0.00     0.123 C 
ENDBRANCH   1   7
BRANCH   4  13
HETATM   13  N   UNL     1      56.410   6.134   6.341  1.00  0.00    -0.399 N 
HETATM   14  H   UNL     1      55.530   5.896   5.968  1.00  0.00     0.156 HD
HETATM   15  H   UNL     1      56.533   6.189   7.315  1.00  0.00     0.156 HD
ENDBRANCH   4  13
TORSDOF 2
ENDMDL
