MODEL 1
REMARK VINA RESULT:      -5.5      0.000      0.000
REMARK  3 active torsions:
REMARK  status: ('A' for Active; 'I' for Inactive)
REMARK    1  A    between atoms: C_1  and  C_4 
REMARK       I    between atoms: C_4  and  N_7 
REMARK    2  A    between atoms: N_7  and  C_12 
REMARK    3  A    between atoms: N_7  and  C_13 
ROOT
HETATM    1  C   UNL     1      62.797   8.705   4.813  1.00  0.00     0.107 A 
HETATM    2  N   UNL     1      62.491   8.082   3.611  1.00  0.00    -0.355 N 
HETATM    3  C   UNL     1      62.558  10.067   4.595  1.00  0.00    -0.022 A 
HETATM    4  C   UNL     1      62.114  10.225   3.228  1.00  0.00    -0.032 A 
HETATM    5  C   UNL     1      62.053   8.971   2.669  1.00  0.00     0.012 A 
HETATM    6  C   UNL     1      62.748  11.257   5.465  1.00  0.00     0.051 C 
HETATM    7  C   UNL     1      61.807  11.502   2.521  1.00  0.00     0.050 C 
HETATM    8  C   UNL     1      61.651   8.554   1.301  1.00  0.00     0.068 C 
HETATM    9  H   UNL     1      62.580   7.114   3.455  1.00  0.00     0.166 HD
ENDROOT
BRANCH   1  10
HETATM   10  C   UNL     1      63.356   7.834   5.856  1.00  0.00     0.270 C 
HETATM   11  N   UNL     1      64.662   7.318   5.834  1.00  0.00    -0.347 N 
HETATM   12  O   UNL     1      62.643   7.594   6.839  1.00  0.00    -0.266 OA
BRANCH  11  13
HETATM   13  C   UNL     1      65.059   6.443   6.956  1.00  0.00     0.121 C 
HETATM   14  C   UNL     1      66.299   6.934   7.691  1.00  0.00     0.026 C 
ENDBRANCH  11  13
BRANCH  11  15
HETATM   15  C   UNL     1      65.732   7.753   4.947  1.00  0.00     0.121 C 
HETATM   16  C   UNL     1      66.142   6.656   3.970  1.00  0.00     0.026 C 
ENDBRANCH  11  15
ENDBRANCH   1  10
TORSDOF 3
ENDMDL
MODEL 2
REMARK VINA RESULT:      -5.4      1.198      2.140
REMARK  3 active torsions:
REMARK  status: ('A' for Active; 'I' for Inactive)
REMARK    1  A    between atoms: C_1  and  C_4 
REMARK       I    between atoms: C_4  and  N_7 
REMARK    2  A    between atoms: N_7  and  C_12 
REMARK    3  A    between atoms: N_7  and  C_13 
ROOT
HETATM    1  C   UNL     1      63.479   8.380   4.946  1.00  0.00     0.107 A 
HETATM    2  N   UNL     1      63.055   9.655   5.293  1.00  0.00    -0.355 N 
HETATM    3  C   UNL     1      63.147   8.236   3.593  1.00  0.00    -0.022 A 
HETATM    4  C   UNL     1      62.507   9.458   3.162  1.00  0.00    -0.032 A 
HETATM    5  C   UNL     1      62.503  10.319   4.233  1.00  0.00     0.012 A 
HETATM    6  C   UNL     1      63.284   7.090   2.657  1.00  0.00     0.051 C 
HETATM    7  C   UNL     1      61.919   9.744   1.821  1.00  0.00     0.050 C 
HETATM    8  C   UNL     1      61.982  11.706   4.341  1.00  0.00     0.068 C 
HETATM    9  H   UNL     1      63.140  10.036   6.197  1.00  0.00     0.166 HD
ENDROOT
BRANCH   1  10
HETATM   10  C   UNL     1      64.009   7.564   6.046  1.00  0.00     0.270 C 
HETATM   11  N   UNL     1      65.358   7.193   6.173  1.00  0.00    -0.347 N 
HETATM   12  O   UNL     1      63.221   7.240   6.944  1.00  0.00    -0.266 OA
BRANCH  11  13
HETATM   13  C   UNL     1      65.719   6.355   7.334  1.00  0.00     0.121 C 
HETATM   14  C   UNL     1      66.866   6.930   8.155  1.00  0.00     0.026 C 
ENDBRANCH  11  13
BRANCH  11  15
HETATM   15  C   UNL     1      66.466   7.750   5.410  1.00  0.00     0.121 C 
HETATM   16  C   UNL     1      66.873   6.841   4.253  1.00  0.00     0.026 C 
ENDBRANCH  11  15
ENDBRANCH   1  10
TORSDOF 3
ENDMDL
MODEL 3
REMARK VINA RESULT:      -5.1      1.926      3.145
REMARK  3 active torsions:
REMARK  status: ('A' for Active; 'I' for Inactive)
REMARK    1  A    between atoms: C_1  and  C_4 
REMARK       I    between atoms: C_4  and  N_7 
REMARK    2  A    between atoms: N_7  and  C_12 
REMARK    3  A    between atoms: N_7  and  C_13 
ROOT
HETATM    1  C   UNL     1      64.916   8.291   5.230  1.00  0.00     0.107 A 
HETATM    2  N   UNL     1      64.294   9.479   5.590  1.00  0.00    -0.355 N 
HETATM    3  C   UNL     1      64.219   7.834   4.105  1.00  0.00    -0.022 A 
HETATM    4  C   UNL     1      63.164   8.783   3.823  1.00  0.00    -0.032 A 
HETATM    5  C   UNL     1      63.270   9.799   4.742  1.00  0.00     0.012 A 
HETATM    6  C   UNL     1      64.355   6.600   3.289  1.00  0.00     0.051 C 
HETATM    7  C   UNL     1      62.121   8.682   2.761  1.00  0.00     0.050 C 
HETATM    8  C   UNL     1      62.452  11.029   4.904  1.00  0.00     0.068 C 
HETATM    9  H   UNL     1      64.558  10.025   6.364  1.00  0.00     0.166 HD
ENDROOT
BRANCH   1  10
HETATM   10  C   UNL     1      65.974   7.828   6.137  1.00  0.00     0.270 C 
HETATM   11  N   UNL     1      65.868   6.692   6.956  1.00  0.00    -0.347 N 
HETATM   12  O   UNL     1      67.044   8.451   6.128  1.00  0.00    -0.266 OA
BRANCH  11  13
HETATM   13  C   UNL     1      67.022   6.377   7.822  1.00  0.00     0.121 C 
HETATM   14  C   UNL     1      66.722   6.546   9.306  1.00  0.00     0.026 C 
ENDBRANCH  11  13
BRANCH  11  15
HETATM   15  C   UNL     1      64.838   5.668   6.856  1.00  0.00     0.121 C 
HETATM   16  C   UNL     1      65.426   4.301   6.517  1.00  0.00     0.026 C 
ENDBRANCH  11  15
ENDBRANCH   1  10
TORSDOF 3
ENDMDL
MODEL 4
REMARK VINA RESULT:      -5.0      1.553      5.289
REMARK  3 active torsions:
REMARK  status: ('A' for Active; 'I' for Inactive)
REMARK    1  A    between atoms: C_1  and  C_4 
REMARK       I    between atoms: C_4  and  N_7 
REMARK    2  A    between atoms: N_7  and  C_12 
REMARK    3  A    between atoms: N_7  and  C_13 
ROOT
HETATM    1  C   UNL     1      63.779   8.606   5.622  1.00  0.00     0.107 A 
HETATM    2  N   UNL     1      65.166   8.627   5.566  1.00  0.00    -0.355 N 
HETATM    3  C   UNL     1      63.447   7.323   6.071  1.00  0.00    -0.022 A 
HETATM    4  C   UNL     1      64.678   6.590   6.267  1.00  0.00    -0.032 A 
HETATM    5  C   UNL     1      65.715   7.444   5.978  1.00  0.00     0.012 A 
HETATM    6  C   UNL     1      62.135   6.656   6.284  1.00  0.00     0.051 C 
HETATM    7  C   UNL     1      64.823   5.161   6.672  1.00  0.00     0.050 C 
HETATM    8  C   UNL     1      67.182   7.215   6.022  1.00  0.00     0.068 C 
HETATM    9  H   UNL     1      65.693   9.403   5.265  1.00  0.00     0.166 HD
ENDROOT
BRANCH   1  10
HETATM   10  C   UNL     1      63.105   9.809   5.117  1.00  0.00     0.270 C 
HETATM   11  N   UNL     1      62.483   9.895   3.860  1.00  0.00    -0.347 N 
HETATM   12  O   UNL     1      63.034  10.783   5.878  1.00  0.00    -0.266 OA
BRANCH  11  13
HETATM   13  C   UNL     1      61.865  11.187   3.502  1.00  0.00     0.121 C 
HETATM   14  C   UNL     1      61.869  11.460   2.004  1.00  0.00     0.026 C 
ENDBRANCH  11  13
BRANCH  11  15
HETATM   15  C   UNL     1      62.180   8.771   2.985  1.00  0.00     0.121 C 
HETATM   16  C   UNL     1      60.798   8.189   3.264  1.00  0.00     0.026 C 
ENDBRANCH  11  15
ENDBRANCH   1  10
TORSDOF 3
ENDMDL
MODEL 5
REMARK VINA RESULT:      -4.9      1.632      5.702
REMARK  3 active torsions:
REMARK  status: ('A' for Active; 'I' for Inactive)
REMARK    1  A    between atoms: C_1  and  C_4 
REMARK       I    between atoms: C_4  and  N_7 
REMARK    2  A    between atoms: N_7  and  C_12 
REMARK    3  A    between atoms: N_7  and  C_13 
ROOT
HETATM    1  C   UNL     1      65.069   7.634   5.616  1.00  0.00     0.107 A 
HETATM    2  N   UNL     1      65.216   7.521   6.992  1.00  0.00    -0.355 N 
HETATM    3  C   UNL     1      65.915   6.659   5.073  1.00  0.00    -0.022 A 
HETATM    4  C   UNL     1      66.569   5.980   6.170  1.00  0.00    -0.032 A 
HETATM    5  C   UNL     1      66.081   6.520   7.336  1.00  0.00     0.012 A 
HETATM    6  C   UNL     1      66.252   6.311   3.668  1.00  0.00     0.051 C 
HETATM    7  C   UNL     1      67.609   4.915   6.079  1.00  0.00     0.050 C 
HETATM    8  C   UNL     1      66.401   6.189   8.748  1.00  0.00     0.068 C 
HETATM    9  H   UNL     1      64.752   8.096   7.643  1.00  0.00     0.166 HD
ENDROOT
BRANCH   1  10
HETATM   10  C   UNL     1      64.221   8.741   5.156  1.00  0.00     0.270 C 
HETATM   11  N   UNL     1      63.156   8.594   4.251  1.00  0.00    -0.347 N 
HETATM   12  O   UNL     1      64.427   9.858   5.647  1.00  0.00    -0.266 OA
BRANCH  11  13
HETATM   13  C   UNL     1      62.414   9.815   3.880  1.00  0.00     0.121 C 
HETATM   14  C   UNL     1      62.010   9.850   2.412  1.00  0.00     0.026 C 
ENDBRANCH  11  13
BRANCH  11  15
HETATM   15  C   UNL     1      62.566   7.330   3.834  1.00  0.00     0.121 C 
HETATM   16  C   UNL     1      61.492   6.855   4.808  1.00  0.00     0.026 C 
ENDBRANCH  11  15
ENDBRANCH   1  10
TORSDOF 3
ENDMDL
MODEL 6
REMARK VINA RESULT:      -4.6      1.650      5.071
REMARK  3 active torsions:
REMARK  status: ('A' for Active; 'I' for Inactive)
REMARK    1  A    between atoms: C_1  and  C_4 
REMARK       I    between atoms: C_4  and  N_7 
REMARK    2  A    between atoms: N_7  and  C_12 
REMARK    3  A    between atoms: N_7  and  C_13 
ROOT
HETATM    1  C   UNL     1      63.295   8.279   5.397  1.00  0.00     0.107 A 
HETATM    2  N   UNL     1      62.258   7.415   5.720  1.00  0.00    -0.355 N 
HETATM    3  C   UNL     1      64.469   7.568   5.674  1.00  0.00    -0.022 A 
HETATM    4  C   UNL     1      64.089   6.267   6.178  1.00  0.00    -0.032 A 
HETATM    5  C   UNL     1      62.717   6.203   6.157  1.00  0.00     0.012 A 
HETATM    6  C   UNL     1      65.902   7.954   5.596  1.00  0.00     0.051 C 
HETATM    7  C   UNL     1      64.997   5.191   6.671  1.00  0.00     0.050 C 
HETATM    8  C   UNL     1      61.806   5.099   6.554  1.00  0.00     0.068 C 
HETATM    9  H   UNL     1      61.305   7.647   5.645  1.00  0.00     0.166 HD
ENDROOT
BRANCH   1  10
HETATM   10  C   UNL     1      62.892   9.634   4.999  1.00  0.00     0.270 C 
HETATM   11  N   UNL     1      62.218   9.936   3.804  1.00  0.00    -0.347 N 
HETATM   12  O   UNL     1      63.111  10.552   5.800  1.00  0.00    -0.266 OA
BRANCH  11  13
HETATM   13  C   UNL     1      61.901  11.355   3.550  1.00  0.00     0.121 C 
HETATM   14  C   UNL     1      61.784  11.688   2.068  1.00  0.00     0.026 C 
ENDBRANCH  11  13
BRANCH  11  15
HETATM   15  C   UNL     1      61.593   8.967   2.915  1.00  0.00     0.121 C 
HETATM   16  C   UNL     1      62.622   8.230   2.063  1.00  0.00     0.026 C 
ENDBRANCH  11  15
ENDBRANCH   1  10
TORSDOF 3
ENDMDL
MODEL 7
REMARK VINA RESULT:      -4.5      1.652      2.868
REMARK  3 active torsions:
REMARK  status: ('A' for Active; 'I' for Inactive)
REMARK    1  A    between atoms: C_1  and  C_4 
REMARK       I    between atoms: C_4  and  N_7 
REMARK    2  A    between atoms: N_7  and  C_12 
REMARK    3  A    between atoms: N_7  and  C_13 
ROOT
HETATM    1  C   UNL     1      63.770   8.367   4.137  1.00  0.00     0.107 A 
HETATM    2  N   UNL     1      63.221   9.638   4.238  1.00  0.00    -0.355 N 
HETATM    3  C   UNL     1      63.242   7.829   2.957  1.00  0.00    -0.022 A 
HETATM    4  C   UNL     1      62.361   8.817   2.376  1.00  0.00    -0.032 A 
HETATM    5  C   UNL     1      62.406   9.930   3.181  1.00  0.00     0.012 A 
HETATM    6  C   UNL     1      63.393   6.493   2.324  1.00  0.00     0.051 C 
HETATM    7  C   UNL     1      61.520   8.668   1.153  1.00  0.00     0.050 C 
HETATM    8  C   UNL     1      61.705  11.234   3.047  1.00  0.00     0.068 C 
HETATM    9  H   UNL     1      63.398  10.255   4.984  1.00  0.00     0.166 HD
ENDROOT
BRANCH   1  10
HETATM   10  C   UNL     1      64.594   7.938   5.275  1.00  0.00     0.270 C 
HETATM   11  N   UNL     1      64.251   6.891   6.146  1.00  0.00    -0.347 N 
HETATM   12  O   UNL     1      65.685   8.502   5.432  1.00  0.00    -0.266 OA
BRANCH  11  13
HETATM   13  C   UNL     1      65.186   6.601   7.251  1.00  0.00     0.121 C 
HETATM   14  C   UNL     1      65.803   5.211   7.165  1.00  0.00     0.026 C 
ENDBRANCH  11  13
BRANCH  11  15
HETATM   15  C   UNL     1      63.193   5.915   5.924  1.00  0.00     0.121 C 
HETATM   16  C   UNL     1      61.830   6.447   6.356  1.00  0.00     0.026 C 
ENDBRANCH  11  15
ENDBRANCH   1  10
TORSDOF 3
ENDMDL
MODEL 8
REMARK VINA RESULT:      -4.5      1.572      2.282
REMARK  3 active torsions:
REMARK  status: ('A' for Active; 'I' for Inactive)
REMARK    1  A    between atoms: C_1  and  C_4 
REMARK       I    between atoms: C_4  and  N_7 
REMARK    2  A    between atoms: N_7  and  C_12 
REMARK    3  A    between atoms: N_7  and  C_13 
ROOT
HETATM    1  C   UNL     1      63.344   8.420   4.159  1.00  0.00     0.107 A 
HETATM    2  N   UNL     1      63.116   7.960   2.869  1.00  0.00    -0.355 N 
HETATM    3  C   UNL     1      62.810   9.714   4.189  1.00  0.00    -0.022 A 
HETATM    4  C   UNL     1      62.273  10.002   2.878  1.00  0.00    -0.032 A 
HETATM    5  C   UNL     1      62.452   8.879   2.106  1.00  0.00     0.012 A 
HETATM    6  C   UNL     1      62.786  10.751   5.254  1.00  0.00     0.051 C 
HETATM    7  C   UNL     1      61.666  11.283   2.413  1.00  0.00     0.050 C 
HETATM    8  C   UNL     1      62.078   8.624   0.691  1.00  0.00     0.068 C 
HETATM    9  H   UNL     1      63.400   7.076   2.543  1.00  0.00     0.166 HD
ENDROOT
BRANCH   1  10
HETATM   10  C   UNL     1      64.127   7.528   5.024  1.00  0.00     0.270 C 
HETATM   11  N   UNL     1      63.589   6.427   5.713  1.00  0.00    -0.347 N 
HETATM   12  O   UNL     1      65.346   7.730   5.096  1.00  0.00    -0.266 OA
BRANCH  11  13
HETATM   13  C   UNL     1      64.515   5.643   6.553  1.00  0.00     0.121 C 
HETATM   14  C   UNL     1      64.471   4.148   6.261  1.00  0.00     0.026 C 
ENDBRANCH  11  13
BRANCH  11  15
HETATM   15  C   UNL     1      62.272   5.848   5.489  1.00  0.00     0.121 C 
HETATM   16  C   UNL     1      61.265   6.301   6.542  1.00  0.00     0.026 C 
ENDBRANCH  11  15
ENDBRANCH   1  10
TORSDOF 3
ENDMDL
MODEL 9
REMARK VINA RESULT:      -4.4      2.984      4.450
REMARK  3 active torsions:
REMARK  status: ('A' for Active; 'I' for Inactive)
REMARK    1  A    between atoms: C_1  and  C_4 
REMARK       I    between atoms: C_4  and  N_7 
REMARK    2  A    between atoms: N_7  and  C_12 
REMARK    3  A    between atoms: N_7  and  C_13 
ROOT
HETATM    1  C   UNL     1      61.957   8.162   3.370  1.00  0.00     0.107 A 
HETATM    2  N   UNL     1      62.226   8.959   4.475  1.00  0.00    -0.355 N 
HETATM    3  C   UNL     1      61.794   9.053   2.302  1.00  0.00    -0.022 A 
HETATM    4  C   UNL     1      61.965  10.394   2.816  1.00  0.00    -0.032 A 
HETATM    5  C   UNL     1      62.264  10.287   4.152  1.00  0.00     0.012 A 
HETATM    6  C   UNL     1      61.437   8.835   0.876  1.00  0.00     0.051 C 
HETATM    7  C   UNL     1      61.813  11.673   2.063  1.00  0.00     0.050 C 
HETATM    8  C   UNL     1      62.545  11.346   5.156  1.00  0.00     0.068 C 
HETATM    9  H   UNL     1      62.370   8.608   5.383  1.00  0.00     0.166 HD
ENDROOT
BRANCH   1  10
HETATM   10  C   UNL     1      61.814   6.725   3.642  1.00  0.00     0.270 C 
HETATM   11  N   UNL     1      60.649   6.133   4.157  1.00  0.00    -0.347 N 
HETATM   12  O   UNL     1      62.765   5.992   3.340  1.00  0.00    -0.266 OA
BRANCH  11  13
HETATM   13  C   UNL     1      60.680   4.675   4.387  1.00  0.00     0.121 C 
HETATM   14  C   UNL     1      59.654   4.207   5.411  1.00  0.00     0.026 C 
ENDBRANCH  11  13
BRANCH  11  15
HETATM   15  C   UNL     1      59.345   6.774   4.256  1.00  0.00     0.121 C 
HETATM   16  C   UNL     1      58.642   6.845   2.904  1.00  0.00     0.026 C 
ENDBRANCH  11  15
ENDBRANCH   1  10
TORSDOF 3
ENDMDL
