MODEL 1
REMARK VINA RESULT:      -4.5      0.000      0.000
REMARK  2 active torsions:
REMARK  status: ('A' for Active; 'I' for Inactive)
REMARK    1  A    between atoms: C_1  and  N_4 
REMARK    2  A    between atoms: C_2  and  N_5 
ROOT
HETATM    1  C   UNL     1      62.306  10.453   3.969  1.00  0.00     0.058 A 
HETATM    2  C   UNL     1      62.749   9.179   4.419  1.00  0.00     0.052 A 
HETATM    3  C   UNL     1      61.983  10.626   2.604  1.00  0.00    -0.034 A 
HETATM    4  C   UNL     1      62.380   8.259   2.200  1.00  0.00     0.003 A 
HETATM    5  C   UNL     1      62.801   8.107   3.518  1.00  0.00     0.031 A 
HETATM    6  C   UNL     1      61.978   9.511   1.748  1.00  0.00     0.009 A 
HETATM    7  C   UNL     1      61.658  11.959   1.982  1.00  0.00     0.050 C 
ENDROOT
BRANCH   1   8
HETATM    8  N   UNL     1      62.389  11.571   4.833  1.00  0.00    -0.397 N 
HETATM    9  H   UNL     1      62.525  12.472   4.461  1.00  0.00     0.156 HD
HETATM   10  H   UNL     1      62.310  11.447   5.807  1.00  0.00     0.156 HD
ENDBRANCH   1   8
BRANCH   2  11
HETATM   11  N   UNL     1      63.340   9.006   5.686  1.00  0.00    -0.397 N 
HETATM   12  H   UNL     1      62.784   8.757   6.459  1.00  0.00     0.156 HD
HETATM   13  H   UNL     1      64.310   9.134   5.798  1.00  0.00     0.156 HD
ENDBRANCH   2  11
TORSDOF 2
ENDMDL
MODEL 2
REMARK VINA RESULT:      -4.5      1.200      2.953
REMARK  2 active torsions:
REMARK  status: ('A' for Active; 'I' for Inactive)
REMARK    1  A    between atoms: C_1  and  N_4 
REMARK    2  A    between atoms: C_2  and  N_5 
ROOT
HETATM    1  C   UNL     1      63.590   9.396   4.908  1.00  0.00     0.058 A 
HETATM    2  C   UNL     1      63.057  10.685   5.186  1.00  0.00     0.052 A 
HETATM    3  C   UNL     1      63.157   8.708   3.752  1.00  0.00    -0.034 A 
HETATM    4  C   UNL     1      61.820  10.634   3.095  1.00  0.00     0.003 A 
HETATM    5  C   UNL     1      62.161  11.272   4.284  1.00  0.00     0.031 A 
HETATM    6  C   UNL     1      62.313   9.359   2.835  1.00  0.00     0.009 A 
HETATM    7  C   UNL     1      63.525   7.281   3.438  1.00  0.00     0.050 C 
ENDROOT
BRANCH   1   8
HETATM    8  N   UNL     1      64.379   8.737   5.880  1.00  0.00    -0.397 N 
HETATM    9  H   UNL     1      64.513   7.764   5.828  1.00  0.00     0.156 HD
HETATM   10  H   UNL     1      64.793   9.253   6.609  1.00  0.00     0.156 HD
ENDBRANCH   1   8
BRANCH   2  11
HETATM   11  N   UNL     1      63.232  11.303   6.441  1.00  0.00    -0.397 N 
HETATM   12  H   UNL     1      63.001  10.817   7.265  1.00  0.00     0.156 HD
HETATM   13  H   UNL     1      63.585  12.221   6.491  1.00  0.00     0.156 HD
ENDBRANCH   2  11
TORSDOF 2
ENDMDL
MODEL 3
REMARK VINA RESULT:      -4.4      1.269      2.187
REMARK  2 active torsions:
REMARK  status: ('A' for Active; 'I' for Inactive)
REMARK    1  A    between atoms: C_1  and  N_4 
REMARK    2  A    between atoms: C_2  and  N_5 
ROOT
HETATM    1  C   UNL     1      62.038  10.305   3.011  1.00  0.00     0.058 A 
HETATM    2  C   UNL     1      62.494  10.392   4.354  1.00  0.00     0.052 A 
HETATM    3  C   UNL     1      62.311   9.135   2.266  1.00  0.00    -0.034 A 
HETATM    4  C   UNL     1      63.324   8.111   4.228  1.00  0.00     0.003 A 
HETATM    5  C   UNL     1      63.152   9.299   4.933  1.00  0.00     0.031 A 
HETATM    6  C   UNL     1      62.909   8.034   2.903  1.00  0.00     0.009 A 
HETATM    7  C   UNL     1      62.020   8.991   0.795  1.00  0.00     0.050 C 
ENDROOT
BRANCH   1   8
HETATM    8  N   UNL     1      61.504  11.451   2.375  1.00  0.00    -0.397 N 
HETATM    9  H   UNL     1      61.547  11.535   1.395  1.00  0.00     0.156 HD
HETATM   10  H   UNL     1      61.091  12.165   2.913  1.00  0.00     0.156 HD
ENDBRANCH   1   8
BRANCH   2  11
HETATM   11  N   UNL     1      62.499  11.614   5.057  1.00  0.00    -0.397 N 
HETATM   12  H   UNL     1      62.282  11.630   6.017  1.00  0.00     0.156 HD
HETATM   13  H   UNL     1      62.719  12.450   4.587  1.00  0.00     0.156 HD
ENDBRANCH   2  11
TORSDOF 2
ENDMDL
MODEL 4
REMARK VINA RESULT:      -4.3      1.206      2.608
REMARK  2 active torsions:
REMARK  status: ('A' for Active; 'I' for Inactive)
REMARK    1  A    between atoms: C_1  and  N_4 
REMARK    2  A    between atoms: C_2  and  N_5 
ROOT
HETATM    1  C   UNL     1      62.819   8.797   3.189  1.00  0.00     0.058 A 
HETATM    2  C   UNL     1      62.772   9.601   4.361  1.00  0.00     0.052 A 
HETATM    3  C   UNL     1      62.288   9.307   1.983  1.00  0.00    -0.034 A 
HETATM    4  C   UNL     1      61.830  11.435   3.073  1.00  0.00     0.003 A 
HETATM    5  C   UNL     1      62.254  10.901   4.287  1.00  0.00     0.031 A 
HETATM    6  C   UNL     1      61.844  10.640   1.932  1.00  0.00     0.009 A 
HETATM    7  C   UNL     1      62.137   8.495   0.723  1.00  0.00     0.050 C 
ENDROOT
BRANCH   1   8
HETATM    8  N   UNL     1      63.204   7.439   3.285  1.00  0.00    -0.397 N 
HETATM    9  H   UNL     1      63.540   7.082   4.138  1.00  0.00     0.156 HD
HETATM   10  H   UNL     1      63.136   6.852   2.497  1.00  0.00     0.156 HD
ENDBRANCH   1   8
BRANCH   2  11
HETATM   11  N   UNL     1      63.029   9.064   5.638  1.00  0.00    -0.397 N 
HETATM   12  H   UNL     1      63.886   8.616   5.820  1.00  0.00     0.156 HD
HETATM   13  H   UNL     1      62.350   9.138   6.348  1.00  0.00     0.156 HD
ENDBRANCH   2  11
TORSDOF 2
ENDMDL
MODEL 5
REMARK VINA RESULT:      -4.1      2.008      3.613
REMARK  2 active torsions:
REMARK  status: ('A' for Active; 'I' for Inactive)
REMARK    1  A    between atoms: C_1  and  N_4 
REMARK    2  A    between atoms: C_2  and  N_5 
ROOT
HETATM    1  C   UNL     1      62.288   9.447   2.532  1.00  0.00     0.058 A 
HETATM    2  C   UNL     1      61.955  10.746   3.003  1.00  0.00     0.052 A 
HETATM    3  C   UNL     1      62.984   8.563   3.387  1.00  0.00    -0.034 A 
HETATM    4  C   UNL     1      62.860  10.193   5.190  1.00  0.00     0.003 A 
HETATM    5  C   UNL     1      62.269  11.106   4.320  1.00  0.00     0.031 A 
HETATM    6  C   UNL     1      63.218   8.933   4.723  1.00  0.00     0.009 A 
HETATM    7  C   UNL     1      63.529   7.228   2.949  1.00  0.00     0.050 C 
ENDROOT
BRANCH   1   8
HETATM    8  N   UNL     1      62.106   9.127   1.166  1.00  0.00    -0.397 N 
HETATM    9  H   UNL     1      61.413   8.480   0.900  1.00  0.00     0.156 HD
HETATM   10  H   UNL     1      62.673   9.551   0.481  1.00  0.00     0.156 HD
ENDBRANCH   1   8
BRANCH   2  11
HETATM   11  N   UNL     1      61.512  11.759   2.130  1.00  0.00    -0.397 N 
HETATM   12  H   UNL     1      61.567  11.628   1.156  1.00  0.00     0.156 HD
HETATM   13  H   UNL     1      61.149  12.599   2.494  1.00  0.00     0.156 HD
ENDBRANCH   2  11
TORSDOF 2
ENDMDL
MODEL 6
REMARK VINA RESULT:      -3.7      2.048      2.616
REMARK  2 active torsions:
REMARK  status: ('A' for Active; 'I' for Inactive)
REMARK    1  A    between atoms: C_1  and  N_4 
REMARK    2  A    between atoms: C_2  and  N_5 
ROOT
HETATM    1  C   UNL     1      62.264   9.420   2.221  1.00  0.00     0.058 A 
HETATM    2  C   UNL     1      62.576   8.336   3.087  1.00  0.00     0.052 A 
HETATM    3  C   UNL     1      62.057  10.703   2.773  1.00  0.00    -0.034 A 
HETATM    4  C   UNL     1      62.627   9.856   4.982  1.00  0.00     0.003 A 
HETATM    5  C   UNL     1      62.729   8.570   4.460  1.00  0.00     0.031 A 
HETATM    6  C   UNL     1      62.290  10.913   4.143  1.00  0.00     0.009 A 
HETATM    7  C   UNL     1      61.567  11.888   1.981  1.00  0.00     0.050 C 
ENDROOT
BRANCH   1   8
HETATM    8  N   UNL     1      61.966   9.168   0.861  1.00  0.00    -0.397 N 
HETATM    9  H   UNL     1      62.662   9.284   0.175  1.00  0.00     0.156 HD
HETATM   10  H   UNL     1      61.061   8.878   0.600  1.00  0.00     0.156 HD
ENDBRANCH   1   8
BRANCH   2  11
HETATM   11  N   UNL     1      62.526   6.998   2.646  1.00  0.00    -0.397 N 
HETATM   12  H   UNL     1      61.663   6.528   2.597  1.00  0.00     0.156 HD
HETATM   13  H   UNL     1      63.356   6.534   2.389  1.00  0.00     0.156 HD
ENDBRANCH   2  11
TORSDOF 2
ENDMDL
MODEL 7
REMARK VINA RESULT:      -3.6      1.268      3.033
REMARK  2 active torsions:
REMARK  status: ('A' for Active; 'I' for Inactive)
REMARK    1  A    between atoms: C_1  and  N_4 
REMARK    2  A    between atoms: C_2  and  N_5 
ROOT
HETATM    1  C   UNL     1      62.995   9.554   4.489  1.00  0.00     0.058 A 
HETATM    2  C   UNL     1      62.309  10.027   3.337  1.00  0.00     0.052 A 
HETATM    3  C   UNL     1      63.450   8.217   4.518  1.00  0.00    -0.034 A 
HETATM    4  C   UNL     1      62.690   7.899   2.228  1.00  0.00     0.003 A 
HETATM    5  C   UNL     1      62.147   9.180   2.233  1.00  0.00     0.031 A 
HETATM    6  C   UNL     1      63.333   7.421   3.365  1.00  0.00     0.009 A 
HETATM    7  C   UNL     1      64.044   7.559   5.737  1.00  0.00     0.050 C 
ENDROOT
BRANCH   1   8
HETATM    8  N   UNL     1      63.036  10.350   5.658  1.00  0.00    -0.397 N 
HETATM    9  H   UNL     1      63.387  11.268   5.616  1.00  0.00     0.156 HD
HETATM   10  H   UNL     1      62.713   9.985   6.514  1.00  0.00     0.156 HD
ENDBRANCH   1   8
BRANCH   2  11
HETATM   11  N   UNL     1      61.599  11.244   3.346  1.00  0.00    -0.397 N 
HETATM   12  H   UNL     1      62.060  12.081   3.581  1.00  0.00     0.156 HD
HETATM   13  H   UNL     1      60.641  11.256   3.117  1.00  0.00     0.156 HD
ENDBRANCH   2  11
TORSDOF 2
ENDMDL
MODEL 8
REMARK VINA RESULT:      -3.5      1.969      3.514
REMARK  2 active torsions:
REMARK  status: ('A' for Active; 'I' for Inactive)
REMARK    1  A    between atoms: C_1  and  N_4 
REMARK    2  A    between atoms: C_2  and  N_5 
ROOT
HETATM    1  C   UNL     1      61.529   9.173   3.045  1.00  0.00     0.058 A 
HETATM    2  C   UNL     1      61.885  10.463   3.525  1.00  0.00     0.052 A 
HETATM    3  C   UNL     1      62.092   8.031   3.659  1.00  0.00    -0.034 A 
HETATM    4  C   UNL     1      63.205   9.448   5.295  1.00  0.00     0.003 A 
HETATM    5  C   UNL     1      62.739  10.578   4.630  1.00  0.00     0.031 A 
HETATM    6  C   UNL     1      62.886   8.185   4.809  1.00  0.00     0.009 A 
HETATM    7  C   UNL     1      61.916   6.627   3.140  1.00  0.00     0.050 C 
ENDROOT
BRANCH   1   8
HETATM    8  N   UNL     1      60.788   9.050   1.846  1.00  0.00    -0.397 N 
HETATM    9  H   UNL     1      61.229   8.734   1.025  1.00  0.00     0.156 HD
HETATM   10  H   UNL     1      59.831   9.281   1.833  1.00  0.00     0.156 HD
ENDBRANCH   1   8
BRANCH   2  11
HETATM   11  N   UNL     1      61.583  11.632   2.799  1.00  0.00    -0.397 N 
HETATM   12  H   UNL     1      60.922  11.602   2.070  1.00  0.00     0.156 HD
HETATM   13  H   UNL     1      62.034  12.479   3.021  1.00  0.00     0.156 HD
ENDBRANCH   2  11
TORSDOF 2
ENDMDL
MODEL 9
REMARK VINA RESULT:      -3.3     12.557     13.502
REMARK  2 active torsions:
REMARK  status: ('A' for Active; 'I' for Inactive)
REMARK    1  A    between atoms: C_1  and  N_4 
REMARK    2  A    between atoms: C_2  and  N_5 
ROOT
HETATM    1  C   UNL     1      58.065   1.729  13.697  1.00  0.00     0.058 A 
HETATM    2  C   UNL     1      56.791   2.288  13.407  1.00  0.00     0.052 A 
HETATM    3  C   UNL     1      58.940   1.421  12.631  1.00  0.00    -0.034 A 
HETATM    4  C   UNL     1      57.356   2.369  11.045  1.00  0.00     0.003 A 
HETATM    5  C   UNL     1      56.448   2.576  12.080  1.00  0.00     0.031 A 
HETATM    6  C   UNL     1      58.590   1.792  11.321  1.00  0.00     0.009 A 
HETATM    7  C   UNL     1      60.243   0.683  12.801  1.00  0.00     0.050 C 
ENDROOT
BRANCH   1   8
HETATM    8  N   UNL     1      58.362   1.301  15.013  1.00  0.00    -0.397 N 
HETATM    9  H   UNL     1      58.049   0.422  15.327  1.00  0.00     0.156 HD
HETATM   10  H   UNL     1      58.880   1.884  15.615  1.00  0.00     0.156 HD
ENDBRANCH   1   8
BRANCH   2  11
HETATM   11  N   UNL     1      55.776   2.364  14.383  1.00  0.00    -0.397 N 
HETATM   12  H   UNL     1      55.881   2.965  15.155  1.00  0.00     0.156 HD
HETATM   13  H   UNL     1      54.964   1.815  14.291  1.00  0.00     0.156 HD
ENDBRANCH   2  11
TORSDOF 2
ENDMDL
