MODEL 1
REMARK VINA RESULT:      -5.4      0.000      0.000
REMARK  3 active torsions:
REMARK  status: ('A' for Active; 'I' for Inactive)
REMARK    1  A    between atoms: C_3  and  N_8 
REMARK    2  A    between atoms: C_4  and  C_7 
REMARK    3  A    between atoms: C_11  and  O_14 
ROOT
HETATM    1  N   UNL     1      65.580   8.321   6.129  1.00  0.00    -0.336 N 
ATOM      2  HN  UNL     1      65.999   9.244   6.012  1.00  0.00     0.168 HD
HETATM    3  C   UNL     1      66.121   7.329   6.789  1.00  0.00     0.142 A 
HETATM    4  C   UNL     1      64.351   7.934   5.613  1.00  0.00     0.051 A 
HETATM    5  S   UNL     1      65.188   5.889   6.863  1.00  0.00    -0.064 SA
HETATM    6  C   UNL     1      63.976   6.642   5.920  1.00  0.00     0.083 A 
ENDROOT
BRANCH   4   7
HETATM    7  C   UNL     1      63.533   8.844   4.822  1.00  0.00    -0.009 A 
HETATM    8  C   UNL     1      63.164  10.104   5.321  1.00  0.00     0.016 A 
HETATM    9  C   UNL     1      62.379  10.966   4.558  1.00  0.00     0.037 A 
HETATM   10  C   UNL     1      61.961  10.576   3.293  1.00  0.00     0.065 A 
HETATM   11  C   UNL     1      62.314   9.334   2.774  1.00  0.00     0.037 A 
HETATM   12  C   UNL     1      63.101   8.469   3.542  1.00  0.00     0.016 A 
BRANCH  10  13
HETATM   13  O   UNL     1      61.198  11.454   2.583  1.00  0.00    -0.361 OA
HETATM   14  H   UNL     1      60.909  11.232   1.718  1.00  0.00     0.217 HD
ENDBRANCH  10  13
ENDBRANCH   4   7
BRANCH   3  15
HETATM   15  N   UNL     1      67.319   7.400   7.379  1.00  0.00    -0.380 N 
HETATM   16  H   UNL     1      68.139   7.330   6.840  1.00  0.00     0.158 HD
HETATM   17  H   UNL     1      67.380   7.522   8.355  1.00  0.00     0.158 HD
ENDBRANCH   3  15
TORSDOF 3
ENDMDL
MODEL 2
REMARK VINA RESULT:      -5.4      0.058      1.342
REMARK  3 active torsions:
REMARK  status: ('A' for Active; 'I' for Inactive)
REMARK    1  A    between atoms: C_3  and  N_8 
REMARK    2  A    between atoms: C_4  and  C_7 
REMARK    3  A    between atoms: C_11  and  O_14 
ROOT
HETATM    1  N   UNL     1      65.564   8.304   6.152  1.00  0.00    -0.336 N 
ATOM      2  HN  UNL     1      65.967   9.238   6.083  1.00  0.00     0.168 HD
HETATM    3  C   UNL     1      66.109   7.297   6.785  1.00  0.00     0.142 A 
HETATM    4  C   UNL     1      64.358   7.913   5.586  1.00  0.00     0.051 A 
HETATM    5  S   UNL     1      65.206   5.836   6.775  1.00  0.00    -0.064 SA
HETATM    6  C   UNL     1      64.003   6.602   5.831  1.00  0.00     0.083 A 
ENDROOT
BRANCH   4   7
HETATM    7  C   UNL     1      63.542   8.838   4.810  1.00  0.00    -0.009 A 
HETATM    8  C   UNL     1      63.083   8.495   3.527  1.00  0.00     0.016 A 
HETATM    9  C   UNL     1      62.306   9.388   2.791  1.00  0.00     0.037 A 
HETATM   10  C   UNL     1      61.982  10.624   3.333  1.00  0.00     0.065 A 
HETATM   11  C   UNL     1      62.423  10.987   4.602  1.00  0.00     0.037 A 
HETATM   12  C   UNL     1      63.204  10.091   5.339  1.00  0.00     0.016 A 
BRANCH  10  13
HETATM   13  O   UNL     1      61.217  11.462   2.578  1.00  0.00    -0.361 OA
HETATM   14  H   UNL     1      60.387  11.757   2.900  1.00  0.00     0.217 HD
ENDBRANCH  10  13
ENDBRANCH   4   7
BRANCH   3  15
HETATM   15  N   UNL     1      67.289   7.367   7.411  1.00  0.00    -0.380 N 
HETATM   16  H   UNL     1      67.691   6.557   7.798  1.00  0.00     0.158 HD
HETATM   17  H   UNL     1      67.756   8.231   7.483  1.00  0.00     0.158 HD
ENDBRANCH   3  15
TORSDOF 3
ENDMDL
MODEL 3
REMARK VINA RESULT:      -4.8      1.361      1.491
REMARK  3 active torsions:
REMARK  status: ('A' for Active; 'I' for Inactive)
REMARK    1  A    between atoms: C_3  and  N_8 
REMARK    2  A    between atoms: C_4  and  C_7 
REMARK    3  A    between atoms: C_11  and  O_14 
ROOT
HETATM    1  N   UNL     1      64.154   6.633   6.002  1.00  0.00    -0.336 N 
ATOM      2  HN  UNL     1      63.222   6.244   5.861  1.00  0.00     0.168 HD
HETATM    3  C   UNL     1      65.124   6.039   6.650  1.00  0.00     0.142 A 
HETATM    4  C   UNL     1      64.581   7.869   5.537  1.00  0.00     0.051 A 
HETATM    5  S   UNL     1      66.610   6.898   6.716  1.00  0.00    -0.064 SA
HETATM    6  C   UNL     1      65.894   8.174   5.830  1.00  0.00     0.083 A 
ENDROOT
BRANCH   4   7
HETATM    7  C   UNL     1      63.696   8.751   4.789  1.00  0.00    -0.009 A 
HETATM    8  C   UNL     1      63.291   9.988   5.318  1.00  0.00     0.016 A 
HETATM    9  C   UNL     1      62.442  10.824   4.596  1.00  0.00     0.037 A 
HETATM   10  C   UNL     1      61.994  10.430   3.342  1.00  0.00     0.065 A 
HETATM   11  C   UNL     1      62.380   9.210   2.795  1.00  0.00     0.037 A 
HETATM   12  C   UNL     1      63.232   8.372   3.521  1.00  0.00     0.016 A 
BRANCH  10  13
HETATM   13  O   UNL     1      61.168  11.282   2.672  1.00  0.00    -0.361 OA
HETATM   14  H   UNL     1      61.256  12.208   2.786  1.00  0.00     0.217 HD
ENDBRANCH  10  13
ENDBRANCH   4   7
BRANCH   3  15
HETATM   15  N   UNL     1      64.999   4.841   7.233  1.00  0.00    -0.380 N 
HETATM   16  H   UNL     1      64.827   4.778   8.200  1.00  0.00     0.158 HD
HETATM   17  H   UNL     1      65.079   4.021   6.693  1.00  0.00     0.158 HD
ENDBRANCH   3  15
TORSDOF 3
ENDMDL
MODEL 4
REMARK VINA RESULT:      -4.8      4.092      5.311
REMARK  3 active torsions:
REMARK  status: ('A' for Active; 'I' for Inactive)
REMARK    1  A    between atoms: C_3  and  N_8 
REMARK    2  A    between atoms: C_4  and  C_7 
REMARK    3  A    between atoms: C_11  and  O_14 
ROOT
HETATM    1  N   UNL     1      60.661   7.177   2.873  1.00  0.00    -0.336 N 
ATOM      2  HN  UNL     1      60.694   6.738   3.793  1.00  0.00     0.168 HD
HETATM    3  C   UNL     1      60.039   6.687   1.831  1.00  0.00     0.142 A 
HETATM    4  C   UNL     1      61.271   8.379   2.541  1.00  0.00     0.051 A 
HETATM    5  S   UNL     1      60.113   7.642   0.405  1.00  0.00    -0.064 SA
HETATM    6  C   UNL     1      61.071   8.788   1.239  1.00  0.00     0.083 A 
ENDROOT
BRANCH   4   7
HETATM    7  C   UNL     1      62.045   9.138   3.515  1.00  0.00    -0.009 A 
HETATM    8  C   UNL     1      61.731  10.477   3.802  1.00  0.00     0.016 A 
HETATM    9  C   UNL     1      62.480  11.195   4.732  1.00  0.00     0.037 A 
HETATM   10  C   UNL     1      63.542  10.581   5.381  1.00  0.00     0.065 A 
HETATM   11  C   UNL     1      63.872   9.255   5.115  1.00  0.00     0.037 A 
HETATM   12  C   UNL     1      63.122   8.536   4.180  1.00  0.00     0.016 A 
BRANCH  10  13
HETATM   13  O   UNL     1      64.243  11.322   6.285  1.00  0.00    -0.361 OA
HETATM   14  H   UNL     1      65.107  11.059   6.538  1.00  0.00     0.217 HD
ENDBRANCH  10  13
ENDBRANCH   4   7
BRANCH   3  15
HETATM   15  N   UNL     1      59.379   5.524   1.842  1.00  0.00    -0.380 N 
HETATM   16  H   UNL     1      58.633   5.374   1.218  1.00  0.00     0.158 HD
HETATM   17  H   UNL     1      59.641   4.816   2.475  1.00  0.00     0.158 HD
ENDBRANCH   3  15
TORSDOF 3
ENDMDL
MODEL 5
REMARK VINA RESULT:      -4.2      2.367      3.326
REMARK  3 active torsions:
REMARK  status: ('A' for Active; 'I' for Inactive)
REMARK    1  A    between atoms: C_3  and  N_8 
REMARK    2  A    between atoms: C_4  and  C_7 
REMARK    3  A    between atoms: C_11  and  O_14 
ROOT
HETATM    1  N   UNL     1      65.938   4.980   7.513  1.00  0.00    -0.336 N 
ATOM      2  HN  UNL     1      65.320   4.331   7.024  1.00  0.00     0.168 HD
HETATM    3  C   UNL     1      66.866   4.632   8.368  1.00  0.00     0.142 A 
HETATM    4  C   UNL     1      65.916   6.360   7.370  1.00  0.00     0.051 A 
HETATM    5  S   UNL     1      67.790   5.921   9.026  1.00  0.00    -0.064 SA
HETATM    6  C   UNL     1      66.862   7.033   8.116  1.00  0.00     0.083 A 
ENDROOT
BRANCH   4   7
HETATM    7  C   UNL     1      64.968   7.022   6.484  1.00  0.00    -0.009 A 
HETATM    8  C   UNL     1      65.361   8.111   5.688  1.00  0.00     0.016 A 
HETATM    9  C   UNL     1      64.446   8.740   4.846  1.00  0.00     0.037 A 
HETATM   10  C   UNL     1      63.135   8.283   4.793  1.00  0.00     0.065 A 
HETATM   11  C   UNL     1      62.721   7.206   5.570  1.00  0.00     0.037 A 
HETATM   12  C   UNL     1      63.640   6.577   6.416  1.00  0.00     0.016 A 
BRANCH  10  13
HETATM   13  O   UNL     1      62.278   8.928   3.953  1.00  0.00    -0.361 OA
HETATM   14  H   UNL     1      62.134   8.599   3.086  1.00  0.00     0.217 HD
ENDBRANCH  10  13
ENDBRANCH   4   7
BRANCH   3  15
HETATM   15  N   UNL     1      67.105   3.366   8.726  1.00  0.00    -0.380 N 
HETATM   16  H   UNL     1      67.910   2.904   8.396  1.00  0.00     0.158 HD
HETATM   17  H   UNL     1      66.477   2.896   9.320  1.00  0.00     0.158 HD
ENDBRANCH   3  15
TORSDOF 3
ENDMDL
MODEL 6
REMARK VINA RESULT:      -4.0      3.867      5.602
REMARK  3 active torsions:
REMARK  status: ('A' for Active; 'I' for Inactive)
REMARK    1  A    between atoms: C_3  and  N_8 
REMARK    2  A    between atoms: C_4  and  C_7 
REMARK    3  A    between atoms: C_11  and  O_14 
ROOT
HETATM    1  N   UNL     1      62.626   8.405   3.613  1.00  0.00    -0.336 N 
ATOM      2  HN  UNL     1      62.678   7.451   3.256  1.00  0.00     0.168 HD
HETATM    3  C   UNL     1      61.839   9.339   3.145  1.00  0.00     0.142 A 
HETATM    4  C   UNL     1      63.382   8.904   4.664  1.00  0.00     0.051 A 
HETATM    5  S   UNL     1      61.924  10.855   3.947  1.00  0.00    -0.064 SA
HETATM    6  C   UNL     1      63.125  10.221   4.987  1.00  0.00     0.083 A 
ENDROOT
BRANCH   4   7
HETATM    7  C   UNL     1      64.355   8.077   5.366  1.00  0.00    -0.009 A 
HETATM    8  C   UNL     1      63.942   7.016   6.190  1.00  0.00     0.016 A 
HETATM    9  C   UNL     1      64.880   6.233   6.860  1.00  0.00     0.037 A 
HETATM   10  C   UNL     1      66.234   6.504   6.709  1.00  0.00     0.065 A 
HETATM   11  C   UNL     1      66.669   7.548   5.899  1.00  0.00     0.037 A 
HETATM   12  C   UNL     1      65.726   8.334   5.228  1.00  0.00     0.016 A 
BRANCH  10  13
HETATM   13  O   UNL     1      67.114   5.709   7.381  1.00  0.00    -0.361 OA
HETATM   14  H   UNL     1      66.896   5.383   8.233  1.00  0.00     0.217 HD
ENDBRANCH  10  13
ENDBRANCH   4   7
BRANCH   3  15
HETATM   15  N   UNL     1      61.008   9.158   2.111  1.00  0.00    -0.380 N 
HETATM   16  H   UNL     1      61.249   8.533   1.389  1.00  0.00     0.158 HD
HETATM   17  H   UNL     1      60.156   9.649   2.074  1.00  0.00     0.158 HD
ENDBRANCH   3  15
TORSDOF 3
ENDMDL
MODEL 7
REMARK VINA RESULT:      -4.0      3.817      4.696
REMARK  3 active torsions:
REMARK  status: ('A' for Active; 'I' for Inactive)
REMARK    1  A    between atoms: C_3  and  N_8 
REMARK    2  A    between atoms: C_4  and  C_7 
REMARK    3  A    between atoms: C_11  and  O_14 
ROOT
HETATM    1  N   UNL     1      62.083   5.730   2.566  1.00  0.00    -0.336 N 
ATOM      2  HN  UNL     1      61.808   5.755   3.548  1.00  0.00     0.168 HD
HETATM    3  C   UNL     1      62.249   4.640   1.861  1.00  0.00     0.142 A 
HETATM    4  C   UNL     1      62.338   6.846   1.782  1.00  0.00     0.051 A 
HETATM    5  S   UNL     1      62.684   4.878   0.216  1.00  0.00    -0.064 SA
HETATM    6  C   UNL     1      62.674   6.569   0.473  1.00  0.00     0.083 A 
ENDROOT
BRANCH   4   7
HETATM    7  C   UNL     1      62.240   8.197   2.320  1.00  0.00    -0.009 A 
HETATM    8  C   UNL     1      61.933   9.286   1.488  1.00  0.00     0.016 A 
HETATM    9  C   UNL     1      61.845  10.575   2.011  1.00  0.00     0.037 A 
HETATM   10  C   UNL     1      62.059  10.781   3.367  1.00  0.00     0.065 A 
HETATM   11  C   UNL     1      62.363   9.719   4.213  1.00  0.00     0.037 A 
HETATM   12  C   UNL     1      62.454   8.427   3.687  1.00  0.00     0.016 A 
BRANCH  10  13
HETATM   13  O   UNL     1      61.958  12.058   3.834  1.00  0.00    -0.361 OA
HETATM   14  H   UNL     1      61.133  12.382   4.138  1.00  0.00     0.217 HD
ENDBRANCH  10  13
ENDBRANCH   4   7
BRANCH   3  15
HETATM   15  N   UNL     1      62.095   3.407   2.357  1.00  0.00    -0.380 N 
HETATM   16  H   UNL     1      62.874   2.914   2.702  1.00  0.00     0.158 HD
HETATM   17  H   UNL     1      61.202   2.993   2.377  1.00  0.00     0.158 HD
ENDBRANCH   3  15
TORSDOF 3
ENDMDL
MODEL 8
REMARK VINA RESULT:      -3.9     11.472     12.485
REMARK  3 active torsions:
REMARK  status: ('A' for Active; 'I' for Inactive)
REMARK    1  A    between atoms: C_3  and  N_8 
REMARK    2  A    between atoms: C_4  and  C_7 
REMARK    3  A    between atoms: C_11  and  O_14 
ROOT
HETATM    1  N   UNL     1      62.505  -0.467  12.808  1.00  0.00    -0.336 N 
ATOM      2  HN  UNL     1      62.569  -0.529  13.825  1.00  0.00     0.168 HD
HETATM    3  C   UNL     1      63.505  -0.633  11.982  1.00  0.00     0.142 A 
HETATM    4  C   UNL     1      61.344  -0.192  12.100  1.00  0.00     0.051 A 
HETATM    5  S   UNL     1      63.120  -0.506  10.313  1.00  0.00    -0.064 SA
HETATM    6  C   UNL     1      61.493  -0.180  10.728  1.00  0.00     0.083 A 
ENDROOT
BRANCH   4   7
HETATM    7  C   UNL     1      60.075   0.049  12.774  1.00  0.00    -0.009 A 
HETATM    8  C   UNL     1      59.765   1.314  13.303  1.00  0.00     0.016 A 
HETATM    9  C   UNL     1      58.550   1.533  13.949  1.00  0.00     0.037 A 
HETATM   10  C   UNL     1      57.639   0.493  14.069  1.00  0.00     0.065 A 
HETATM   11  C   UNL     1      57.921  -0.768  13.553  1.00  0.00     0.037 A 
HETATM   12  C   UNL     1      59.141  -0.988  12.906  1.00  0.00     0.016 A 
BRANCH  10  13
HETATM   13  O   UNL     1      56.463   0.756  14.705  1.00  0.00    -0.361 OA
HETATM   14  H   UNL     1      55.905   1.443  14.396  1.00  0.00     0.217 HD
ENDBRANCH  10  13
ENDBRANCH   4   7
BRANCH   3  15
HETATM   15  N   UNL     1      64.758  -0.888  12.378  1.00  0.00    -0.380 N 
HETATM   16  H   UNL     1      65.028  -1.808  12.597  1.00  0.00     0.158 HD
HETATM   17  H   UNL     1      65.410  -0.153  12.449  1.00  0.00     0.158 HD
ENDBRANCH   3  15
TORSDOF 3
ENDMDL
MODEL 9
REMARK VINA RESULT:      -3.8     12.932     14.253
REMARK  3 active torsions:
REMARK  status: ('A' for Active; 'I' for Inactive)
REMARK    1  A    between atoms: C_3  and  N_8 
REMARK    2  A    between atoms: C_4  and  C_7 
REMARK    3  A    between atoms: C_11  and  O_14 
ROOT
HETATM    1  N   UNL     1      56.210   2.342  13.980  1.00  0.00    -0.336 N 
ATOM      2  HN  UNL     1      56.868   3.069  13.699  1.00  0.00     0.168 HD
HETATM    3  C   UNL     1      54.976   2.553  14.359  1.00  0.00     0.142 A 
HETATM    4  C   UNL     1      56.493   0.984  14.018  1.00  0.00     0.051 A 
HETATM    5  S   UNL     1      54.067   1.149  14.751  1.00  0.00    -0.064 SA
HETATM    6  C   UNL     1      55.438   0.185  14.409  1.00  0.00     0.083 A 
ENDROOT
BRANCH   4   7
HETATM    7  C   UNL     1      57.805   0.466  13.654  1.00  0.00    -0.009 A 
HETATM    8  C   UNL     1      58.832   1.328  13.235  1.00  0.00     0.016 A 
HETATM    9  C   UNL     1      60.083   0.822  12.887  1.00  0.00     0.037 A 
HETATM   10  C   UNL     1      60.315  -0.545  12.957  1.00  0.00     0.065 A 
HETATM   11  C   UNL     1      59.315  -1.420  13.371  1.00  0.00     0.037 A 
HETATM   12  C   UNL     1      58.060  -0.912  13.718  1.00  0.00     0.016 A 
BRANCH  10  13
HETATM   13  O   UNL     1      61.555  -0.993  12.610  1.00  0.00    -0.361 OA
HETATM   14  H   UNL     1      62.139  -0.434  12.135  1.00  0.00     0.217 HD
ENDBRANCH  10  13
ENDBRANCH   4   7
BRANCH   3  15
HETATM   15  N   UNL     1      54.426   3.770  14.445  1.00  0.00    -0.380 N 
HETATM   16  H   UNL     1      54.520   4.296  15.272  1.00  0.00     0.158 HD
HETATM   17  H   UNL     1      53.928   4.140  13.681  1.00  0.00     0.158 HD
ENDBRANCH   3  15
TORSDOF 3
ENDMDL
