MODEL 1
REMARK VINA RESULT:      -5.3      0.000      0.000
REMARK  0 active torsions:
REMARK  status: ('A' for Active; 'I' for Inactive)
ROOT
HETATM    1  C   UNL     1      62.411  10.545   3.952  1.00  0.00     0.091 A 
HETATM    2  C   UNL     1      62.804   9.258   4.517  1.00  0.00     0.085 A 
HETATM    3  N   UNL     1      62.518  11.470   4.914  1.00  0.00    -0.239 N 
ATOM      4  HN  UNL     1      62.314  12.467   4.833  1.00  0.00     0.197 HD
HETATM    5  O   UNL     1      62.962  10.798   6.040  1.00  0.00    -0.156 OA
HETATM    6  N   UNL     1      63.136   9.447   5.800  1.00  0.00    -0.240 N 
ATOM      7  HN  UNL     1      63.452   8.740   6.464  1.00  0.00     0.197 HD
HETATM    8  C   UNL     1      62.001  10.691   2.606  1.00  0.00    -0.031 A 
HETATM    9  C   UNL     1      62.394   8.226   2.429  1.00  0.00     0.003 A 
HETATM   10  C   UNL     1      62.802   8.070   3.765  1.00  0.00     0.034 A 
HETATM   11  C   UNL     1      62.011   9.478   1.875  1.00  0.00     0.009 A 
HETATM   12  C   UNL     1      61.588  11.986   1.988  1.00  0.00     0.050 C 
ENDROOT
TORSDOF 0
ENDMDL
MODEL 2
REMARK VINA RESULT:      -5.3      1.430      2.088
REMARK  0 active torsions:
REMARK  status: ('A' for Active; 'I' for Inactive)
ROOT
HETATM    1  C   UNL     1      62.198  10.186   3.149  1.00  0.00     0.091 A 
HETATM    2  C   UNL     1      62.759  10.217   4.496  1.00  0.00     0.085 A 
HETATM    3  N   UNL     1      61.664  11.387   2.894  1.00  0.00    -0.239 N 
ATOM      4  HN  UNL     1      61.194  11.682   2.037  1.00  0.00     0.197 HD
HETATM    5  O   UNL     1      61.880  12.147   4.031  1.00  0.00    -0.156 OA
HETATM    6  N   UNL     1      62.547  11.434   5.011  1.00  0.00    -0.240 N 
ATOM      7  HN  UNL     1      62.822  11.767   5.935  1.00  0.00     0.197 HD
HETATM    8  C   UNL     1      62.256   9.036   2.328  1.00  0.00    -0.031 A 
HETATM    9  C   UNL     1      63.449   7.968   4.250  1.00  0.00     0.003 A 
HETATM   10  C   UNL     1      63.396   9.106   5.075  1.00  0.00     0.034 A 
HETATM   11  C   UNL     1      62.904   7.934   2.938  1.00  0.00     0.009 A 
HETATM   12  C   UNL     1      61.693   8.958   0.946  1.00  0.00     0.050 C 
ENDROOT
TORSDOF 0
ENDMDL
MODEL 3
REMARK VINA RESULT:      -5.2      0.598      2.590
REMARK  0 active torsions:
REMARK  status: ('A' for Active; 'I' for Inactive)
ROOT
HETATM    1  C   UNL     1      62.868   9.547   4.284  1.00  0.00     0.091 A 
HETATM    2  C   UNL     1      62.344  10.884   4.024  1.00  0.00     0.085 A 
HETATM    3  N   UNL     1      63.306   9.512   5.549  1.00  0.00    -0.239 N 
ATOM      4  HN  UNL     1      63.730   8.719   6.031  1.00  0.00     0.197 HD
HETATM    5  O   UNL     1      63.067  10.774   6.068  1.00  0.00    -0.156 OA
HETATM    6  N   UNL     1      62.480  11.613   5.138  1.00  0.00    -0.240 N 
ATOM      7  HN  UNL     1      62.208  12.586   5.274  1.00  0.00     0.197 HD
HETATM    8  C   UNL     1      62.872   8.528   3.303  1.00  0.00    -0.031 A 
HETATM    9  C   UNL     1      61.813  10.235   1.812  1.00  0.00     0.003 A 
HETATM   10  C   UNL     1      61.806  11.255   2.779  1.00  0.00     0.034 A 
HETATM   11  C   UNL     1      62.323   8.932   2.062  1.00  0.00     0.009 A 
HETATM   12  C   UNL     1      63.401   7.149   3.524  1.00  0.00     0.050 C 
ENDROOT
TORSDOF 0
ENDMDL
MODEL 4
REMARK VINA RESULT:      -4.7      1.520      2.627
REMARK  0 active torsions:
REMARK  status: ('A' for Active; 'I' for Inactive)
ROOT
HETATM    1  C   UNL     1      62.619   8.974   3.274  1.00  0.00     0.091 A 
HETATM    2  C   UNL     1      62.629   9.858   4.435  1.00  0.00     0.085 A 
HETATM    3  N   UNL     1      63.052   7.769   3.667  1.00  0.00    -0.239 N 
ATOM      4  HN  UNL     1      63.160   6.936   3.088  1.00  0.00     0.197 HD
HETATM    5  O   UNL     1      63.323   7.886   5.020  1.00  0.00    -0.156 OA
HETATM    6  N   UNL     1      63.067   9.161   5.490  1.00  0.00    -0.240 N 
ATOM      7  HN  UNL     1      63.186   9.500   6.445  1.00  0.00     0.197 HD
HETATM    8  C   UNL     1      62.206   9.406   1.992  1.00  0.00    -0.031 A 
HETATM    9  C   UNL     1      61.821  11.624   3.085  1.00  0.00     0.003 A 
HETATM   10  C   UNL     1      62.230  11.204   4.363  1.00  0.00     0.034 A 
HETATM   11  C   UNL     1      61.809  10.765   1.952  1.00  0.00     0.009 A 
HETATM   12  C   UNL     1      62.183   8.538   0.778  1.00  0.00     0.050 C 
ENDROOT
TORSDOF 0
ENDMDL
MODEL 5
REMARK VINA RESULT:      -4.5      2.527      3.873
REMARK  0 active torsions:
REMARK  status: ('A' for Active; 'I' for Inactive)
ROOT
HETATM    1  C   UNL     1      62.640   9.124   3.021  1.00  0.00     0.091 A 
HETATM    2  C   UNL     1      62.018  10.435   3.174  1.00  0.00     0.085 A 
HETATM    3  N   UNL     1      62.305   8.644   1.816  1.00  0.00    -0.239 N 
ATOM      4  HN  UNL     1      62.581   7.749   1.412  1.00  0.00     0.197 HD
HETATM    5  O   UNL     1      61.506   9.613   1.231  1.00  0.00    -0.156 OA
HETATM    6  N   UNL     1      61.329  10.706   2.060  1.00  0.00    -0.240 N 
ATOM      7  HN  UNL     1      60.786  11.546   1.861  1.00  0.00     0.197 HD
HETATM    8  C   UNL     1      63.443   8.540   4.028  1.00  0.00    -0.031 A 
HETATM    9  C   UNL     1      62.972  10.624   5.330  1.00  0.00     0.003 A 
HETATM   10  C   UNL     1      62.172  11.213   4.336  1.00  0.00     0.034 A 
HETATM   11  C   UNL     1      63.579   9.348   5.184  1.00  0.00     0.009 A 
HETATM   12  C   UNL     1      64.095   7.202   3.915  1.00  0.00     0.050 C 
ENDROOT
TORSDOF 0
ENDMDL
MODEL 6
REMARK VINA RESULT:      -4.4      5.050      6.642
REMARK  0 active torsions:
REMARK  status: ('A' for Active; 'I' for Inactive)
ROOT
HETATM    1  C   UNL     1      66.453   7.084   7.354  1.00  0.00     0.091 A 
HETATM    2  C   UNL     1      65.306   7.033   6.454  1.00  0.00     0.085 A 
HETATM    3  N   UNL     1      66.939   8.332   7.336  1.00  0.00    -0.239 N 
ATOM      4  HN  UNL     1      67.740   8.688   7.858  1.00  0.00     0.197 HD
HETATM    5  O   UNL     1      66.130   9.042   6.463  1.00  0.00    -0.156 OA
HETATM    6  N   UNL     1      65.133   8.250   5.923  1.00  0.00    -0.240 N 
ATOM      7  HN  UNL     1      64.415   8.534   5.257  1.00  0.00     0.197 HD
HETATM    8  C   UNL     1      66.903   5.956   8.078  1.00  0.00    -0.031 A 
HETATM    9  C   UNL     1      65.019   4.742   6.966  1.00  0.00     0.003 A 
HETATM   10  C   UNL     1      64.564   5.858   6.241  1.00  0.00     0.034 A 
HETATM   11  C   UNL     1      66.136   4.789   7.844  1.00  0.00     0.009 A 
HETATM   12  C   UNL     1      68.073   5.962   9.006  1.00  0.00     0.050 C 
ENDROOT
TORSDOF 0
ENDMDL
MODEL 7
REMARK VINA RESULT:      -4.3      1.947      2.549
REMARK  0 active torsions:
REMARK  status: ('A' for Active; 'I' for Inactive)
ROOT
HETATM    1  C   UNL     1      63.914   8.807   4.635  1.00  0.00     0.091 A 
HETATM    2  C   UNL     1      64.903   7.736   4.571  1.00  0.00     0.085 A 
HETATM    3  N   UNL     1      64.270   9.641   5.621  1.00  0.00    -0.239 N 
ATOM      4  HN  UNL     1      63.782  10.487   5.917  1.00  0.00     0.197 HD
HETATM    5  O   UNL     1      65.437   9.121   6.155  1.00  0.00    -0.156 OA
HETATM    6  N   UNL     1      65.825   7.957   5.516  1.00  0.00    -0.240 N 
ATOM      7  HN  UNL     1      66.644   7.386   5.722  1.00  0.00     0.197 HD
HETATM    8  C   UNL     1      62.802   8.869   3.764  1.00  0.00    -0.031 A 
HETATM    9  C   UNL     1      63.713   6.759   2.776  1.00  0.00     0.003 A 
HETATM   10  C   UNL     1      64.821   6.687   3.638  1.00  0.00     0.034 A 
HETATM   11  C   UNL     1      62.748   7.800   2.837  1.00  0.00     0.009 A 
HETATM   12  C   UNL     1      61.765   9.943   3.798  1.00  0.00     0.050 C 
ENDROOT
TORSDOF 0
ENDMDL
MODEL 8
REMARK VINA RESULT:      -4.3      5.098      6.254
REMARK  0 active torsions:
REMARK  status: ('A' for Active; 'I' for Inactive)
ROOT
HETATM    1  C   UNL     1      65.400   6.950   6.685  1.00  0.00     0.091 A 
HETATM    2  C   UNL     1      66.640   7.262   7.387  1.00  0.00     0.085 A 
HETATM    3  N   UNL     1      64.993   8.056   6.049  1.00  0.00    -0.239 N 
ATOM      4  HN  UNL     1      64.158   8.162   5.472  1.00  0.00     0.197 HD
HETATM    5  O   UNL     1      65.938   9.027   6.335  1.00  0.00    -0.156 OA
HETATM    6  N   UNL     1      66.944   8.545   7.153  1.00  0.00    -0.240 N 
ATOM      7  HN  UNL     1      67.751   9.060   7.505  1.00  0.00     0.197 HD
HETATM    8  C   UNL     1      64.804   5.668   6.728  1.00  0.00    -0.031 A 
HETATM    9  C   UNL     1      66.732   5.041   8.194  1.00  0.00     0.003 A 
HETATM   10  C   UNL     1      67.332   6.312   8.159  1.00  0.00     0.034 A 
HETATM   11  C   UNL     1      65.524   4.733   7.512  1.00  0.00     0.009 A 
HETATM   12  C   UNL     1      63.535   5.305   6.029  1.00  0.00     0.050 C 
ENDROOT
TORSDOF 0
ENDMDL
MODEL 9
REMARK VINA RESULT:      -4.3      1.399      1.771
REMARK  0 active torsions:
REMARK  status: ('A' for Active; 'I' for Inactive)
ROOT
HETATM    1  C   UNL     1      63.068   9.214   4.277  1.00  0.00     0.091 A 
HETATM    2  C   UNL     1      63.491   7.866   3.913  1.00  0.00     0.085 A 
HETATM    3  N   UNL     1      63.514   9.468   5.514  1.00  0.00    -0.239 N 
ATOM      4  HN  UNL     1      63.381  10.325   6.052  1.00  0.00     0.197 HD
HETATM    5  O   UNL     1      64.192   8.329   5.915  1.00  0.00    -0.156 OA
HETATM    6  N   UNL     1      64.179   7.349   4.939  1.00  0.00    -0.240 N 
ATOM      7  HN  UNL     1      64.605   6.424   4.990  1.00  0.00     0.197 HD
HETATM    8  C   UNL     1      62.317  10.037   3.406  1.00  0.00    -0.031 A 
HETATM    9  C   UNL     1      62.436   8.113   1.811  1.00  0.00     0.003 A 
HETATM   10  C   UNL     1      63.182   7.287   2.669  1.00  0.00     0.034 A 
HETATM   11  C   UNL     1      62.022   9.426   2.162  1.00  0.00     0.009 A 
HETATM   12  C   UNL     1      61.860  11.419   3.739  1.00  0.00     0.050 C 
ENDROOT
TORSDOF 0
ENDMDL
