MODEL 1
REMARK VINA RESULT:      -4.9      0.000      0.000
REMARK  2 active torsions:
REMARK  status: ('A' for Active; 'I' for Inactive)
REMARK    1  A    between atoms: N_1  and  C_2 
REMARK    2  A    between atoms: C_6  and  N_7 
ROOT
HETATM    1  C   UNL     1      62.492   9.049   3.109  1.00  0.00     0.030 A 
HETATM    2  C   UNL     1      63.405   8.615   4.077  1.00  0.00     0.031 A 
HETATM    3  C   UNL     1      61.922  10.319   3.303  1.00  0.00     0.031 A 
HETATM    4  C   UNL     1      63.158  10.648   5.364  1.00  0.00     0.025 A 
HETATM    5  C   UNL     1      63.759   9.406   5.162  1.00  0.00     0.031 A 
HETATM    6  C   UNL     1      62.258  11.108   4.406  1.00  0.00     0.031 A 
ENDROOT
BRANCH   1   7
HETATM    7  N   UNL     1      62.183   8.278   2.017  1.00  0.00    -0.377 N 
HETATM    8  C   UNL     1      61.498   8.825   0.840  1.00  0.00     0.149 C 
HETATM    9  C   UNL     1      60.159   8.116   0.607  1.00  0.00     0.187 C 
HETATM   10  O   UNL     1      60.316   6.688   0.559  1.00  0.00    -0.388 OA
HETATM   11  C   UNL     1      60.869   6.207   1.796  1.00  0.00     0.187 C 
HETATM   12  C   UNL     1      62.255   6.813   2.075  1.00  0.00     0.149 C 
ENDBRANCH   1   7
BRANCH   4  13
HETATM   13  N   UNL     1      63.629  11.505   6.364  1.00  0.00    -0.399 N 
HETATM   14  H   UNL     1      64.327  11.197   6.988  1.00  0.00     0.156 HD
HETATM   15  H   UNL     1      63.264  12.415   6.445  1.00  0.00     0.156 HD
ENDBRANCH   4  13
TORSDOF 2
ENDMDL
MODEL 2
REMARK VINA RESULT:      -4.8      3.131      4.670
REMARK  2 active torsions:
REMARK  status: ('A' for Active; 'I' for Inactive)
REMARK    1  A    between atoms: N_1  and  C_2 
REMARK    2  A    between atoms: C_6  and  N_7 
ROOT
HETATM    1  C   UNL     1      63.497   8.789   4.808  1.00  0.00     0.030 A 
HETATM    2  C   UNL     1      63.046  10.047   5.227  1.00  0.00     0.031 A 
HETATM    3  C   UNL     1      63.160   8.401   3.501  1.00  0.00     0.031 A 
HETATM    4  C   UNL     1      61.966  10.475   3.105  1.00  0.00     0.025 A 
HETATM    5  C   UNL     1      62.328  10.888   4.387  1.00  0.00     0.031 A 
HETATM    6  C   UNL     1      62.417   9.234   2.661  1.00  0.00     0.031 A 
ENDROOT
BRANCH   1   7
HETATM    7  N   UNL     1      64.246   7.986   5.631  1.00  0.00    -0.377 N 
HETATM    8  C   UNL     1      65.713   8.027   5.643  1.00  0.00     0.149 C 
HETATM    9  C   UNL     1      66.302   6.667   5.252  1.00  0.00     0.187 C 
HETATM   10  O   UNL     1      65.759   5.604   6.053  1.00  0.00    -0.388 OA
HETATM   11  C   UNL     1      64.331   5.538   5.889  1.00  0.00     0.187 C 
HETATM   12  C   UNL     1      63.646   6.842   6.329  1.00  0.00     0.149 C 
ENDBRANCH   1   7
BRANCH   4  13
HETATM   13  N   UNL     1      61.383  11.379   2.212  1.00  0.00    -0.399 N 
HETATM   14  H   UNL     1      61.048  12.246   2.537  1.00  0.00     0.156 HD
HETATM   15  H   UNL     1      61.307  11.149   1.258  1.00  0.00     0.156 HD
ENDBRANCH   4  13
TORSDOF 2
ENDMDL
MODEL 3
REMARK VINA RESULT:      -4.6      3.499      5.196
REMARK  2 active torsions:
REMARK  status: ('A' for Active; 'I' for Inactive)
REMARK    1  A    between atoms: N_1  and  C_2 
REMARK    2  A    between atoms: C_6  and  N_7 
ROOT
HETATM    1  C   UNL     1      63.988   8.312   4.455  1.00  0.00     0.030 A 
HETATM    2  C   UNL     1      63.573   9.489   5.090  1.00  0.00     0.031 A 
HETATM    3  C   UNL     1      63.418   8.036   3.201  1.00  0.00     0.031 A 
HETATM    4  C   UNL     1      62.079  10.058   3.274  1.00  0.00     0.025 A 
HETATM    5  C   UNL     1      62.667  10.362   4.502  1.00  0.00     0.031 A 
HETATM    6  C   UNL     1      62.488   8.900   2.616  1.00  0.00     0.031 A 
ENDROOT
BRANCH   1   7
HETATM    7  N   UNL     1      64.918   7.480   5.024  1.00  0.00    -0.377 N 
HETATM    8  C   UNL     1      64.540   6.353   5.885  1.00  0.00     0.149 C 
HETATM    9  C   UNL     1      65.129   6.516   7.291  1.00  0.00     0.187 C 
HETATM   10  O   UNL     1      66.548   6.744   7.249  1.00  0.00    -0.388 OA
HETATM   11  C   UNL     1      66.836   7.939   6.500  1.00  0.00     0.187 C 
HETATM   12  C   UNL     1      66.343   7.834   5.047  1.00  0.00     0.149 C 
ENDBRANCH   1   7
BRANCH   4  13
HETATM   13  N   UNL     1      61.292  11.007   2.615  1.00  0.00    -0.399 N 
HETATM   14  H   UNL     1      60.397  11.232   2.962  1.00  0.00     0.156 HD
HETATM   15  H   UNL     1      61.631  11.452   1.805  1.00  0.00     0.156 HD
ENDBRANCH   4  13
TORSDOF 2
ENDMDL
MODEL 4
REMARK VINA RESULT:      -4.5      2.830      4.098
REMARK  2 active torsions:
REMARK  status: ('A' for Active; 'I' for Inactive)
REMARK    1  A    between atoms: N_1  and  C_2 
REMARK    2  A    between atoms: C_6  and  N_7 
ROOT
HETATM    1  C   UNL     1      62.432   8.596   3.935  1.00  0.00     0.030 A 
HETATM    2  C   UNL     1      62.225   8.594   2.551  1.00  0.00     0.031 A 
HETATM    3  C   UNL     1      62.381   9.843   4.580  1.00  0.00     0.031 A 
HETATM    4  C   UNL     1      61.941  10.996   2.491  1.00  0.00     0.025 A 
HETATM    5  C   UNL     1      61.951   9.760   1.846  1.00  0.00     0.031 A 
HETATM    6  C   UNL     1      62.128  11.021   3.871  1.00  0.00     0.031 A 
ENDROOT
BRANCH   1   7
HETATM    7  N   UNL     1      62.656   7.433   4.628  1.00  0.00    -0.377 N 
HETATM    8  C   UNL     1      62.840   7.411   6.084  1.00  0.00     0.149 C 
HETATM    9  C   UNL     1      64.220   6.855   6.454  1.00  0.00     0.187 C 
HETATM   10  O   UNL     1      64.461   5.580   5.833  1.00  0.00    -0.388 OA
HETATM   11  C   UNL     1      64.397   5.705   4.402  1.00  0.00     0.187 C 
HETATM   12  C   UNL     1      63.014   6.190   3.933  1.00  0.00     0.149 C 
ENDBRANCH   1   7
BRANCH   4  13
HETATM   13  N   UNL     1      61.512  12.141   1.813  1.00  0.00    -0.399 N 
HETATM   14  H   UNL     1      60.549  12.323   1.713  1.00  0.00     0.156 HD
HETATM   15  H   UNL     1      62.172  12.766   1.436  1.00  0.00     0.156 HD
ENDBRANCH   4  13
TORSDOF 2
ENDMDL
MODEL 5
REMARK VINA RESULT:      -4.1      2.955      4.047
REMARK  2 active torsions:
REMARK  status: ('A' for Active; 'I' for Inactive)
REMARK    1  A    between atoms: N_1  and  C_2 
REMARK    2  A    between atoms: C_6  and  N_7 
ROOT
HETATM    1  C   UNL     1      63.872   7.837   5.472  1.00  0.00     0.030 A 
HETATM    2  C   UNL     1      65.082   8.440   5.110  1.00  0.00     0.031 A 
HETATM    3  C   UNL     1      63.931   6.852   6.471  1.00  0.00     0.031 A 
HETATM    4  C   UNL     1      66.334   7.102   6.689  1.00  0.00     0.025 A 
HETATM    5  C   UNL     1      66.282   8.109   5.725  1.00  0.00     0.031 A 
HETATM    6  C   UNL     1      65.140   6.499   7.076  1.00  0.00     0.031 A 
ENDROOT
BRANCH   1   7
HETATM    7  N   UNL     1      62.685   8.204   4.890  1.00  0.00    -0.377 N 
HETATM    8  C   UNL     1      61.654   7.225   4.527  1.00  0.00     0.149 C 
HETATM    9  C   UNL     1      61.380   7.252   3.018  1.00  0.00     0.187 C 
HETATM   10  O   UNL     1      61.086   8.582   2.556  1.00  0.00    -0.388 OA
HETATM   11  C   UNL     1      62.194   9.458   2.827  1.00  0.00     0.187 C 
HETATM   12  C   UNL     1      62.495   9.550   4.332  1.00  0.00     0.149 C 
ENDBRANCH   1   7
BRANCH   4  13
HETATM   13  N   UNL     1      67.509   6.882   7.414  1.00  0.00    -0.399 N 
HETATM   14  H   UNL     1      67.696   5.990   7.790  1.00  0.00     0.156 HD
HETATM   15  H   UNL     1      68.149   7.616   7.551  1.00  0.00     0.156 HD
ENDBRANCH   4  13
TORSDOF 2
ENDMDL
MODEL 6
REMARK VINA RESULT:      -4.0      3.936      5.723
REMARK  2 active torsions:
REMARK  status: ('A' for Active; 'I' for Inactive)
REMARK    1  A    between atoms: N_1  and  C_2 
REMARK    2  A    between atoms: C_6  and  N_7 
ROOT
HETATM    1  C   UNL     1      64.252   7.860   5.520  1.00  0.00     0.030 A 
HETATM    2  C   UNL     1      63.992   9.158   5.063  1.00  0.00     0.031 A 
HETATM    3  C   UNL     1      63.285   6.883   5.229  1.00  0.00     0.031 A 
HETATM    4  C   UNL     1      61.881   8.497   4.084  1.00  0.00     0.025 A 
HETATM    5  C   UNL     1      62.852   9.467   4.332  1.00  0.00     0.031 A 
HETATM    6  C   UNL     1      62.125   7.195   4.514  1.00  0.00     0.031 A 
ENDROOT
BRANCH   1   7
HETATM    7  N   UNL     1      65.403   7.557   6.201  1.00  0.00    -0.377 N 
HETATM    8  C   UNL     1      66.722   8.020   5.756  1.00  0.00     0.149 C 
HETATM    9  C   UNL     1      67.645   6.834   5.450  1.00  0.00     0.187 C 
HETATM   10  O   UNL     1      67.710   5.915   6.553  1.00  0.00    -0.388 OA
HETATM   11  C   UNL     1      66.400   5.399   6.849  1.00  0.00     0.187 C 
HETATM   12  C   UNL     1      65.421   6.520   7.241  1.00  0.00     0.149 C 
ENDBRANCH   1   7
BRANCH   4  13
HETATM   13  N   UNL     1      60.818   8.770   3.219  1.00  0.00    -0.399 N 
HETATM   14  H   UNL     1      60.029   9.263   3.546  1.00  0.00     0.156 HD
HETATM   15  H   UNL     1      60.855   8.470   2.282  1.00  0.00     0.156 HD
ENDBRANCH   4  13
TORSDOF 2
ENDMDL
MODEL 7
REMARK VINA RESULT:      -4.0      2.929      3.930
REMARK  2 active torsions:
REMARK  status: ('A' for Active; 'I' for Inactive)
REMARK    1  A    between atoms: N_1  and  C_2 
REMARK    2  A    between atoms: C_6  and  N_7 
ROOT
HETATM    1  C   UNL     1      63.835   7.853   5.492  1.00  0.00     0.030 A 
HETATM    2  C   UNL     1      63.911   6.845   6.461  1.00  0.00     0.031 A 
HETATM    3  C   UNL     1      65.029   8.530   5.190  1.00  0.00     0.031 A 
HETATM    4  C   UNL     1      66.280   7.207   6.793  1.00  0.00     0.025 A 
HETATM    5  C   UNL     1      65.110   6.502   7.074  1.00  0.00     0.031 A 
HETATM    6  C   UNL     1      66.232   8.204   5.822  1.00  0.00     0.031 A 
ENDROOT
BRANCH   1   7
HETATM    7  N   UNL     1      62.655   8.152   4.860  1.00  0.00    -0.377 N 
HETATM    8  C   UNL     1      61.674   7.121   4.503  1.00  0.00     0.149 C 
HETATM    9  C   UNL     1      61.449   7.080   2.987  1.00  0.00     0.187 C 
HETATM   10  O   UNL     1      61.121   8.379   2.465  1.00  0.00    -0.388 OA
HETATM   11  C   UNL     1      62.186   9.307   2.735  1.00  0.00     0.187 C 
HETATM   12  C   UNL     1      62.433   9.467   4.245  1.00  0.00     0.149 C 
ENDBRANCH   1   7
BRANCH   4  13
HETATM   13  N   UNL     1      67.508   6.761   7.291  1.00  0.00    -0.399 N 
HETATM   14  H   UNL     1      67.556   6.342   8.181  1.00  0.00     0.156 HD
HETATM   15  H   UNL     1      68.325   6.864   6.752  1.00  0.00     0.156 HD
ENDBRANCH   4  13
TORSDOF 2
ENDMDL
MODEL 8
REMARK VINA RESULT:      -4.0      2.177      2.952
REMARK  2 active torsions:
REMARK  status: ('A' for Active; 'I' for Inactive)
REMARK    1  A    between atoms: N_1  and  C_2 
REMARK    2  A    between atoms: C_6  and  N_7 
ROOT
HETATM    1  C   UNL     1      62.530   8.159   4.337  1.00  0.00     0.030 A 
HETATM    2  C   UNL     1      63.850   8.622   4.376  1.00  0.00     0.031 A 
HETATM    3  C   UNL     1      62.161   7.220   5.314  1.00  0.00     0.031 A 
HETATM    4  C   UNL     1      64.382   7.240   6.289  1.00  0.00     0.025 A 
HETATM    5  C   UNL     1      64.749   8.202   5.348  1.00  0.00     0.031 A 
HETATM    6  C   UNL     1      63.069   6.776   6.280  1.00  0.00     0.031 A 
ENDROOT
BRANCH   1   7
HETATM    7  N   UNL     1      61.637   8.616   3.401  1.00  0.00    -0.377 N 
HETATM    8  C   UNL     1      60.386   7.911   3.102  1.00  0.00     0.149 C 
HETATM    9  C   UNL     1      60.342   7.471   1.634  1.00  0.00     0.187 C 
HETATM   10  O   UNL     1      60.599   8.569   0.743  1.00  0.00    -0.388 OA
HETATM   11  C   UNL     1      61.899   9.127   1.005  1.00  0.00     0.187 C 
HETATM   12  C   UNL     1      62.009   9.664   2.442  1.00  0.00     0.149 C 
ENDBRANCH   1   7
BRANCH   4  13
HETATM   13  N   UNL     1      65.234   6.937   7.356  1.00  0.00    -0.399 N 
HETATM   14  H   UNL     1      66.105   7.390   7.435  1.00  0.00     0.156 HD
HETATM   15  H   UNL     1      64.963   6.272   8.028  1.00  0.00     0.156 HD
ENDBRANCH   4  13
TORSDOF 2
ENDMDL
MODEL 9
REMARK VINA RESULT:      -4.0      2.657      5.275
REMARK  2 active torsions:
REMARK  status: ('A' for Active; 'I' for Inactive)
REMARK    1  A    between atoms: N_1  and  C_2 
REMARK    2  A    between atoms: C_6  and  N_7 
ROOT
HETATM    1  C   UNL     1      61.184   8.600   2.692  1.00  0.00     0.030 A 
HETATM    2  C   UNL     1      60.905   8.717   1.326  1.00  0.00     0.031 A 
HETATM    3  C   UNL     1      60.246   7.904   3.472  1.00  0.00     0.031 A 
HETATM    4  C   UNL     1      58.829   7.494   1.546  1.00  0.00     0.025 A 
HETATM    5  C   UNL     1      59.773   8.148   0.755  1.00  0.00     0.031 A 
HETATM    6  C   UNL     1      59.094   7.351   2.906  1.00  0.00     0.031 A 
ENDROOT
BRANCH   1   7
HETATM    7  N   UNL     1      62.328   9.126   3.237  1.00  0.00    -0.377 N 
HETATM    8  C   UNL     1      63.470   8.288   3.621  1.00  0.00     0.149 C 
HETATM    9  C   UNL     1      63.759   8.410   5.122  1.00  0.00     0.187 C 
HETATM   10  O   UNL     1      63.904   9.783   5.524  1.00  0.00    -0.388 OA
HETATM   11  C   UNL     1      62.698  10.514   5.238  1.00  0.00     0.187 C 
HETATM   12  C   UNL     1      62.369  10.506   3.736  1.00  0.00     0.149 C 
ENDBRANCH   1   7
BRANCH   4  13
HETATM   13  N   UNL     1      57.777   6.791   0.951  1.00  0.00    -0.399 N 
HETATM   14  H   UNL     1      57.479   5.933   1.334  1.00  0.00     0.156 HD
HETATM   15  H   UNL     1      57.334   7.152   0.150  1.00  0.00     0.156 HD
ENDBRANCH   4  13
TORSDOF 2
ENDMDL
