MODEL 1
REMARK VINA RESULT:      -5.9      0.000      0.000
REMARK  0 active torsions:
REMARK  status: ('A' for Active; 'I' for Inactive)
ROOT
HETATM    1  N   UNL     1      63.862   9.523   5.758  1.00  0.00    -0.286 N 
ATOM      2  HN  UNL     1      64.400   9.367   6.611  1.00  0.00     0.188 HD
HETATM    3  N   UNL     1      63.171  10.684   5.570  1.00  0.00    -0.265 N 
HETATM    4  C   UNL     1      63.818   8.620   4.825  1.00  0.00     0.129 A 
HETATM    5  C   UNL     1      62.412  11.003   4.470  1.00  0.00     0.271 A 
HETATM    6  C   UNL     1      63.058   8.795   3.571  1.00  0.00     0.019 A 
HETATM    7  C   UNL     1      62.366   9.991   3.401  1.00  0.00     0.047 A 
HETATM    8  O   UNL     1      61.806  12.064   4.371  1.00  0.00    -0.266 OA
HETATM    9 CL   UNL     1      64.730   7.192   5.172  1.00  0.00    -0.062 Cl
HETATM   10  C   UNL     1      61.640  10.230   2.230  1.00  0.00     0.018 A 
HETATM   11  C   UNL     1      63.021   7.821   2.566  1.00  0.00     0.016 A 
HETATM   12  C   UNL     1      61.612   9.263   1.224  1.00  0.00     0.001 A 
HETATM   13  C   UNL     1      62.298   8.060   1.394  1.00  0.00     0.001 A 
HETATM   14  H   UNL     1      63.220  11.356   6.289  1.00  0.00     0.190 HD
ENDROOT
TORSDOF 0
ENDMDL
MODEL 2
REMARK VINA RESULT:      -5.6      2.429      3.336
REMARK  0 active torsions:
REMARK  status: ('A' for Active; 'I' for Inactive)
ROOT
HETATM    1  N   UNL     1      61.349  10.074   1.601  1.00  0.00    -0.286 N 
ATOM      2  HN  UNL     1      60.808  10.285   0.762  1.00  0.00     0.188 HD
HETATM    3  N   UNL     1      61.400  10.956   2.641  1.00  0.00    -0.265 N 
HETATM    4  C   UNL     1      62.006   8.958   1.706  1.00  0.00     0.129 A 
HETATM    5  C   UNL     1      62.095  10.783   3.814  1.00  0.00     0.271 A 
HETATM    6  C   UNL     1      62.801   8.600   2.897  1.00  0.00     0.019 A 
HETATM    7  C   UNL     1      62.832   9.515   3.946  1.00  0.00     0.047 A 
HETATM    8  O   UNL     1      62.105  11.625   4.704  1.00  0.00    -0.266 OA
HETATM    9 CL   UNL     1      61.868   7.918   0.330  1.00  0.00    -0.062 Cl
HETATM   10  C   UNL     1      63.551   9.233   5.113  1.00  0.00     0.018 A 
HETATM   11  C   UNL     1      63.500   7.392   3.007  1.00  0.00     0.016 A 
HETATM   12  C   UNL     1      64.240   8.024   5.225  1.00  0.00     0.001 A 
HETATM   13  C   UNL     1      64.216   7.108   4.173  1.00  0.00     0.001 A 
HETATM   14  H   UNL     1      60.892  11.794   2.541  1.00  0.00     0.190 HD
ENDROOT
TORSDOF 0
ENDMDL
MODEL 3
REMARK VINA RESULT:      -5.4      2.475      3.108
REMARK  0 active torsions:
REMARK  status: ('A' for Active; 'I' for Inactive)
ROOT
HETATM    1  N   UNL     1      62.204  11.373   4.239  1.00  0.00    -0.286 N 
ATOM      2  HN  UNL     1      61.995  12.337   4.497  1.00  0.00     0.188 HD
HETATM    3  N   UNL     1      62.660  10.483   5.168  1.00  0.00    -0.265 N 
HETATM    4  C   UNL     1      62.043  10.961   3.017  1.00  0.00     0.129 A 
HETATM    5  C   UNL     1      62.976   9.165   4.937  1.00  0.00     0.271 A 
HETATM    6  C   UNL     1      62.327   9.577   2.589  1.00  0.00     0.019 A 
HETATM    7  C   UNL     1      62.785   8.688   3.558  1.00  0.00     0.047 A 
HETATM    8  O   UNL     1      63.391   8.423   5.819  1.00  0.00    -0.266 OA
HETATM    9 CL   UNL     1      61.463  12.174   1.928  1.00  0.00    -0.062 Cl
HETATM   10  C   UNL     1      63.057   7.356   3.226  1.00  0.00     0.018 A 
HETATM   11  C   UNL     1      62.144   9.138   1.273  1.00  0.00     0.016 A 
HETATM   12  C   UNL     1      62.865   6.917   1.914  1.00  0.00     0.001 A 
HETATM   13  C   UNL     1      62.412   7.808   0.941  1.00  0.00     0.001 A 
HETATM   14  H   UNL     1      62.771  10.815   6.088  1.00  0.00     0.190 HD
ENDROOT
TORSDOF 0
ENDMDL
MODEL 4
REMARK VINA RESULT:      -5.3      2.534      3.273
REMARK  0 active torsions:
REMARK  status: ('A' for Active; 'I' for Inactive)
ROOT
HETATM    1  N   UNL     1      63.050   6.755   2.878  1.00  0.00    -0.286 N 
ATOM      2  HN  UNL     1      63.254   5.808   2.557  1.00  0.00     0.188 HD
HETATM    3  N   UNL     1      63.145   7.081   4.200  1.00  0.00    -0.265 N 
HETATM    4  C   UNL     1      62.694   7.680   2.039  1.00  0.00     0.129 A 
HETATM    5  C   UNL     1      62.893   8.316   4.747  1.00  0.00     0.271 A 
HETATM    6  C   UNL     1      62.391   9.066   2.448  1.00  0.00     0.019 A 
HETATM    7  C   UNL     1      62.502   9.374   3.801  1.00  0.00     0.047 A 
HETATM    8  O   UNL     1      62.988   8.536   5.949  1.00  0.00    -0.266 OA
HETATM    9 CL   UNL     1      62.608   7.153   0.393  1.00  0.00    -0.062 Cl
HETATM   10  C   UNL     1      62.246  10.672   4.256  1.00  0.00     0.018 A 
HETATM   11  C   UNL     1      62.016  10.060   1.536  1.00  0.00     0.016 A 
HETATM   12  C   UNL     1      61.881  11.665   3.345  1.00  0.00     0.001 A 
HETATM   13  C   UNL     1      61.764  11.358   1.989  1.00  0.00     0.001 A 
HETATM   14  H   UNL     1      63.419   6.365   4.819  1.00  0.00     0.190 HD
ENDROOT
TORSDOF 0
ENDMDL
MODEL 5
REMARK VINA RESULT:      -4.9      2.630      3.384
REMARK  0 active torsions:
REMARK  status: ('A' for Active; 'I' for Inactive)
ROOT
HETATM    1  N   UNL     1      65.350   6.500   3.813  1.00  0.00    -0.286 N 
ATOM      2  HN  UNL     1      65.824   5.651   3.503  1.00  0.00     0.188 HD
HETATM    3  N   UNL     1      65.840   7.233   4.854  1.00  0.00    -0.265 N 
HETATM    4  C   UNL     1      64.266   6.909   3.225  1.00  0.00     0.129 A 
HETATM    5  C   UNL     1      65.288   8.386   5.360  1.00  0.00     0.271 A 
HETATM    6  C   UNL     1      63.543   8.130   3.631  1.00  0.00     0.019 A 
HETATM    7  C   UNL     1      64.067   8.864   4.692  1.00  0.00     0.047 A 
HETATM    8  O   UNL     1      65.777   8.990   6.308  1.00  0.00    -0.266 OA
HETATM    9 CL   UNL     1      63.740   5.902   1.921  1.00  0.00    -0.062 Cl
HETATM   10  C   UNL     1      63.442  10.041   5.117  1.00  0.00     0.018 A 
HETATM   11  C   UNL     1      62.380   8.570   2.988  1.00  0.00     0.016 A 
HETATM   12  C   UNL     1      62.287  10.484   4.469  1.00  0.00     0.001 A 
HETATM   13  C   UNL     1      61.756   9.748   3.410  1.00  0.00     0.001 A 
HETATM   14  H   UNL     1      66.664   6.906   5.283  1.00  0.00     0.190 HD
ENDROOT
TORSDOF 0
ENDMDL
MODEL 6
REMARK VINA RESULT:      -4.7      2.387      3.270
REMARK  0 active torsions:
REMARK  status: ('A' for Active; 'I' for Inactive)
ROOT
HETATM    1  N   UNL     1      63.721   6.716   3.112  1.00  0.00    -0.286 N 
ATOM      2  HN  UNL     1      64.158   5.796   3.162  1.00  0.00     0.188 HD
HETATM    3  N   UNL     1      63.027   7.102   2.001  1.00  0.00    -0.265 N 
HETATM    4  C   UNL     1      63.811   7.550   4.104  1.00  0.00     0.129 A 
HETATM    5  C   UNL     1      62.402   8.312   1.820  1.00  0.00     0.271 A 
HETATM    6  C   UNL     1      63.197   8.893   4.086  1.00  0.00     0.019 A 
HETATM    7  C   UNL     1      62.489   9.259   2.944  1.00  0.00     0.047 A 
HETATM    8  O   UNL     1      61.804   8.597   0.789  1.00  0.00    -0.266 OA
HETATM    9 CL   UNL     1      64.712   6.955   5.455  1.00  0.00    -0.062 Cl
HETATM   10  C   UNL     1      61.867  10.510   2.866  1.00  0.00     0.018 A 
HETATM   11  C   UNL     1      63.291   9.783   5.161  1.00  0.00     0.016 A 
HETATM   12  C   UNL     1      61.954  11.393   3.943  1.00  0.00     0.001 A 
HETATM   13  C   UNL     1      62.667  11.031   5.086  1.00  0.00     0.001 A 
HETATM   14  H   UNL     1      62.968   6.453   1.263  1.00  0.00     0.190 HD
ENDROOT
TORSDOF 0
ENDMDL
MODEL 7
REMARK VINA RESULT:      -4.5      2.087      2.278
REMARK  0 active torsions:
REMARK  status: ('A' for Active; 'I' for Inactive)
ROOT
HETATM    1  N   UNL     1      62.247   7.068   5.942  1.00  0.00    -0.286 N 
ATOM      2  HN  UNL     1      62.242   6.331   6.647  1.00  0.00     0.188 HD
HETATM    3  N   UNL     1      62.828   8.276   6.197  1.00  0.00    -0.265 N 
HETATM    4  C   UNL     1      61.700   6.879   4.778  1.00  0.00     0.129 A 
HETATM    5  C   UNL     1      62.892   9.340   5.329  1.00  0.00     0.271 A 
HETATM    6  C   UNL     1      61.681   7.909   3.721  1.00  0.00     0.019 A 
HETATM    7  C   UNL     1      62.286   9.131   4.004  1.00  0.00     0.047 A 
HETATM    8  O   UNL     1      63.422  10.403   5.629  1.00  0.00    -0.266 OA
HETATM    9 CL   UNL     1      60.995   5.313   4.568  1.00  0.00    -0.062 Cl
HETATM   10  C   UNL     1      62.320  10.145   3.042  1.00  0.00     0.018 A 
HETATM   11  C   UNL     1      61.097   7.696   2.467  1.00  0.00     0.016 A 
HETATM   12  C   UNL     1      61.745   9.929   1.788  1.00  0.00     0.001 A 
HETATM   13  C   UNL     1      61.133   8.708   1.504  1.00  0.00     0.001 A 
HETATM   14  H   UNL     1      63.239   8.396   7.084  1.00  0.00     0.190 HD
ENDROOT
TORSDOF 0
ENDMDL
MODEL 8
REMARK VINA RESULT:      -4.4      3.114      4.550
REMARK  0 active torsions:
REMARK  status: ('A' for Active; 'I' for Inactive)
ROOT
HETATM    1  N   UNL     1      63.252   7.769   3.202  1.00  0.00    -0.286 N 
ATOM      2  HN  UNL     1      62.444   7.748   2.580  1.00  0.00     0.188 HD
HETATM    3  N   UNL     1      63.401   8.767   4.121  1.00  0.00    -0.265 N 
HETATM    4  C   UNL     1      64.165   6.847   3.139  1.00  0.00     0.129 A 
HETATM    5  C   UNL     1      64.444   8.902   5.005  1.00  0.00     0.271 A 
HETATM    6  C   UNL     1      65.352   6.828   4.016  1.00  0.00     0.019 A 
HETATM    7  C   UNL     1      65.477   7.854   4.949  1.00  0.00     0.047 A 
HETATM    8  O   UNL     1      64.520   9.832   5.799  1.00  0.00    -0.266 OA
HETATM    9 CL   UNL     1      63.871   5.636   1.939  1.00  0.00    -0.062 Cl
HETATM   10  C   UNL     1      66.568   7.888   5.824  1.00  0.00     0.018 A 
HETATM   11  C   UNL     1      66.327   5.827   3.948  1.00  0.00     0.016 A 
HETATM   12  C   UNL     1      67.536   6.884   5.762  1.00  0.00     0.001 A 
HETATM   13  C   UNL     1      67.416   5.858   4.824  1.00  0.00     0.001 A 
HETATM   14  H   UNL     1      62.696   9.454   4.153  1.00  0.00     0.190 HD
ENDROOT
TORSDOF 0
ENDMDL
MODEL 9
REMARK VINA RESULT:      -4.2      2.960      3.721
REMARK  0 active torsions:
REMARK  status: ('A' for Active; 'I' for Inactive)
ROOT
HETATM    1  N   UNL     1      61.990   5.673   4.469  1.00  0.00    -0.286 N 
ATOM      2  HN  UNL     1      61.783   4.691   4.288  1.00  0.00     0.188 HD
HETATM    3  N   UNL     1      62.639   6.052   5.609  1.00  0.00    -0.265 N 
HETATM    4  C   UNL     1      61.644   6.594   3.621  1.00  0.00     0.129 A 
HETATM    5  C   UNL     1      62.968   7.339   5.961  1.00  0.00     0.271 A 
HETATM    6  C   UNL     1      61.922   8.029   3.832  1.00  0.00     0.019 A 
HETATM    7  C   UNL     1      62.590   8.388   4.999  1.00  0.00     0.047 A 
HETATM    8  O   UNL     1      63.543   7.609   7.009  1.00  0.00    -0.266 OA
HETATM    9 CL   UNL     1      60.830   5.998   2.216  1.00  0.00    -0.062 Cl
HETATM   10  C   UNL     1      62.901   9.728   5.255  1.00  0.00     0.018 A 
HETATM   11  C   UNL     1      61.554   9.015   2.909  1.00  0.00     0.016 A 
HETATM   12  C   UNL     1      62.541  10.710   4.330  1.00  0.00     0.001 A 
HETATM   13  C   UNL     1      61.866  10.353   3.162  1.00  0.00     0.001 A 
HETATM   14  H   UNL     1      62.895   5.337   6.237  1.00  0.00     0.190 HD
ENDROOT
TORSDOF 0
ENDMDL
