MODEL 1
REMARK VINA RESULT:      -5.5      0.000      0.000
REMARK  1 active torsions:
REMARK  status: ('A' for Active; 'I' for Inactive)
REMARK    1  A    between atoms: C_3  and  O_7 
ROOT
HETATM    1  C   UNL     1      62.596   9.790   4.057  1.00  0.00    -0.018 A 
HETATM    2  C   UNL     1      62.602   8.878   3.000  1.00  0.00    -0.043 A 
HETATM    3  C   UNL     1      62.182  11.095   3.860  1.00  0.00     0.072 A 
HETATM    4  C   UNL     1      62.198   9.254   1.720  1.00  0.00    -0.055 A 
HETATM    5  C   UNL     1      61.769  11.495   2.592  1.00  0.00     0.037 A 
HETATM    6  C   UNL     1      61.780  10.579   1.528  1.00  0.00     0.010 A 
HETATM    7  C   UNL     1      63.066   9.173   5.333  1.00  0.00     0.042 A 
HETATM    8  C   UNL     1      63.066   7.530   3.449  1.00  0.00     0.040 A 
HETATM    9  C   UNL     1      63.405   7.731   4.932  1.00  0.00     0.009 A 
HETATM   10  C   UNL     1      62.210   8.278   0.583  1.00  0.00     0.049 C 
ENDROOT
BRANCH   3  11
HETATM   11  O   UNL     1      62.181  11.955   4.914  1.00  0.00    -0.360 OA
HETATM   12  H   UNL     1      61.421  12.035   5.454  1.00  0.00     0.217 HD
ENDBRANCH   3  11
TORSDOF 1
ENDMDL
MODEL 2
REMARK VINA RESULT:      -5.3      0.844      3.012
REMARK  1 active torsions:
REMARK  status: ('A' for Active; 'I' for Inactive)
REMARK    1  A    between atoms: C_3  and  O_7 
ROOT
HETATM    1  C   UNL     1      62.284  10.084   3.101  1.00  0.00    -0.018 A 
HETATM    2  C   UNL     1      62.703   8.753   3.113  1.00  0.00    -0.043 A 
HETATM    3  C   UNL     1      62.405  10.871   4.232  1.00  0.00     0.072 A 
HETATM    4  C   UNL     1      63.246   8.177   4.260  1.00  0.00    -0.055 A 
HETATM    5  C   UNL     1      62.948  10.322   5.391  1.00  0.00     0.037 A 
HETATM    6  C   UNL     1      63.364   8.981   5.403  1.00  0.00     0.010 A 
HETATM    7  C   UNL     1      61.737  10.489   1.773  1.00  0.00     0.042 A 
HETATM    8  C   UNL     1      62.496   8.107   1.780  1.00  0.00     0.040 A 
HETATM    9  C   UNL     1      61.837   9.206   0.936  1.00  0.00     0.009 A 
HETATM   10  C   UNL     1      63.689   6.745   4.276  1.00  0.00     0.049 C 
ENDROOT
BRANCH   3  11
HETATM   11  O   UNL     1      61.994  12.168   4.184  1.00  0.00    -0.360 OA
HETATM   12  H   UNL     1      62.625  12.859   4.187  1.00  0.00     0.217 HD
ENDBRANCH   3  11
TORSDOF 1
ENDMDL
MODEL 3
REMARK VINA RESULT:      -5.1      1.593      3.067
REMARK  1 active torsions:
REMARK  status: ('A' for Active; 'I' for Inactive)
REMARK    1  A    between atoms: C_3  and  O_7 
ROOT
HETATM    1  C   UNL     1      63.044   9.423   4.465  1.00  0.00    -0.018 A 
HETATM    2  C   UNL     1      62.481   9.588   3.198  1.00  0.00    -0.043 A 
HETATM    3  C   UNL     1      63.672   8.240   4.809  1.00  0.00     0.072 A 
HETATM    4  C   UNL     1      62.530   8.568   2.249  1.00  0.00    -0.055 A 
HETATM    5  C   UNL     1      63.739   7.206   3.878  1.00  0.00     0.037 A 
HETATM    6  C   UNL     1      63.168   7.371   2.605  1.00  0.00     0.010 A 
HETATM    7  C   UNL     1      62.876  10.638   5.316  1.00  0.00     0.042 A 
HETATM    8  C   UNL     1      61.878  10.947   3.045  1.00  0.00     0.040 A 
HETATM    9  C   UNL     1      62.092  11.602   4.416  1.00  0.00     0.009 A 
HETATM   10  C   UNL     1      61.920   8.741   0.891  1.00  0.00     0.049 C 
ENDROOT
BRANCH   3  11
HETATM   11  O   UNL     1      64.217   8.115   6.050  1.00  0.00    -0.360 OA
HETATM   12  H   UNL     1      64.209   7.286   6.484  1.00  0.00     0.217 HD
ENDBRANCH   3  11
TORSDOF 1
ENDMDL
MODEL 4
REMARK VINA RESULT:      -5.0      1.281      2.353
REMARK  1 active torsions:
REMARK  status: ('A' for Active; 'I' for Inactive)
REMARK    1  A    between atoms: C_3  and  O_7 
ROOT
HETATM    1  C   UNL     1      62.312  10.263   3.372  1.00  0.00    -0.018 A 
HETATM    2  C   UNL     1      62.897   9.042   3.710  1.00  0.00    -0.043 A 
HETATM    3  C   UNL     1      61.790  10.470   2.108  1.00  0.00     0.072 A 
HETATM    4  C   UNL     1      62.979   8.001   2.785  1.00  0.00    -0.055 A 
HETATM    5  C   UNL     1      61.856   9.445   1.167  1.00  0.00     0.037 A 
HETATM    6  C   UNL     1      62.449   8.219   1.505  1.00  0.00     0.010 A 
HETATM    7  C   UNL     1      62.333  11.228   4.510  1.00  0.00     0.042 A 
HETATM    8  C   UNL     1      63.370   9.040   5.128  1.00  0.00     0.040 A 
HETATM    9  C   UNL     1      63.048  10.455   5.625  1.00  0.00     0.009 A 
HETATM   10  C   UNL     1      63.614   6.691   3.144  1.00  0.00     0.049 C 
ENDROOT
BRANCH   3  11
HETATM   11  O   UNL     1      61.220  11.670   1.815  1.00  0.00    -0.360 OA
HETATM   12  H   UNL     1      60.296  11.785   1.911  1.00  0.00     0.217 HD
ENDBRANCH   3  11
TORSDOF 1
ENDMDL
MODEL 5
REMARK VINA RESULT:      -5.0      1.642      3.228
REMARK  1 active torsions:
REMARK  status: ('A' for Active; 'I' for Inactive)
REMARK    1  A    between atoms: C_3  and  O_7 
ROOT
HETATM    1  C   UNL     1      62.654   8.319   2.951  1.00  0.00    -0.018 A 
HETATM    2  C   UNL     1      62.234   9.424   2.207  1.00  0.00    -0.043 A 
HETATM    3  C   UNL     1      62.901   8.434   4.307  1.00  0.00     0.072 A 
HETATM    4  C   UNL     1      62.060  10.671   2.805  1.00  0.00    -0.055 A 
HETATM    5  C   UNL     1      62.730   9.669   4.929  1.00  0.00     0.037 A 
HETATM    6  C   UNL     1      62.314  10.780   4.180  1.00  0.00     0.010 A 
HETATM    7  C   UNL     1      62.774   7.091   2.111  1.00  0.00     0.042 A 
HETATM    8  C   UNL     1      62.009   9.060   0.775  1.00  0.00     0.040 A 
HETATM    9  C   UNL     1      62.397   7.578   0.705  1.00  0.00     0.009 A 
HETATM   10  C   UNL     1      61.616  11.860   2.006  1.00  0.00     0.049 C 
ENDROOT
BRANCH   3  11
HETATM   11  O   UNL     1      63.301   7.336   5.003  1.00  0.00    -0.360 OA
HETATM   12  H   UNL     1      64.206   7.096   5.020  1.00  0.00     0.217 HD
ENDBRANCH   3  11
TORSDOF 1
ENDMDL
MODEL 6
REMARK VINA RESULT:      -4.7      1.943      3.480
REMARK  1 active torsions:
REMARK  status: ('A' for Active; 'I' for Inactive)
REMARK    1  A    between atoms: C_3  and  O_7 
ROOT
HETATM    1  C   UNL     1      63.792   8.966   4.547  1.00  0.00    -0.018 A 
HETATM    2  C   UNL     1      63.160   8.347   3.467  1.00  0.00    -0.043 A 
HETATM    3  C   UNL     1      64.931   8.416   5.108  1.00  0.00     0.072 A 
HETATM    4  C   UNL     1      63.652   7.159   2.927  1.00  0.00    -0.055 A 
HETATM    5  C   UNL     1      65.445   7.231   4.585  1.00  0.00     0.037 A 
HETATM    6  C   UNL     1      64.806   6.607   3.502  1.00  0.00     0.010 A 
HETATM    7  C   UNL     1      63.097  10.221   4.960  1.00  0.00     0.042 A 
HETATM    8  C   UNL     1      61.968   9.128   3.017  1.00  0.00     0.040 A 
HETATM    9  C   UNL     1      61.903  10.303   4.001  1.00  0.00     0.009 A 
HETATM   10  C   UNL     1      62.970   6.491   1.772  1.00  0.00     0.049 C 
ENDROOT
BRANCH   3  11
HETATM   11  O   UNL     1      65.526   9.049   6.155  1.00  0.00    -0.360 OA
HETATM   12  H   UNL     1      65.778   9.947   6.078  1.00  0.00     0.217 HD
ENDBRANCH   3  11
TORSDOF 1
ENDMDL
MODEL 7
REMARK VINA RESULT:      -4.5      2.222      3.256
REMARK  1 active torsions:
REMARK  status: ('A' for Active; 'I' for Inactive)
REMARK    1  A    between atoms: C_3  and  O_7 
ROOT
HETATM    1  C   UNL     1      63.126   7.820   2.837  1.00  0.00    -0.018 A 
HETATM    2  C   UNL     1      62.873   9.029   3.486  1.00  0.00    -0.043 A 
HETATM    3  C   UNL     1      62.665   7.600   1.551  1.00  0.00     0.072 A 
HETATM    4  C   UNL     1      62.147  10.044   2.865  1.00  0.00    -0.055 A 
HETATM    5  C   UNL     1      61.940   8.599   0.906  1.00  0.00     0.037 A 
HETATM    6  C   UNL     1      61.681   9.813   1.562  1.00  0.00     0.010 A 
HETATM    7  C   UNL     1      63.919   6.882   3.685  1.00  0.00     0.042 A 
HETATM    8  C   UNL     1      63.483   9.049   4.851  1.00  0.00     0.040 A 
HETATM    9  C   UNL     1      64.113   7.658   4.994  1.00  0.00     0.009 A 
HETATM   10  C   UNL     1      61.869  11.340   3.565  1.00  0.00     0.049 C 
ENDROOT
BRANCH   3  11
HETATM   11  O   UNL     1      62.936   6.412   0.945  1.00  0.00    -0.360 OA
HETATM   12  H   UNL     1      63.236   6.397   0.058  1.00  0.00     0.217 HD
ENDBRANCH   3  11
TORSDOF 1
ENDMDL
MODEL 8
REMARK VINA RESULT:      -4.4      2.013      3.982
REMARK  1 active torsions:
REMARK  status: ('A' for Active; 'I' for Inactive)
REMARK    1  A    between atoms: C_3  and  O_7 
ROOT
HETATM    1  C   UNL     1      62.648   9.026   3.285  1.00  0.00    -0.018 A 
HETATM    2  C   UNL     1      63.519   9.001   4.376  1.00  0.00    -0.043 A 
HETATM    3  C   UNL     1      62.629   7.985   2.374  1.00  0.00     0.072 A 
HETATM    4  C   UNL     1      64.395   7.935   4.576  1.00  0.00    -0.055 A 
HETATM    5  C   UNL     1      63.491   6.906   2.553  1.00  0.00     0.037 A 
HETATM    6  C   UNL     1      64.370   6.884   3.648  1.00  0.00     0.010 A 
HETATM    7  C   UNL     1      61.805  10.257   3.268  1.00  0.00     0.042 A 
HETATM    8  C   UNL     1      63.350  10.215   5.232  1.00  0.00     0.040 A 
HETATM    9  C   UNL     1      62.285  11.039   4.498  1.00  0.00     0.009 A 
HETATM   10  C   UNL     1      65.335   7.911   5.743  1.00  0.00     0.049 C 
ENDROOT
BRANCH   3  11
HETATM   11  O   UNL     1      61.763   8.037   1.327  1.00  0.00    -0.360 OA
HETATM   12  H   UNL     1      60.942   7.590   1.375  1.00  0.00     0.217 HD
ENDBRANCH   3  11
TORSDOF 1
ENDMDL
MODEL 9
REMARK VINA RESULT:      -4.3      3.404      5.169
REMARK  1 active torsions:
REMARK  status: ('A' for Active; 'I' for Inactive)
REMARK    1  A    between atoms: C_3  and  O_7 
ROOT
HETATM    1  C   UNL     1      65.536   7.953   5.173  1.00  0.00    -0.018 A 
HETATM    2  C   UNL     1      65.365   6.977   4.190  1.00  0.00    -0.043 A 
HETATM    3  C   UNL     1      66.653   7.945   5.989  1.00  0.00     0.072 A 
HETATM    4  C   UNL     1      66.306   5.965   4.007  1.00  0.00    -0.055 A 
HETATM    5  C   UNL     1      67.611   6.947   5.823  1.00  0.00     0.037 A 
HETATM    6  C   UNL     1      67.435   5.962   4.839  1.00  0.00     0.010 A 
HETATM    7  C   UNL     1      64.410   8.933   5.191  1.00  0.00     0.042 A 
HETATM    8  C   UNL     1      64.102   7.197   3.420  1.00  0.00     0.040 A 
HETATM    9  C   UNL     1      63.470   8.423   4.091  1.00  0.00     0.009 A 
HETATM   10  C   UNL     1      66.120   4.911   2.957  1.00  0.00     0.049 C 
ENDROOT
BRANCH   3  11
HETATM   11  O   UNL     1      66.792   8.916   6.931  1.00  0.00    -0.360 OA
HETATM   12  H   UNL     1      66.395   9.755   6.802  1.00  0.00     0.217 HD
ENDBRANCH   3  11
TORSDOF 1
ENDMDL
