MODEL 1
REMARK VINA RESULT:      -5.1      0.000      0.000
REMARK  2 active torsions:
REMARK  status: ('A' for Active; 'I' for Inactive)
REMARK    1  A    between atoms: C_1  and  C_6 
REMARK    2  A    between atoms: C_2  and  C_6 
ROOT
HETATM    1  C   UNL     1      62.140   8.905   3.176  1.00  0.00    -0.030 C 
HETATM    2  C   UNL     1      62.718   6.859   1.796  1.00  0.00    -0.013 C 
HETATM    3  C   UNL     1      60.312   7.334   2.387  1.00  0.00    -0.013 C 
HETATM    4  C   UNL     1      61.501   8.783   0.715  1.00  0.00    -0.013 C 
HETATM    5  C   UNL     1      60.777   8.260   3.512  1.00  0.00     0.014 C 
HETATM    6  C   UNL     1      61.976   9.711   1.855  1.00  0.00     0.014 C 
HETATM    7  C   UNL     1      63.188   7.795   2.921  1.00  0.00     0.014 C 
HETATM    8  C   UNL     1      60.155   8.149   1.101  1.00  0.00     0.009 C 
HETATM    9  C   UNL     1      61.369   6.235   2.191  1.00  0.00     0.009 C 
HETATM   10  C   UNL     1      62.540   7.668   0.503  1.00  0.00     0.009 C 
ENDROOT
BRANCH   1  11
HETATM   11  C   UNL     1      62.593   9.830   4.324  1.00  0.00     0.122 C 
BRANCH  11  12
HETATM   12  C   UNL     1      63.358   9.131   5.414  1.00  0.00     0.173 C 
HETATM   13  O   UNL     1      62.875   8.359   6.234  1.00  0.00    -0.648 OA
HETATM   14  O   UNL     1      64.647   9.493   5.504  1.00  0.00    -0.648 OA
ENDBRANCH  11  12
ENDBRANCH   1  11
TORSDOF 2
ENDMDL
MODEL 2
REMARK VINA RESULT:      -5.1      0.044      2.007
REMARK  2 active torsions:
REMARK  status: ('A' for Active; 'I' for Inactive)
REMARK    1  A    between atoms: C_1  and  C_6 
REMARK    2  A    between atoms: C_2  and  C_6 
ROOT
HETATM    1  C   UNL     1      62.130   8.907   3.186  1.00  0.00    -0.030 C 
HETATM    2  C   UNL     1      60.327   7.324   2.368  1.00  0.00    -0.013 C 
HETATM    3  C   UNL     1      61.511   8.831   0.727  1.00  0.00    -0.013 C 
HETATM    4  C   UNL     1      62.731   6.890   1.753  1.00  0.00    -0.013 C 
HETATM    5  C   UNL     1      61.968   9.722   1.884  1.00  0.00     0.014 C 
HETATM    6  C   UNL     1      63.183   7.791   2.923  1.00  0.00     0.014 C 
HETATM    7  C   UNL     1      60.791   8.214   3.533  1.00  0.00     0.014 C 
HETATM    8  C   UNL     1      62.562   7.745   0.486  1.00  0.00     0.009 C 
HETATM    9  C   UNL     1      60.166   8.189   1.108  1.00  0.00     0.009 C 
HETATM   10  C   UNL     1      61.382   6.241   2.105  1.00  0.00     0.009 C 
ENDROOT
BRANCH   1  11
HETATM   11  C   UNL     1      62.586   9.823   4.339  1.00  0.00     0.122 C 
BRANCH  11  12
HETATM   12  C   UNL     1      63.360   9.116   5.419  1.00  0.00     0.173 C 
HETATM   13  O   UNL     1      62.886   8.334   6.233  1.00  0.00    -0.648 OA
HETATM   14  O   UNL     1      64.648   9.484   5.505  1.00  0.00    -0.648 OA
ENDBRANCH  11  12
ENDBRANCH   1  11
TORSDOF 2
ENDMDL
MODEL 3
REMARK VINA RESULT:      -5.1      0.033      2.019
REMARK  2 active torsions:
REMARK  status: ('A' for Active; 'I' for Inactive)
REMARK    1  A    between atoms: C_1  and  C_6 
REMARK    2  A    between atoms: C_2  and  C_6 
ROOT
HETATM    1  C   UNL     1      62.151   8.923   3.177  1.00  0.00    -0.030 C 
HETATM    2  C   UNL     1      61.501   8.817   0.729  1.00  0.00    -0.013 C 
HETATM    3  C   UNL     1      62.717   6.877   1.789  1.00  0.00    -0.013 C 
HETATM    4  C   UNL     1      60.322   7.336   2.392  1.00  0.00    -0.013 C 
HETATM    5  C   UNL     1      63.173   7.792   2.927  1.00  0.00     0.014 C 
HETATM    6  C   UNL     1      60.787   8.265   3.535  1.00  0.00     0.014 C 
HETATM    7  C   UNL     1      61.952   9.736   1.875  1.00  0.00     0.014 C 
HETATM    8  C   UNL     1      61.377   6.240   2.165  1.00  0.00     0.009 C 
HETATM    9  C   UNL     1      62.561   7.724   0.514  1.00  0.00     0.009 C 
HETATM   10  C   UNL     1      60.166   8.158   1.102  1.00  0.00     0.009 C 
ENDROOT
BRANCH   1  11
HETATM   11  C   UNL     1      62.631   9.836   4.323  1.00  0.00     0.122 C 
BRANCH  11  12
HETATM   12  C   UNL     1      63.383   9.117   5.410  1.00  0.00     0.173 C 
HETATM   13  O   UNL     1      62.885   8.356   6.230  1.00  0.00    -0.648 OA
HETATM   14  O   UNL     1      64.680   9.448   5.496  1.00  0.00    -0.648 OA
ENDBRANCH  11  12
ENDBRANCH   1  11
TORSDOF 2
ENDMDL
MODEL 4
REMARK VINA RESULT:      -4.6      2.317      3.867
REMARK  2 active torsions:
REMARK  status: ('A' for Active; 'I' for Inactive)
REMARK    1  A    between atoms: C_1  and  C_6 
REMARK    2  A    between atoms: C_2  and  C_6 
ROOT
HETATM    1  C   UNL     1      62.362   8.506   3.989  1.00  0.00    -0.030 C 
HETATM    2  C   UNL     1      64.133   6.845   3.263  1.00  0.00    -0.013 C 
HETATM    3  C   UNL     1      64.441   8.151   5.399  1.00  0.00    -0.013 C 
HETATM    4  C   UNL     1      62.707   6.337   5.277  1.00  0.00    -0.013 C 
HETATM    5  C   UNL     1      63.403   9.168   4.920  1.00  0.00     0.014 C 
HETATM    6  C   UNL     1      61.665   7.365   4.786  1.00  0.00     0.014 C 
HETATM    7  C   UNL     1      63.085   7.861   2.783  1.00  0.00     0.014 C 
HETATM    8  C   UNL     1      63.732   7.042   6.181  1.00  0.00     0.009 C 
HETATM    9  C   UNL     1      65.149   7.560   4.168  1.00  0.00     0.009 C 
HETATM   10  C   UNL     1      63.437   5.736   4.063  1.00  0.00     0.009 C 
ENDROOT
BRANCH   1  11
HETATM   11  C   UNL     1      61.328   9.547   3.515  1.00  0.00     0.122 C 
BRANCH  11  12
HETATM   12  C   UNL     1      61.867  10.948   3.410  1.00  0.00     0.173 C 
HETATM   13  O   UNL     1      61.937  11.750   4.333  1.00  0.00    -0.648 OA
HETATM   14  O   UNL     1      62.196  11.321   2.164  1.00  0.00    -0.648 OA
ENDBRANCH  11  12
ENDBRANCH   1  11
TORSDOF 2
ENDMDL
MODEL 5
REMARK VINA RESULT:      -4.4      1.351      2.544
REMARK  2 active torsions:
REMARK  status: ('A' for Active; 'I' for Inactive)
REMARK    1  A    between atoms: C_1  and  C_6 
REMARK    2  A    between atoms: C_2  and  C_6 
ROOT
HETATM    1  C   UNL     1      63.417   7.281   3.777  1.00  0.00    -0.030 C 
HETATM    2  C   UNL     1      60.930   6.929   3.442  1.00  0.00    -0.013 C 
HETATM    3  C   UNL     1      61.968   9.157   2.873  1.00  0.00    -0.013 C 
HETATM    4  C   UNL     1      62.433   7.152   1.433  1.00  0.00    -0.013 C 
HETATM    5  C   UNL     1      63.179   8.807   3.740  1.00  0.00     0.014 C 
HETATM    6  C   UNL     1      63.650   6.798   2.316  1.00  0.00     0.014 C 
HETATM    7  C   UNL     1      62.148   6.573   4.308  1.00  0.00     0.014 C 
HETATM    8  C   UNL     1      62.221   8.675   1.442  1.00  0.00     0.009 C 
HETATM    9  C   UNL     1      60.731   8.454   3.456  1.00  0.00     0.009 C 
HETATM   10  C   UNL     1      61.178   6.466   1.999  1.00  0.00     0.009 C 
ENDROOT
BRANCH   1  11
HETATM   11  C   UNL     1      64.638   6.950   4.659  1.00  0.00     0.122 C 
BRANCH  11  12
HETATM   12  C   UNL     1      64.779   7.828   5.872  1.00  0.00     0.173 C 
HETATM   13  O   UNL     1      65.509   8.808   5.955  1.00  0.00    -0.648 OA
HETATM   14  O   UNL     1      64.098   7.399   6.945  1.00  0.00    -0.648 OA
ENDBRANCH  11  12
ENDBRANCH   1  11
TORSDOF 2
ENDMDL
MODEL 6
REMARK VINA RESULT:      -4.4      1.388      2.154
REMARK  2 active torsions:
REMARK  status: ('A' for Active; 'I' for Inactive)
REMARK    1  A    between atoms: C_1  and  C_6 
REMARK    2  A    between atoms: C_2  and  C_6 
ROOT
HETATM    1  C   UNL     1      63.452   7.224   3.809  1.00  0.00    -0.030 C 
HETATM    2  C   UNL     1      62.474   7.069   1.476  1.00  0.00    -0.013 C 
HETATM    3  C   UNL     1      60.962   6.864   3.485  1.00  0.00    -0.013 C 
HETATM    4  C   UNL     1      61.974   9.087   2.900  1.00  0.00    -0.013 C 
HETATM    5  C   UNL     1      62.176   6.547   4.360  1.00  0.00     0.014 C 
HETATM    6  C   UNL     1      63.202   8.760   3.777  1.00  0.00     0.014 C 
HETATM    7  C   UNL     1      63.696   6.758   2.354  1.00  0.00     0.014 C 
HETATM    8  C   UNL     1      60.735   8.378   3.471  1.00  0.00     0.009 C 
HETATM    9  C   UNL     1      61.242   6.358   2.059  1.00  0.00     0.009 C 
HETATM   10  C   UNL     1      62.226   8.584   1.468  1.00  0.00     0.009 C 
ENDROOT
BRANCH   1  11
HETATM   11  C   UNL     1      64.664   6.889   4.701  1.00  0.00     0.122 C 
BRANCH  11  12
HETATM   12  C   UNL     1      64.813   7.785   5.900  1.00  0.00     0.173 C 
HETATM   13  O   UNL     1      65.570   8.745   5.976  1.00  0.00    -0.648 OA
HETATM   14  O   UNL     1      64.106   7.396   6.972  1.00  0.00    -0.648 OA
ENDBRANCH  11  12
ENDBRANCH   1  11
TORSDOF 2
ENDMDL
MODEL 7
REMARK VINA RESULT:      -4.4      3.613      5.574
REMARK  2 active torsions:
REMARK  status: ('A' for Active; 'I' for Inactive)
REMARK    1  A    between atoms: C_1  and  C_6 
REMARK    2  A    between atoms: C_2  and  C_6 
ROOT
HETATM    1  C   UNL     1      64.972   6.943   5.137  1.00  0.00    -0.030 C 
HETATM    2  C   UNL     1      66.607   5.350   6.238  1.00  0.00    -0.013 C 
HETATM    3  C   UNL     1      67.132   6.312   3.967  1.00  0.00    -0.013 C 
HETATM    4  C   UNL     1      67.214   7.783   6.001  1.00  0.00    -0.013 C 
HETATM    5  C   UNL     1      65.654   6.663   3.780  1.00  0.00     0.014 C 
HETATM    6  C   UNL     1      65.720   8.128   5.814  1.00  0.00     0.014 C 
HETATM    7  C   UNL     1      65.123   5.707   6.056  1.00  0.00     0.014 C 
HETATM    8  C   UNL     1      67.847   7.492   4.630  1.00  0.00     0.009 C 
HETATM    9  C   UNL     1      67.229   5.065   4.861  1.00  0.00     0.009 C 
HETATM   10  C   UNL     1      67.339   6.532   6.888  1.00  0.00     0.009 C 
ENDROOT
BRANCH   1  11
HETATM   11  C   UNL     1      63.484   7.289   4.928  1.00  0.00     0.122 C 
BRANCH  11  12
HETATM   12  C   UNL     1      62.892   8.146   6.014  1.00  0.00     0.173 C 
HETATM   13  O   UNL     1      62.449   7.733   7.079  1.00  0.00    -0.648 OA
HETATM   14  O   UNL     1      62.781   9.444   5.694  1.00  0.00    -0.648 OA
ENDBRANCH  11  12
ENDBRANCH   1  11
TORSDOF 2
ENDMDL
MODEL 8
REMARK VINA RESULT:      -4.3      1.676      2.931
REMARK  2 active torsions:
REMARK  status: ('A' for Active; 'I' for Inactive)
REMARK    1  A    between atoms: C_1  and  C_6 
REMARK    2  A    between atoms: C_2  and  C_6 
ROOT
HETATM    1  C   UNL     1      63.426   8.006   4.269  1.00  0.00    -0.030 C 
HETATM    2  C   UNL     1      61.650   8.922   2.710  1.00  0.00    -0.013 C 
HETATM    3  C   UNL     1      62.820   6.761   2.144  1.00  0.00    -0.013 C 
HETATM    4  C   UNL     1      61.176   6.837   4.041  1.00  0.00    -0.013 C 
HETATM    5  C   UNL     1      63.947   7.124   3.114  1.00  0.00     0.014 C 
HETATM    6  C   UNL     1      62.315   7.211   5.015  1.00  0.00     0.014 C 
HETATM    7  C   UNL     1      62.777   9.286   3.690  1.00  0.00     0.014 C 
HETATM    8  C   UNL     1      61.743   5.978   2.899  1.00  0.00     0.009 C 
HETATM    9  C   UNL     1      62.228   8.061   1.575  1.00  0.00     0.009 C 
HETATM   10  C   UNL     1      60.570   8.122   3.451  1.00  0.00     0.009 C 
ENDROOT
BRANCH   1  11
HETATM   11  C   UNL     1      64.576   8.365   5.232  1.00  0.00     0.122 C 
BRANCH  11  12
HETATM   12  C   UNL     1      64.972   7.250   6.161  1.00  0.00     0.173 C 
HETATM   13  O   UNL     1      64.572   7.111   7.311  1.00  0.00    -0.648 OA
HETATM   14  O   UNL     1      65.911   6.428   5.668  1.00  0.00    -0.648 OA
ENDBRANCH  11  12
ENDBRANCH   1  11
TORSDOF 2
ENDMDL
MODEL 9
REMARK VINA RESULT:      -4.2      3.334      5.429
REMARK  2 active torsions:
REMARK  status: ('A' for Active; 'I' for Inactive)
REMARK    1  A    between atoms: C_1  and  C_6 
REMARK    2  A    between atoms: C_2  and  C_6 
ROOT
HETATM    1  C   UNL     1      64.630   7.286   5.386  1.00  0.00    -0.030 C 
HETATM    2  C   UNL     1      66.405   6.235   3.914  1.00  0.00    -0.013 C 
HETATM    3  C   UNL     1      67.077   7.863   5.720  1.00  0.00    -0.013 C 
HETATM    4  C   UNL     1      66.253   5.573   6.340  1.00  0.00    -0.013 C 
HETATM    5  C   UNL     1      65.641   8.388   5.773  1.00  0.00     0.014 C 
HETATM    6  C   UNL     1      64.804   6.105   6.384  1.00  0.00     0.014 C 
HETATM    7  C   UNL     1      64.960   6.755   3.970  1.00  0.00     0.014 C 
HETATM    8  C   UNL     1      67.224   6.706   6.711  1.00  0.00     0.009 C 
HETATM    9  C   UNL     1      67.366   7.374   4.290  1.00  0.00     0.009 C 
HETATM   10  C   UNL     1      66.570   5.084   4.917  1.00  0.00     0.009 C 
ENDROOT
BRANCH   1  11
HETATM   11  C   UNL     1      63.190   7.836   5.441  1.00  0.00     0.122 C 
BRANCH  11  12
HETATM   12  C   UNL     1      63.074   9.295   5.097  1.00  0.00     0.173 C 
HETATM   13  O   UNL     1      63.078  10.216   5.905  1.00  0.00    -0.648 OA
HETATM   14  O   UNL     1      62.858   9.540   3.795  1.00  0.00    -0.648 OA
ENDBRANCH  11  12
ENDBRANCH   1  11
TORSDOF 2
ENDMDL
