MODEL 1
REMARK VINA RESULT:      -5.1      0.000      0.000
REMARK  2 active torsions:
REMARK  status: ('A' for Active; 'I' for Inactive)
REMARK    1  A    between atoms: C_1  and  C_3 
REMARK    2  A    between atoms: C_2  and  O_13 
ROOT
HETATM    1  C   UNL     1      62.068   9.227   3.385  1.00  0.00     0.052 C 
HETATM    2  C   UNL     1      60.430   7.472   2.590  1.00  0.00     0.060 C 
HETATM    3  C   UNL     1      60.763   8.470   3.712  1.00  0.00     0.058 C 
HETATM    4  C   UNL     1      61.895   9.968   2.038  1.00  0.00     0.025 C 
HETATM    5  C   UNL     1      63.208   8.191   3.229  1.00  0.00     0.025 C 
HETATM    6  C   UNL     1      61.564   8.970   0.912  1.00  0.00    -0.010 C 
HETATM    7  C   UNL     1      62.883   7.187   2.110  1.00  0.00    -0.010 C 
HETATM    8  C   UNL     1      60.264   8.229   1.260  1.00  0.00     0.042 C 
HETATM    9  C   UNL     1      61.576   6.458   2.453  1.00  0.00     0.042 C 
HETATM   10  C   UNL     1      62.707   7.948   0.785  1.00  0.00     0.009 C 
ENDROOT
BRANCH   1  11
HETATM   11  C   UNL     1      62.404  10.210   4.495  1.00  0.00     0.182 C 
HETATM   12  O   UNL     1      63.023   9.975   5.521  1.00  0.00    -0.647 OA
HETATM   13  O   UNL     1      61.946  11.456   4.260  1.00  0.00    -0.647 OA
ENDBRANCH   1  11
BRANCH   2  14
HETATM   14  O   UNL     1      59.233   6.776   2.903  1.00  0.00    -0.390 OA
HETATM   15  H   UNL     1      58.884   6.356   2.102  1.00  0.00     0.210 HD
ENDBRANCH   2  14
TORSDOF 2
ENDMDL
MODEL 2
REMARK VINA RESULT:      -5.0      1.772      3.008
REMARK  2 active torsions:
REMARK  status: ('A' for Active; 'I' for Inactive)
REMARK    1  A    between atoms: C_1  and  C_3 
REMARK    2  A    between atoms: C_2  and  O_13 
ROOT
HETATM    1  C   UNL     1      63.276   7.917   4.795  1.00  0.00     0.052 C 
HETATM    2  C   UNL     1      61.700   9.305   3.388  1.00  0.00     0.060 C 
HETATM    3  C   UNL     1      62.690   9.325   4.565  1.00  0.00     0.058 C 
HETATM    4  C   UNL     1      63.986   7.450   3.502  1.00  0.00     0.025 C 
HETATM    5  C   UNL     1      62.109   6.943   5.090  1.00  0.00     0.025 C 
HETATM    6  C   UNL     1      62.996   7.425   2.322  1.00  0.00    -0.010 C 
HETATM    7  C   UNL     1      61.113   6.916   3.919  1.00  0.00    -0.010 C 
HETATM    8  C   UNL     1      62.424   8.836   2.113  1.00  0.00     0.042 C 
HETATM    9  C   UNL     1      60.554   8.330   3.702  1.00  0.00     0.042 C 
HETATM   10  C   UNL     1      61.843   6.459   2.645  1.00  0.00     0.009 C 
ENDROOT
BRANCH   1  11
HETATM   11  C   UNL     1      64.251   7.932   5.962  1.00  0.00     0.182 C 
HETATM   12  O   UNL     1      64.207   7.235   6.963  1.00  0.00    -0.647 OA
HETATM   13  O   UNL     1      65.247   8.828   5.813  1.00  0.00    -0.647 OA
ENDBRANCH   1  11
BRANCH   2  14
HETATM   14  O   UNL     1      61.160  10.603   3.189  1.00  0.00    -0.390 OA
HETATM   15  H   UNL     1      60.513  10.795   3.886  1.00  0.00     0.210 HD
ENDBRANCH   2  14
TORSDOF 2
ENDMDL
MODEL 3
REMARK VINA RESULT:      -4.9      1.638      2.878
REMARK  2 active torsions:
REMARK  status: ('A' for Active; 'I' for Inactive)
REMARK    1  A    between atoms: C_1  and  C_3 
REMARK    2  A    between atoms: C_2  and  O_13 
ROOT
HETATM    1  C   UNL     1      62.078   9.468   3.066  1.00  0.00     0.052 C 
HETATM    2  C   UNL     1      62.494   7.380   1.701  1.00  0.00     0.060 C 
HETATM    3  C   UNL     1      62.379   8.913   1.658  1.00  0.00     0.058 C 
HETATM    4  C   UNL     1      63.212   9.040   4.027  1.00  0.00     0.025 C 
HETATM    5  C   UNL     1      60.752   8.842   3.565  1.00  0.00     0.025 C 
HETATM    6  C   UNL     1      63.327   7.505   4.076  1.00  0.00    -0.010 C 
HETATM    7  C   UNL     1      60.858   7.309   3.612  1.00  0.00    -0.010 C 
HETATM    8  C   UNL     1      63.625   6.976   2.664  1.00  0.00     0.042 C 
HETATM    9  C   UNL     1      61.169   6.783   2.203  1.00  0.00     0.042 C 
HETATM   10  C   UNL     1      61.996   6.909   4.565  1.00  0.00     0.009 C 
ENDROOT
BRANCH   1  11
HETATM   11  C   UNL     1      61.957  10.983   3.025  1.00  0.00     0.182 C 
HETATM   12  O   UNL     1      62.000  11.696   2.036  1.00  0.00    -0.647 OA
HETATM   13  O   UNL     1      61.782  11.536   4.243  1.00  0.00    -0.647 OA
ENDBRANCH   1  11
BRANCH   2  14
HETATM   14  O   UNL     1      62.763   6.879   0.400  1.00  0.00    -0.390 OA
HETATM   15  H   UNL     1      63.026   5.947   0.461  1.00  0.00     0.210 HD
ENDBRANCH   2  14
TORSDOF 2
ENDMDL
MODEL 4
REMARK VINA RESULT:      -4.9      1.696      2.575
REMARK  2 active torsions:
REMARK  status: ('A' for Active; 'I' for Inactive)
REMARK    1  A    between atoms: C_1  and  C_3 
REMARK    2  A    between atoms: C_2  and  O_13 
ROOT
HETATM    1  C   UNL     1      61.916   9.522   2.898  1.00  0.00     0.052 C 
HETATM    2  C   UNL     1      63.087   7.311   3.264  1.00  0.00     0.060 C 
HETATM    3  C   UNL     1      63.110   8.817   3.575  1.00  0.00     0.058 C 
HETATM    4  C   UNL     1      60.601   8.886   3.410  1.00  0.00     0.025 C 
HETATM    5  C   UNL     1      62.010   9.286   1.371  1.00  0.00     0.025 C 
HETATM    6  C   UNL     1      60.574   7.378   3.096  1.00  0.00    -0.010 C 
HETATM    7  C   UNL     1      61.989   7.782   1.050  1.00  0.00    -0.010 C 
HETATM    8  C   UNL     1      61.771   6.698   3.778  1.00  0.00     0.042 C 
HETATM    9  C   UNL     1      63.178   7.103   1.744  1.00  0.00     0.042 C 
HETATM   10  C   UNL     1      60.678   7.172   1.575  1.00  0.00     0.009 C 
ENDROOT
BRANCH   1  11
HETATM   11  C   UNL     1      61.939  11.012   3.199  1.00  0.00     0.182 C 
HETATM   12  O   UNL     1      61.901  11.539   4.299  1.00  0.00    -0.647 OA
HETATM   13  O   UNL     1      62.014  11.778   2.091  1.00  0.00    -0.647 OA
ENDBRANCH   1  11
BRANCH   2  14
HETATM   14  O   UNL     1      64.193   6.672   3.885  1.00  0.00    -0.390 OA
HETATM   15  H   UNL     1      64.380   7.102   4.734  1.00  0.00     0.210 HD
ENDBRANCH   2  14
TORSDOF 2
ENDMDL
MODEL 5
REMARK VINA RESULT:      -4.8      5.483      7.185
REMARK  2 active torsions:
REMARK  status: ('A' for Active; 'I' for Inactive)
REMARK    1  A    between atoms: C_1  and  C_3 
REMARK    2  A    between atoms: C_2  and  O_13 
ROOT
HETATM    1  C   UNL     1      66.772   5.700   7.372  1.00  0.00     0.052 C 
HETATM    2  C   UNL     1      65.981   7.756   6.132  1.00  0.00     0.060 C 
HETATM    3  C   UNL     1      66.583   7.229   7.445  1.00  0.00     0.058 C 
HETATM    4  C   UNL     1      67.700   5.364   6.181  1.00  0.00     0.025 C 
HETATM    5  C   UNL     1      65.391   5.049   7.113  1.00  0.00     0.025 C 
HETATM    6  C   UNL     1      67.098   5.887   4.864  1.00  0.00    -0.010 C 
HETATM    7  C   UNL     1      64.780   5.570   5.802  1.00  0.00    -0.010 C 
HETATM    8  C   UNL     1      66.918   7.410   4.960  1.00  0.00     0.042 C 
HETATM    9  C   UNL     1      64.615   7.094   5.895  1.00  0.00     0.042 C 
HETATM   10  C   UNL     1      65.725   5.233   4.635  1.00  0.00     0.009 C 
ENDROOT
BRANCH   1  11
HETATM   11  C   UNL     1      67.361   5.174   8.672  1.00  0.00     0.182 C 
HETATM   12  O   UNL     1      68.026   5.800   9.481  1.00  0.00    -0.647 OA
HETATM   13  O   UNL     1      67.080   3.875   8.897  1.00  0.00    -0.647 OA
ENDBRANCH   1  11
BRANCH   2  14
HETATM   14  O   UNL     1      65.805   9.163   6.211  1.00  0.00    -0.390 OA
HETATM   15  H   UNL     1      66.525   9.607   5.735  1.00  0.00     0.210 HD
ENDBRANCH   2  14
TORSDOF 2
ENDMDL
MODEL 6
REMARK VINA RESULT:      -4.8      2.362      3.273
REMARK  2 active torsions:
REMARK  status: ('A' for Active; 'I' for Inactive)
REMARK    1  A    between atoms: C_1  and  C_3 
REMARK    2  A    between atoms: C_2  and  O_13 
ROOT
HETATM    1  C   UNL     1      63.199   9.012   4.937  1.00  0.00     0.052 C 
HETATM    2  C   UNL     1      62.791   6.667   5.791  1.00  0.00     0.060 C 
HETATM    3  C   UNL     1      62.436   8.153   5.967  1.00  0.00     0.058 C 
HETATM    4  C   UNL     1      62.830   8.535   3.513  1.00  0.00     0.025 C 
HETATM    5  C   UNL     1      64.718   8.793   5.147  1.00  0.00     0.025 C 
HETATM    6  C   UNL     1      63.188   7.048   3.332  1.00  0.00    -0.010 C 
HETATM    7  C   UNL     1      65.083   7.309   4.973  1.00  0.00    -0.010 C 
HETATM    8  C   UNL     1      62.418   6.214   4.368  1.00  0.00     0.042 C 
HETATM    9  C   UNL     1      64.302   6.476   6.000  1.00  0.00     0.042 C 
HETATM   10  C   UNL     1      64.698   6.857   3.554  1.00  0.00     0.009 C 
ENDROOT
BRANCH   1  11
HETATM   11  C   UNL     1      62.855  10.483   5.113  1.00  0.00     0.182 C 
HETATM   12  O   UNL     1      62.063  11.135   4.451  1.00  0.00    -0.647 OA
HETATM   13  O   UNL     1      63.526  11.070   6.125  1.00  0.00    -0.647 OA
ENDBRANCH   1  11
BRANCH   2  14
HETATM   14  O   UNL     1      62.090   5.886   6.747  1.00  0.00    -0.390 OA
HETATM   15  H   UNL     1      61.143   6.087   6.696  1.00  0.00     0.210 HD
ENDBRANCH   2  14
TORSDOF 2
ENDMDL
MODEL 7
REMARK VINA RESULT:      -4.7      2.238      3.524
REMARK  2 active torsions:
REMARK  status: ('A' for Active; 'I' for Inactive)
REMARK    1  A    between atoms: C_1  and  C_3 
REMARK    2  A    between atoms: C_2  and  O_13 
ROOT
HETATM    1  C   UNL     1      63.371   8.927   4.956  1.00  0.00     0.052 C 
HETATM    2  C   UNL     1      63.121   7.076   3.250  1.00  0.00     0.060 C 
HETATM    3  C   UNL     1      62.894   8.571   3.532  1.00  0.00     0.058 C 
HETATM    4  C   UNL     1      64.873   8.576   5.085  1.00  0.00     0.025 C 
HETATM    5  C   UNL     1      62.580   8.062   5.967  1.00  0.00     0.025 C 
HETATM    6  C   UNL     1      65.103   7.078   4.806  1.00  0.00    -0.010 C 
HETATM    7  C   UNL     1      62.800   6.564   5.693  1.00  0.00    -0.010 C 
HETATM    8  C   UNL     1      64.619   6.748   3.386  1.00  0.00     0.042 C 
HETATM    9  C   UNL     1      62.329   6.240   4.268  1.00  0.00     0.042 C 
HETATM   10  C   UNL     1      64.299   6.243   5.818  1.00  0.00     0.009 C 
ENDROOT
BRANCH   1  11
HETATM   11  C   UNL     1      63.143  10.403   5.240  1.00  0.00     0.182 C 
HETATM   12  O   UNL     1      62.250  11.105   4.794  1.00  0.00    -0.647 OA
HETATM   13  O   UNL     1      64.054  10.930   6.083  1.00  0.00    -0.647 OA
ENDBRANCH   1  11
BRANCH   2  14
HETATM   14  O   UNL     1      62.672   6.758   1.942  1.00  0.00    -0.390 OA
HETATM   15  H   UNL     1      61.987   7.389   1.672  1.00  0.00     0.210 HD
ENDBRANCH   2  14
TORSDOF 2
ENDMDL
MODEL 8
REMARK VINA RESULT:      -4.5      1.698      2.243
REMARK  2 active torsions:
REMARK  status: ('A' for Active; 'I' for Inactive)
REMARK    1  A    between atoms: C_1  and  C_3 
REMARK    2  A    between atoms: C_2  and  O_13 
ROOT
HETATM    1  C   UNL     1      63.330   7.926   4.575  1.00  0.00     0.052 C 
HETATM    2  C   UNL     1      61.126   6.882   3.904  1.00  0.00     0.060 C 
HETATM    3  C   UNL     1      62.139   7.065   5.047  1.00  0.00     0.058 C 
HETATM    4  C   UNL     1      62.800   9.299   4.099  1.00  0.00     0.025 C 
HETATM    5  C   UNL     1      63.999   7.217   3.372  1.00  0.00     0.025 C 
HETATM    6  C   UNL     1      61.788   9.119   2.952  1.00  0.00    -0.010 C 
HETATM    7  C   UNL     1      62.993   7.029   2.223  1.00  0.00    -0.010 C 
HETATM    8  C   UNL     1      60.614   8.259   3.445  1.00  0.00     0.042 C 
HETATM    9  C   UNL     1      61.813   6.181   2.722  1.00  0.00     0.042 C 
HETATM   10  C   UNL     1      62.475   8.406   1.775  1.00  0.00     0.009 C 
ENDROOT
BRANCH   1  11
HETATM   11  C   UNL     1      64.337   8.103   5.701  1.00  0.00     0.182 C 
HETATM   12  O   UNL     1      64.510   7.360   6.653  1.00  0.00    -0.647 OA
HETATM   13  O   UNL     1      65.087   9.216   5.573  1.00  0.00    -0.647 OA
ENDBRANCH   1  11
BRANCH   2  14
HETATM   14  O   UNL     1      60.039   6.084   4.346  1.00  0.00    -0.390 OA
HETATM   15  H   UNL     1      60.121   5.191   3.974  1.00  0.00     0.210 HD
ENDBRANCH   2  14
TORSDOF 2
ENDMDL
MODEL 9
REMARK VINA RESULT:      -4.5      5.287      6.603
REMARK  2 active torsions:
REMARK  status: ('A' for Active; 'I' for Inactive)
REMARK    1  A    between atoms: C_1  and  C_3 
REMARK    2  A    between atoms: C_2  and  O_13 
ROOT
HETATM    1  C   UNL     1      66.113   6.288   7.016  1.00  0.00     0.052 C 
HETATM    2  C   UNL     1      66.780   5.923   4.604  1.00  0.00     0.060 C 
HETATM    3  C   UNL     1      66.926   5.406   6.045  1.00  0.00     0.058 C 
HETATM    4  C   UNL     1      64.627   6.271   6.586  1.00  0.00     0.025 C 
HETATM    5  C   UNL     1      66.635   7.742   6.910  1.00  0.00     0.025 C 
HETATM    6  C   UNL     1      64.477   6.792   5.144  1.00  0.00    -0.010 C 
HETATM    7  C   UNL     1      66.493   8.268   5.471  1.00  0.00    -0.010 C 
HETATM    8  C   UNL     1      65.295   5.900   4.197  1.00  0.00     0.042 C 
HETATM    9  C   UNL     1      67.300   7.367   4.525  1.00  0.00     0.042 C 
HETATM   10  C   UNL     1      65.011   8.232   5.064  1.00  0.00     0.009 C 
ENDROOT
BRANCH   1  11
HETATM   11  C   UNL     1      66.260   5.784   8.443  1.00  0.00     0.182 C 
HETATM   12  O   UNL     1      66.350   6.460   9.454  1.00  0.00    -0.647 OA
HETATM   13  O   UNL     1      66.285   4.438   8.532  1.00  0.00    -0.647 OA
ENDBRANCH   1  11
BRANCH   2  14
HETATM   14  O   UNL     1      67.537   5.110   3.720  1.00  0.00    -0.390 OA
HETATM   15  H   UNL     1      67.792   5.629   2.942  1.00  0.00     0.210 HD
ENDBRANCH   2  14
TORSDOF 2
ENDMDL
