MODEL 1
REMARK VINA RESULT:      -6.4      0.000      0.000
REMARK  1 active torsions:
REMARK  status: ('A' for Active; 'I' for Inactive)
REMARK    1  A    between atoms: C_6  and  C_7 
REMARK       I    between atoms: C_7  and  N_10 
ROOT
HETATM    1  C   UNL     1      63.002   7.664   3.696  1.00  0.00     0.005 A 
HETATM    2  C   UNL     1      62.921   7.072   2.410  1.00  0.00     0.027 A 
HETATM    3  C   UNL     1      62.504   8.094   1.434  1.00  0.00     0.194 A 
HETATM    4  C   UNL     1      62.619   9.076   3.544  1.00  0.00    -0.010 A 
HETATM    5  C   UNL     1      62.314   9.337   2.193  1.00  0.00     0.026 A 
HETATM    6  C   UNL     1      63.362   6.832   4.765  1.00  0.00     0.043 A 
HETATM    7  O   UNL     1      62.336   7.933   0.244  1.00  0.00    -0.287 OA
HETATM    8  C   UNL     1      63.161   5.740   2.125  1.00  0.00     0.016 A 
HETATM    9  C   UNL     1      62.476  10.128   4.434  1.00  0.00     0.013 A 
HETATM   10  C   UNL     1      61.878  10.556   1.699  1.00  0.00     0.016 A 
HETATM   11  C   UNL     1      63.606   5.461   4.489  1.00  0.00     0.018 A 
HETATM   12  C   UNL     1      63.504   4.924   3.192  1.00  0.00     0.002 A 
HETATM   13  C   UNL     1      62.041  11.382   3.965  1.00  0.00     0.001 A 
HETATM   14  C   UNL     1      61.738  11.594   2.612  1.00  0.00     0.001 A 
ENDROOT
BRANCH   6  15
HETATM   15  C   UNL     1      63.559   7.315   6.166  1.00  0.00     0.250 C 
HETATM   16  O   UNL     1      62.619   7.578   6.909  1.00  0.00    -0.268 OA
HETATM   17  N   UNL     1      64.832   7.513   6.625  1.00  0.00    -0.366 N 
HETATM   18  H   UNL     1      65.602   7.309   6.046  1.00  0.00     0.159 HD
HETATM   19  H   UNL     1      64.979   7.861   7.535  1.00  0.00     0.159 HD
ENDBRANCH   6  15
TORSDOF 1
ENDMDL
MODEL 2
REMARK VINA RESULT:      -6.3      1.463      3.945
REMARK  1 active torsions:
REMARK  status: ('A' for Active; 'I' for Inactive)
REMARK    1  A    between atoms: C_6  and  C_7 
REMARK       I    between atoms: C_7  and  N_10 
ROOT
HETATM    1  C   UNL     1      63.248   8.553   3.661  1.00  0.00     0.005 A 
HETATM    2  C   UNL     1      62.324   9.297   2.884  1.00  0.00     0.027 A 
HETATM    3  C   UNL     1      62.029   8.555   1.645  1.00  0.00     0.194 A 
HETATM    4  C   UNL     1      63.558   7.330   2.907  1.00  0.00    -0.010 A 
HETATM    5  C   UNL     1      62.836   7.329   1.696  1.00  0.00     0.026 A 
HETATM    6  C   UNL     1      63.669   9.118   4.873  1.00  0.00     0.043 A 
HETATM    7  O   UNL     1      61.281   8.900   0.756  1.00  0.00    -0.287 OA
HETATM    8  C   UNL     1      61.811  10.537   3.219  1.00  0.00     0.016 A 
HETATM    9  C   UNL     1      64.404   6.256   3.133  1.00  0.00     0.013 A 
HETATM   10  C   UNL     1      62.919   6.346   0.723  1.00  0.00     0.016 A 
HETATM   11  C   UNL     1      63.155  10.392   5.228  1.00  0.00     0.018 A 
HETATM   12  C   UNL     1      62.244  11.091   4.414  1.00  0.00     0.002 A 
HETATM   13  C   UNL     1      64.509   5.236   2.168  1.00  0.00     0.001 A 
HETATM   14  C   UNL     1      63.778   5.282   0.971  1.00  0.00     0.001 A 
ENDROOT
BRANCH   6  15
HETATM   15  C   UNL     1      64.582   8.433   5.838  1.00  0.00     0.250 C 
HETATM   16  O   UNL     1      65.755   8.761   5.980  1.00  0.00    -0.268 OA
HETATM   17  N   UNL     1      64.107   7.371   6.560  1.00  0.00    -0.366 N 
HETATM   18  H   UNL     1      63.169   7.090   6.462  1.00  0.00     0.159 HD
HETATM   19  H   UNL     1      64.704   6.889   7.176  1.00  0.00     0.159 HD
ENDBRANCH   6  15
TORSDOF 1
ENDMDL
MODEL 3
REMARK VINA RESULT:      -6.3      2.162      5.425
REMARK  1 active torsions:
REMARK  status: ('A' for Active; 'I' for Inactive)
REMARK    1  A    between atoms: C_6  and  C_7 
REMARK       I    between atoms: C_7  and  N_10 
ROOT
HETATM    1  C   UNL     1      63.163   8.645   3.501  1.00  0.00     0.005 A 
HETATM    2  C   UNL     1      63.667   9.131   4.734  1.00  0.00     0.027 A 
HETATM    3  C   UNL     1      64.610   8.145   5.291  1.00  0.00     0.194 A 
HETATM    4  C   UNL     1      63.777   7.329   3.273  1.00  0.00    -0.010 A 
HETATM    5  C   UNL     1      64.640   7.022   4.345  1.00  0.00     0.026 A 
HETATM    6  C   UNL     1      62.224   9.443   2.832  1.00  0.00     0.043 A 
HETATM    7  O   UNL     1      65.224   8.238   6.332  1.00  0.00    -0.287 OA
HETATM    8  C   UNL     1      63.305  10.323   5.334  1.00  0.00     0.016 A 
HETATM    9  C   UNL     1      63.649   6.373   2.278  1.00  0.00     0.013 A 
HETATM   10  C   UNL     1      65.354   5.841   4.477  1.00  0.00     0.016 A 
HETATM   11  C   UNL     1      61.838  10.667   3.438  1.00  0.00     0.018 A 
HETATM   12  C   UNL     1      62.367  11.098   4.669  1.00  0.00     0.002 A 
HETATM   13  C   UNL     1      64.364   5.165   2.376  1.00  0.00     0.001 A 
HETATM   14  C   UNL     1      65.204   4.897   3.468  1.00  0.00     0.001 A 
ENDROOT
BRANCH   6  15
HETATM   15  C   UNL     1      61.651   9.108   1.493  1.00  0.00     0.250 C 
HETATM   16  O   UNL     1      62.322   9.122   0.467  1.00  0.00    -0.268 OA
HETATM   17  N   UNL     1      60.316   8.818   1.398  1.00  0.00    -0.366 N 
HETATM   18  H   UNL     1      59.758   8.801   2.208  1.00  0.00     0.159 HD
HETATM   19  H   UNL     1      59.916   8.626   0.519  1.00  0.00     0.159 HD
ENDBRANCH   6  15
TORSDOF 1
ENDMDL
MODEL 4
REMARK VINA RESULT:      -6.2      1.279      1.326
REMARK  1 active torsions:
REMARK  status: ('A' for Active; 'I' for Inactive)
REMARK    1  A    between atoms: C_6  and  C_7 
REMARK       I    between atoms: C_7  and  N_10 
ROOT
HETATM    1  C   UNL     1      64.071   7.477   4.160  1.00  0.00     0.005 A 
HETATM    2  C   UNL     1      63.785   6.848   2.922  1.00  0.00     0.027 A 
HETATM    3  C   UNL     1      62.944   7.744   2.109  1.00  0.00     0.194 A 
HETATM    4  C   UNL     1      63.394   8.783   4.147  1.00  0.00    -0.010 A 
HETATM    5  C   UNL     1      62.712   8.945   2.923  1.00  0.00     0.026 A 
HETATM    6  C   UNL     1      64.845   6.759   5.082  1.00  0.00     0.043 A 
HETATM    7  O   UNL     1      62.516   7.523   0.997  1.00  0.00    -0.287 OA
HETATM    8  C   UNL     1      64.201   5.582   2.552  1.00  0.00     0.016 A 
HETATM    9  C   UNL     1      63.277   9.809   5.070  1.00  0.00     0.013 A 
HETATM   10  C   UNL     1      61.935  10.042   2.587  1.00  0.00     0.016 A 
HETATM   11  C   UNL     1      65.274   5.456   4.719  1.00  0.00     0.018 A 
HETATM   12  C   UNL     1      64.956   4.876   3.476  1.00  0.00     0.002 A 
HETATM   13  C   UNL     1      62.501  10.941   4.759  1.00  0.00     0.001 A 
HETATM   14  C   UNL     1      61.831  11.055   3.531  1.00  0.00     0.001 A 
ENDROOT
BRANCH   6  15
HETATM   15  C   UNL     1      65.291   7.306   6.400  1.00  0.00     0.250 C 
HETATM   16  O   UNL     1      64.762   6.984   7.459  1.00  0.00    -0.268 OA
HETATM   17  N   UNL     1      66.297   8.234   6.426  1.00  0.00    -0.366 N 
HETATM   18  H   UNL     1      66.736   8.507   5.588  1.00  0.00     0.159 HD
HETATM   19  H   UNL     1      66.581   8.627   7.282  1.00  0.00     0.159 HD
ENDBRANCH   6  15
TORSDOF 1
ENDMDL
MODEL 5
REMARK VINA RESULT:      -5.7      2.496      4.043
REMARK  1 active torsions:
REMARK  status: ('A' for Active; 'I' for Inactive)
REMARK    1  A    between atoms: C_6  and  C_7 
REMARK       I    between atoms: C_7  and  N_10 
ROOT
HETATM    1  C   UNL     1      64.627   6.917   3.578  1.00  0.00     0.005 A 
HETATM    2  C   UNL     1      65.587   7.193   4.584  1.00  0.00     0.027 A 
HETATM    3  C   UNL     1      65.189   8.414   5.307  1.00  0.00     0.194 A 
HETATM    4  C   UNL     1      63.612   7.978   3.648  1.00  0.00    -0.010 A 
HETATM    5  C   UNL     1      63.947   8.881   4.677  1.00  0.00     0.026 A 
HETATM    6  C   UNL     1      64.853   5.797   2.764  1.00  0.00     0.043 A 
HETATM    7  O   UNL     1      65.781   8.935   6.228  1.00  0.00    -0.287 OA
HETATM    8  C   UNL     1      66.731   6.453   4.824  1.00  0.00     0.016 A 
HETATM    9  C   UNL     1      62.473   8.262   2.911  1.00  0.00     0.013 A 
HETATM   10  C   UNL     1      63.231  10.024   4.995  1.00  0.00     0.016 A 
HETATM   11  C   UNL     1      66.026   5.033   2.995  1.00  0.00     0.018 A 
HETATM   12  C   UNL     1      66.950   5.356   4.006  1.00  0.00     0.002 A 
HETATM   13  C   UNL     1      61.718   9.412   3.211  1.00  0.00     0.001 A 
HETATM   14  C   UNL     1      62.096  10.288   4.239  1.00  0.00     0.001 A 
ENDROOT
BRANCH   6  15
HETATM   15  C   UNL     1      63.904   5.331   1.707  1.00  0.00     0.250 C 
HETATM   16  O   UNL     1      64.074   5.573   0.517  1.00  0.00    -0.268 OA
HETATM   17  N   UNL     1      62.780   4.646   2.082  1.00  0.00    -0.366 N 
HETATM   18  H   UNL     1      62.622   4.441   3.031  1.00  0.00     0.159 HD
HETATM   19  H   UNL     1      62.129   4.360   1.401  1.00  0.00     0.159 HD
ENDBRANCH   6  15
TORSDOF 1
ENDMDL
MODEL 6
REMARK VINA RESULT:      -5.6      2.663      5.405
REMARK  1 active torsions:
REMARK  status: ('A' for Active; 'I' for Inactive)
REMARK    1  A    between atoms: C_6  and  C_7 
REMARK       I    between atoms: C_7  and  N_10 
ROOT
HETATM    1  C   UNL     1      63.732   7.742   3.540  1.00  0.00     0.005 A 
HETATM    2  C   UNL     1      63.956   8.728   4.534  1.00  0.00     0.027 A 
HETATM    3  C   UNL     1      65.210   8.419   5.244  1.00  0.00     0.194 A 
HETATM    4  C   UNL     1      64.845   6.785   3.623  1.00  0.00    -0.010 A 
HETATM    5  C   UNL     1      65.729   7.183   4.646  1.00  0.00     0.026 A 
HETATM    6  C   UNL     1      62.564   7.857   2.773  1.00  0.00     0.043 A 
HETATM    7  O   UNL     1      65.702   9.054   6.152  1.00  0.00    -0.287 OA
HETATM    8  C   UNL     1      63.114   9.789   4.814  1.00  0.00     0.016 A 
HETATM    9  C   UNL     1      65.151   5.615   2.949  1.00  0.00     0.013 A 
HETATM   10  C   UNL     1      66.866   6.488   5.027  1.00  0.00     0.016 A 
HETATM   11  C   UNL     1      61.687   8.938   3.054  1.00  0.00     0.018 A 
HETATM   12  C   UNL     1      61.956   9.886   4.058  1.00  0.00     0.002 A 
HETATM   13  C   UNL     1      66.303   4.887   3.304  1.00  0.00     0.001 A 
HETATM   14  C   UNL     1      67.150   5.315   4.338  1.00  0.00     0.001 A 
ENDROOT
BRANCH   6  15
HETATM   15  C   UNL     1      62.216   6.943   1.643  1.00  0.00     0.250 C 
HETATM   16  O   UNL     1      61.598   5.897   1.809  1.00  0.00    -0.268 OA
HETATM   17  N   UNL     1      62.640   7.260   0.380  1.00  0.00    -0.366 N 
HETATM   18  H   UNL     1      63.138   8.094   0.223  1.00  0.00     0.159 HD
HETATM   19  H   UNL     1      62.447   6.653  -0.370  1.00  0.00     0.159 HD
ENDBRANCH   6  15
TORSDOF 1
ENDMDL
MODEL 7
REMARK VINA RESULT:      -5.6      3.025      4.383
REMARK  1 active torsions:
REMARK  status: ('A' for Active; 'I' for Inactive)
REMARK    1  A    between atoms: C_6  and  C_7 
REMARK       I    between atoms: C_7  and  N_10 
ROOT
HETATM    1  C   UNL     1      65.450   6.862   4.297  1.00  0.00     0.005 A 
HETATM    2  C   UNL     1      65.657   7.877   5.265  1.00  0.00     0.027 A 
HETATM    3  C   UNL     1      64.587   8.883   5.143  1.00  0.00     0.194 A 
HETATM    4  C   UNL     1      64.245   7.228   3.538  1.00  0.00    -0.010 A 
HETATM    5  C   UNL     1      63.728   8.441   4.037  1.00  0.00     0.026 A 
HETATM    6  C   UNL     1      66.391   5.823   4.245  1.00  0.00     0.043 A 
HETATM    7  O   UNL     1      64.456   9.884   5.813  1.00  0.00    -0.287 OA
HETATM    8  C   UNL     1      66.713   7.931   6.156  1.00  0.00     0.016 A 
HETATM    9  C   UNL     1      63.581   6.657   2.465  1.00  0.00     0.013 A 
HETATM   10  C   UNL     1      62.620   9.100   3.529  1.00  0.00     0.016 A 
HETATM   11  C   UNL     1      67.483   5.869   5.150  1.00  0.00     0.018 A 
HETATM   12  C   UNL     1      67.643   6.906   6.087  1.00  0.00     0.002 A 
HETATM   13  C   UNL     1      62.448   7.296   1.927  1.00  0.00     0.001 A 
HETATM   14  C   UNL     1      61.974   8.509   2.450  1.00  0.00     0.001 A 
ENDROOT
BRANCH   6  15
HETATM   15  C   UNL     1      66.280   4.645   3.332  1.00  0.00     0.250 C 
HETATM   16  O   UNL     1      65.468   3.744   3.515  1.00  0.00    -0.268 OA
HETATM   17  N   UNL     1      67.146   4.540   2.277  1.00  0.00    -0.366 N 
HETATM   18  H   UNL     1      67.806   5.251   2.110  1.00  0.00     0.159 HD
HETATM   19  H   UNL     1      67.107   3.755   1.685  1.00  0.00     0.159 HD
ENDBRANCH   6  15
TORSDOF 1
ENDMDL
MODEL 8
REMARK VINA RESULT:      -5.6      2.636      5.219
REMARK  1 active torsions:
REMARK  status: ('A' for Active; 'I' for Inactive)
REMARK    1  A    between atoms: C_6  and  C_7 
REMARK       I    between atoms: C_7  and  N_10 
ROOT
HETATM    1  C   UNL     1      64.001   7.362   3.384  1.00  0.00     0.005 A 
HETATM    2  C   UNL     1      63.590   8.540   4.058  1.00  0.00     0.027 A 
HETATM    3  C   UNL     1      64.589   8.879   5.086  1.00  0.00     0.194 A 
HETATM    4  C   UNL     1      65.268   6.935   3.995  1.00  0.00    -0.010 A 
HETATM    5  C   UNL     1      65.622   7.837   5.019  1.00  0.00     0.026 A 
HETATM    6  C   UNL     1      63.155   6.868   2.380  1.00  0.00     0.043 A 
HETATM    7  O   UNL     1      64.554   9.823   5.846  1.00  0.00    -0.287 OA
HETATM    8  C   UNL     1      62.421   9.236   3.813  1.00  0.00     0.016 A 
HETATM    9  C   UNL     1      66.113   5.857   3.790  1.00  0.00     0.013 A 
HETATM   10  C   UNL     1      66.737   7.717   5.832  1.00  0.00     0.016 A 
HETATM   11  C   UNL     1      61.949   7.570   2.122  1.00  0.00     0.018 A 
HETATM   12  C   UNL     1      61.586   8.732   2.827  1.00  0.00     0.002 A 
HETATM   13  C   UNL     1      67.259   5.707   4.593  1.00  0.00     0.001 A 
HETATM   14  C   UNL     1      67.567   6.625   5.609  1.00  0.00     0.001 A 
ENDROOT
BRANCH   6  15
HETATM   15  C   UNL     1      63.476   5.681   1.531  1.00  0.00     0.250 C 
HETATM   16  O   UNL     1      63.917   5.787   0.391  1.00  0.00    -0.268 OA
HETATM   17  N   UNL     1      63.229   4.428   2.023  1.00  0.00    -0.366 N 
HETATM   18  H   UNL     1      62.875   4.318   2.935  1.00  0.00     0.159 HD
HETATM   19  H   UNL     1      63.405   3.637   1.464  1.00  0.00     0.159 HD
ENDBRANCH   6  15
TORSDOF 1
ENDMDL
MODEL 9
REMARK VINA RESULT:      -5.5      1.978      3.563
REMARK  1 active torsions:
REMARK  status: ('A' for Active; 'I' for Inactive)
REMARK    1  A    between atoms: C_6  and  C_7 
REMARK       I    between atoms: C_7  and  N_10 
ROOT
HETATM    1  C   UNL     1      63.318   7.290   3.900  1.00  0.00     0.005 A 
HETATM    2  C   UNL     1      63.467   7.838   5.199  1.00  0.00     0.027 A 
HETATM    3  C   UNL     1      62.996   9.235   5.188  1.00  0.00     0.194 A 
HETATM    4  C   UNL     1      62.760   8.349   3.046  1.00  0.00    -0.010 A 
HETATM    5  C   UNL     1      62.572   9.518   3.811  1.00  0.00     0.026 A 
HETATM    6  C   UNL     1      63.740   5.966   3.709  1.00  0.00     0.043 A 
HETATM    7  O   UNL     1      62.981  10.000   6.128  1.00  0.00    -0.287 OA
HETATM    8  C   UNL     1      64.000   7.178   6.291  1.00  0.00     0.016 A 
HETATM    9  C   UNL     1      62.438   8.421   1.701  1.00  0.00     0.013 A 
HETATM   10  C   UNL     1      62.101  10.723   3.316  1.00  0.00     0.016 A 
HETATM   11  C   UNL     1      64.295   5.278   4.819  1.00  0.00     0.018 A 
HETATM   12  C   UNL     1      64.426   5.875   6.088  1.00  0.00     0.002 A 
HETATM   13  C   UNL     1      61.950   9.628   1.165  1.00  0.00     0.001 A 
HETATM   14  C   UNL     1      61.788  10.771   1.963  1.00  0.00     0.001 A 
ENDROOT
BRANCH   6  15
HETATM   15  C   UNL     1      63.588   5.221   2.422  1.00  0.00     0.250 C 
HETATM   16  O   UNL     1      64.474   5.183   1.575  1.00  0.00    -0.268 OA
HETATM   17  N   UNL     1      62.401   4.593   2.157  1.00  0.00    -0.366 N 
HETATM   18  H   UNL     1      61.676   4.611   2.822  1.00  0.00     0.159 HD
HETATM   19  H   UNL     1      62.273   4.125   1.300  1.00  0.00     0.159 HD
ENDBRANCH   6  15
TORSDOF 1
ENDMDL
