MODEL 1
REMARK VINA RESULT:      -5.2      0.000      0.000
REMARK  1 active torsions:
REMARK  status: ('A' for Active; 'I' for Inactive)
REMARK    1  A    between atoms: N_1  and  C_7 
ROOT
HETATM    1  N   UNL     1      63.964   8.194   5.211  1.00  0.00    -0.240 N 
HETATM    2  C   UNL     1      63.490   7.234   6.109  1.00  0.00     0.123 C 
HETATM    3  N   UNL     1      65.319   8.128   5.090  1.00  0.00    -0.297 N 
ATOM      4  HN  UNL     1      65.908   8.606   4.409  1.00  0.00     0.187 HD
HETATM    5  C   UNL     1      64.601   6.678   6.694  1.00  0.00     0.076 C 
HETATM    6  C   UNL     1      65.702   7.296   6.065  1.00  0.00     0.026 C 
HETATM    7  N   UNL     1      62.180   6.917   6.299  1.00  0.00    -0.384 N 
HETATM    8  C   UNL     1      67.141   7.116   6.373  1.00  0.00     0.070 C 
HETATM    9  H   UNL     1      61.480   7.405   5.807  1.00  0.00     0.157 HD
HETATM   10  H   UNL     1      61.932   6.202   6.928  1.00  0.00     0.157 HD
ENDROOT
BRANCH   1  11
HETATM   11  C   UNL     1      63.223   9.163   4.483  1.00  0.00     0.058 A 
HETATM   12  C   UNL     1      62.788   8.891   3.179  1.00  0.00     0.031 A 
HETATM   13  C   UNL     1      62.061   9.848   2.471  1.00  0.00     0.002 A 
HETATM   14  C   UNL     1      61.779  11.080   3.056  1.00  0.00     0.000 A 
HETATM   15  C   UNL     1      62.200  11.351   4.358  1.00  0.00     0.002 A 
HETATM   16  C   UNL     1      62.903  10.387   5.083  1.00  0.00     0.031 A 
ENDBRANCH   1  11
TORSDOF 1
ENDMDL
MODEL 2
REMARK VINA RESULT:      -5.1      1.382      4.871
REMARK  1 active torsions:
REMARK  status: ('A' for Active; 'I' for Inactive)
REMARK    1  A    between atoms: N_1  and  C_7 
ROOT
HETATM    1  N   UNL     1      63.417   9.087   4.466  1.00  0.00    -0.240 N 
HETATM    2  C   UNL     1      62.859  10.332   4.764  1.00  0.00     0.123 C 
HETATM    3  N   UNL     1      63.081   8.684   3.209  1.00  0.00    -0.297 N 
ATOM      4  HN  UNL     1      63.458   7.895   2.684  1.00  0.00     0.187 HD
HETATM    5  C   UNL     1      62.008  10.626   3.727  1.00  0.00     0.076 C 
HETATM    6  C   UNL     1      62.146   9.557   2.817  1.00  0.00     0.026 C 
HETATM    7  N   UNL     1      63.164  11.087   5.855  1.00  0.00    -0.384 N 
HETATM    8  C   UNL     1      61.394   9.336   1.558  1.00  0.00     0.070 C 
HETATM    9  H   UNL     1      63.798  10.747   6.526  1.00  0.00     0.157 HD
HETATM   10  H   UNL     1      62.750  11.972   5.973  1.00  0.00     0.157 HD
ENDROOT
BRANCH   1  11
HETATM   11  C   UNL     1      64.226   8.261   5.293  1.00  0.00     0.058 A 
HETATM   12  C   UNL     1      63.654   7.209   6.021  1.00  0.00     0.031 A 
HETATM   13  C   UNL     1      64.455   6.404   6.830  1.00  0.00     0.002 A 
HETATM   14  C   UNL     1      65.822   6.654   6.925  1.00  0.00     0.000 A 
HETATM   15  C   UNL     1      66.398   7.693   6.193  1.00  0.00     0.002 A 
HETATM   16  C   UNL     1      65.606   8.485   5.358  1.00  0.00     0.031 A 
ENDBRANCH   1  11
TORSDOF 1
ENDMDL
MODEL 3
REMARK VINA RESULT:      -5.1      1.420      2.504
REMARK  1 active torsions:
REMARK  status: ('A' for Active; 'I' for Inactive)
REMARK    1  A    between atoms: N_1  and  C_7 
ROOT
HETATM    1  N   UNL     1      62.688   8.103   4.820  1.00  0.00    -0.240 N 
HETATM    2  C   UNL     1      63.866   7.923   5.548  1.00  0.00     0.123 C 
HETATM    3  N   UNL     1      61.743   7.190   5.179  1.00  0.00    -0.297 N 
ATOM      4  HN  UNL     1      60.757   7.176   4.918  1.00  0.00     0.187 HD
HETATM    5  C   UNL     1      63.706   6.753   6.249  1.00  0.00     0.076 C 
HETATM    6  C   UNL     1      62.398   6.317   5.952  1.00  0.00     0.026 C 
HETATM    7  N   UNL     1      64.919   8.786   5.561  1.00  0.00    -0.384 N 
HETATM    8  C   UNL     1      61.740   5.062   6.390  1.00  0.00     0.070 C 
HETATM    9  H   UNL     1      64.898   9.595   5.001  1.00  0.00     0.157 HD
HETATM   10  H   UNL     1      65.701   8.601   6.130  1.00  0.00     0.157 HD
ENDROOT
BRANCH   1  11
HETATM   11  C   UNL     1      62.411   9.064   3.811  1.00  0.00     0.058 A 
HETATM   12  C   UNL     1      62.391   8.689   2.460  1.00  0.00     0.031 A 
HETATM   13  C   UNL     1      62.120   9.639   1.476  1.00  0.00     0.002 A 
HETATM   14  C   UNL     1      61.882  10.964   1.834  1.00  0.00     0.000 A 
HETATM   15  C   UNL     1      61.889  11.339   3.178  1.00  0.00     0.002 A 
HETATM   16  C   UNL     1      62.132  10.388   4.171  1.00  0.00     0.031 A 
ENDBRANCH   1  11
TORSDOF 1
ENDMDL
MODEL 4
REMARK VINA RESULT:      -5.1      1.189      2.049
REMARK  1 active torsions:
REMARK  status: ('A' for Active; 'I' for Inactive)
REMARK    1  A    between atoms: N_1  and  C_7 
ROOT
HETATM    1  N   UNL     1      62.746   8.044   4.631  1.00  0.00    -0.240 N 
HETATM    2  C   UNL     1      61.897   7.054   5.134  1.00  0.00     0.123 C 
HETATM    3  N   UNL     1      64.009   7.904   5.121  1.00  0.00    -0.297 N 
ATOM      4  HN  UNL     1      64.853   8.392   4.820  1.00  0.00     0.187 HD
HETATM    5  C   UNL     1      62.615   6.392   6.100  1.00  0.00     0.076 C 
HETATM    6  C   UNL     1      63.895   6.984   6.086  1.00  0.00     0.026 C 
HETATM    7  N   UNL     1      60.635   6.805   4.691  1.00  0.00    -0.384 N 
HETATM    8  C   UNL     1      65.037   6.695   6.986  1.00  0.00     0.070 C 
HETATM    9  H   UNL     1      60.242   7.368   3.984  1.00  0.00     0.157 HD
HETATM   10  H   UNL     1      60.114   6.064   5.076  1.00  0.00     0.157 HD
ENDROOT
BRANCH   1  11
HETATM   11  C   UNL     1      62.434   9.105   3.740  1.00  0.00     0.058 A 
HETATM   12  C   UNL     1      62.204  10.399   4.229  1.00  0.00     0.031 A 
HETATM   13  C   UNL     1      61.898  11.434   3.347  1.00  0.00     0.002 A 
HETATM   14  C   UNL     1      61.807  11.180   1.980  1.00  0.00     0.000 A 
HETATM   15  C   UNL     1      62.047   9.897   1.487  1.00  0.00     0.002 A 
HETATM   16  C   UNL     1      62.382   8.861   2.362  1.00  0.00     0.031 A 
ENDBRANCH   1  11
TORSDOF 1
ENDMDL
MODEL 5
REMARK VINA RESULT:      -4.9      1.802      2.929
REMARK  1 active torsions:
REMARK  status: ('A' for Active; 'I' for Inactive)
REMARK    1  A    between atoms: N_1  and  C_7 
ROOT
HETATM    1  N   UNL     1      65.681   7.404   5.737  1.00  0.00    -0.240 N 
HETATM    2  C   UNL     1      67.033   7.146   5.499  1.00  0.00     0.123 C 
HETATM    3  N   UNL     1      65.381   7.276   7.060  1.00  0.00    -0.297 N 
ATOM      4  HN  UNL     1      64.516   7.539   7.532  1.00  0.00     0.187 HD
HETATM    5  C   UNL     1      67.544   6.670   6.682  1.00  0.00     0.076 C 
HETATM    6  C   UNL     1      66.474   6.726   7.600  1.00  0.00     0.026 C 
HETATM    7  N   UNL     1      67.680   7.378   4.325  1.00  0.00    -0.384 N 
HETATM    8  C   UNL     1      66.462   6.258   9.007  1.00  0.00     0.070 C 
HETATM    9  H   UNL     1      67.182   7.724   3.549  1.00  0.00     0.157 HD
HETATM   10  H   UNL     1      68.646   7.200   4.250  1.00  0.00     0.157 HD
ENDROOT
BRANCH   1  11
HETATM   11  C   UNL     1      64.669   7.747   4.800  1.00  0.00     0.058 A 
HETATM   12  C   UNL     1      64.378   6.893   3.727  1.00  0.00     0.031 A 
HETATM   13  C   UNL     1      63.384   7.237   2.812  1.00  0.00     0.002 A 
HETATM   14  C   UNL     1      62.689   8.436   2.957  1.00  0.00     0.000 A 
HETATM   15  C   UNL     1      62.967   9.282   4.030  1.00  0.00     0.002 A 
HETATM   16  C   UNL     1      63.942   8.931   4.967  1.00  0.00     0.031 A 
ENDBRANCH   1  11
TORSDOF 1
ENDMDL
MODEL 6
REMARK VINA RESULT:      -4.8      1.943      5.002
REMARK  1 active torsions:
REMARK  status: ('A' for Active; 'I' for Inactive)
REMARK    1  A    between atoms: N_1  and  C_7 
ROOT
HETATM    1  N   UNL     1      62.695   8.824   3.339  1.00  0.00    -0.240 N 
HETATM    2  C   UNL     1      62.492   8.367   2.035  1.00  0.00     0.123 C 
HETATM    3  N   UNL     1      62.249  10.103   3.488  1.00  0.00    -0.297 N 
ATOM      4  HN  UNL     1      62.142  10.630   4.355  1.00  0.00     0.187 HD
HETATM    5  C   UNL     1      62.072   9.457   1.311  1.00  0.00     0.076 C 
HETATM    6  C   UNL     1      61.983  10.512   2.242  1.00  0.00     0.026 C 
HETATM    7  N   UNL     1      62.650   7.080   1.621  1.00  0.00    -0.384 N 
HETATM    8  C   UNL     1      61.647  11.931   1.975  1.00  0.00     0.070 C 
HETATM    9  H   UNL     1      62.962   6.395   2.256  1.00  0.00     0.157 HD
HETATM   10  H   UNL     1      62.452   6.834   0.689  1.00  0.00     0.157 HD
ENDROOT
BRANCH   1  11
HETATM   11  C   UNL     1      63.288   8.138   4.433  1.00  0.00     0.058 A 
HETATM   12  C   UNL     1      64.642   8.332   4.742  1.00  0.00     0.031 A 
HETATM   13  C   UNL     1      65.216   7.654   5.816  1.00  0.00     0.002 A 
HETATM   14  C   UNL     1      64.448   6.773   6.575  1.00  0.00     0.000 A 
HETATM   15  C   UNL     1      63.097   6.586   6.278  1.00  0.00     0.002 A 
HETATM   16  C   UNL     1      62.508   7.284   5.221  1.00  0.00     0.031 A 
ENDBRANCH   1  11
TORSDOF 1
ENDMDL
MODEL 7
REMARK VINA RESULT:      -4.7      1.361      5.032
REMARK  1 active torsions:
REMARK  status: ('A' for Active; 'I' for Inactive)
REMARK    1  A    between atoms: N_1  and  C_7 
ROOT
HETATM    1  N   UNL     1      64.400   8.321   4.999  1.00  0.00    -0.240 N 
HETATM    2  C   UNL     1      63.658   7.993   3.862  1.00  0.00     0.123 C 
HETATM    3  N   UNL     1      63.921   9.451   5.591  1.00  0.00    -0.297 N 
ATOM      4  HN  UNL     1      64.175   9.835   6.501  1.00  0.00     0.187 HD
HETATM    5  C   UNL     1      62.809   9.050   3.644  1.00  0.00     0.076 C 
HETATM    6  C   UNL     1      63.042   9.943   4.710  1.00  0.00     0.026 C 
HETATM    7  N   UNL     1      63.761   6.827   3.168  1.00  0.00    -0.384 N 
HETATM    8  C   UNL     1      62.441  11.283   4.919  1.00  0.00     0.070 C 
HETATM    9  H   UNL     1      64.423   6.150   3.439  1.00  0.00     0.157 HD
HETATM   10  H   UNL     1      63.175   6.660   2.395  1.00  0.00     0.157 HD
ENDROOT
BRANCH   1  11
HETATM   11  C   UNL     1      65.526   7.646   5.544  1.00  0.00     0.058 A 
HETATM   12  C   UNL     1      65.384   6.825   6.671  1.00  0.00     0.031 A 
HETATM   13  C   UNL     1      66.494   6.167   7.199  1.00  0.00     0.002 A 
HETATM   14  C   UNL     1      67.747   6.336   6.614  1.00  0.00     0.000 A 
HETATM   15  C   UNL     1      67.890   7.143   5.485  1.00  0.00     0.002 A 
HETATM   16  C   UNL     1      66.778   7.783   4.933  1.00  0.00     0.031 A 
ENDBRANCH   1  11
TORSDOF 1
ENDMDL
MODEL 8
REMARK VINA RESULT:      -4.7      3.060      5.437
REMARK  1 active torsions:
REMARK  status: ('A' for Active; 'I' for Inactive)
REMARK    1  A    between atoms: N_1  and  C_7 
ROOT
HETATM    1  N   UNL     1      60.983   8.558   2.398  1.00  0.00    -0.240 N 
HETATM    2  C   UNL     1      61.198   8.493   1.019  1.00  0.00     0.123 C 
HETATM    3  N   UNL     1      59.814   7.951   2.743  1.00  0.00    -0.297 N 
ATOM      4  HN  UNL     1      59.480   7.727   3.681  1.00  0.00     0.187 HD
HETATM    5  C   UNL     1      60.042   7.988   0.477  1.00  0.00     0.076 C 
HETATM    6  C   UNL     1      59.203   7.713   1.577  1.00  0.00     0.026 C 
HETATM    7  N   UNL     1      62.356   8.833   0.389  1.00  0.00    -0.384 N 
HETATM    8  C   UNL     1      57.804   7.222   1.550  1.00  0.00     0.070 C 
HETATM    9  H   UNL     1      63.113   9.187   0.910  1.00  0.00     0.157 HD
HETATM   10  H   UNL     1      62.437   8.724  -0.586  1.00  0.00     0.157 HD
ENDROOT
BRANCH   1  11
HETATM   11  C   UNL     1      61.800   9.164   3.391  1.00  0.00     0.058 A 
HETATM   12  C   UNL     1      62.751   8.405   4.087  1.00  0.00     0.031 A 
HETATM   13  C   UNL     1      63.547   9.007   5.061  1.00  0.00     0.002 A 
HETATM   14  C   UNL     1      63.389  10.360   5.350  1.00  0.00     0.000 A 
HETATM   15  C   UNL     1      62.452  11.122   4.651  1.00  0.00     0.002 A 
HETATM   16  C   UNL     1      61.670  10.532   3.655  1.00  0.00     0.031 A 
ENDBRANCH   1  11
TORSDOF 1
ENDMDL
MODEL 9
REMARK VINA RESULT:      -4.5      1.343      4.909
REMARK  1 active torsions:
REMARK  status: ('A' for Active; 'I' for Inactive)
REMARK    1  A    between atoms: N_1  and  C_7 
ROOT
HETATM    1  N   UNL     1      64.280   8.113   5.337  1.00  0.00    -0.240 N 
HETATM    2  C   UNL     1      63.267   7.583   4.535  1.00  0.00     0.123 C 
HETATM    3  N   UNL     1      64.011   9.403   5.682  1.00  0.00    -0.297 N 
ATOM      4  HN  UNL     1      64.499   9.981   6.366  1.00  0.00     0.187 HD
HETATM    5  C   UNL     1      62.437   8.632   4.227  1.00  0.00     0.076 C 
HETATM    6  C   UNL     1      62.965   9.741   4.921  1.00  0.00     0.026 C 
HETATM    7  N   UNL     1      63.146   6.272   4.189  1.00  0.00    -0.384 N 
HETATM    8  C   UNL     1      62.492  11.147   4.877  1.00  0.00     0.070 C 
HETATM    9  H   UNL     1      63.824   5.621   4.483  1.00  0.00     0.157 HD
HETATM   10  H   UNL     1      62.380   5.974   3.647  1.00  0.00     0.157 HD
ENDROOT
BRANCH   1  11
HETATM   11  C   UNL     1      65.475   7.485   5.780  1.00  0.00     0.058 A 
HETATM   12  C   UNL     1      66.624   7.499   4.976  1.00  0.00     0.031 A 
HETATM   13  C   UNL     1      67.793   6.879   5.418  1.00  0.00     0.002 A 
HETATM   14  C   UNL     1      67.815   6.235   6.653  1.00  0.00     0.000 A 
HETATM   15  C   UNL     1      66.678   6.229   7.462  1.00  0.00     0.002 A 
HETATM   16  C   UNL     1      65.512   6.872   7.038  1.00  0.00     0.031 A 
ENDBRANCH   1  11
TORSDOF 1
ENDMDL
