MODEL 1
REMARK VINA RESULT:      -5.4      0.000      0.000
REMARK  3 active torsions:
REMARK  status: ('A' for Active; 'I' for Inactive)
REMARK    1  A    between atoms: O_1  and  C_2 
REMARK    2  A    between atoms: O_1  and  C_4 
REMARK    3  A    between atoms: C_3  and  O_9 
ROOT
HETATM    1  C   UNL     1      63.151   8.877   5.060  1.00  0.00     0.076 A 
HETATM    2  C   UNL     1      61.980  10.595   3.209  1.00  0.00     0.065 A 
HETATM    3  C   UNL     1      62.692   8.381   3.835  1.00  0.00     0.040 A 
HETATM    4  C   UNL     1      62.958  10.225   5.377  1.00  0.00     0.040 A 
HETATM    5  C   UNL     1      62.372  11.084   4.448  1.00  0.00     0.039 A 
HETATM    6  C   UNL     1      62.131   9.248   2.895  1.00  0.00     0.039 A 
ENDROOT
BRANCH   1   7
HETATM    7  O   UNL     1      63.737   8.107   6.040  1.00  0.00    -0.311 OA
BRANCH   7   8
HETATM    8  C   UNL     1      65.035   7.676   5.897  1.00  0.00     0.076 A 
HETATM    9  C   UNL     1      65.906   8.101   4.890  1.00  0.00     0.037 A 
HETATM   10  C   UNL     1      67.201   7.582   4.822  1.00  0.00     0.003 A 
HETATM   11  C   UNL     1      67.646   6.681   5.789  1.00  0.00     0.000 A 
HETATM   12  C   UNL     1      66.799   6.308   6.833  1.00  0.00     0.003 A 
HETATM   13  C   UNL     1      65.497   6.804   6.887  1.00  0.00     0.037 A 
ENDBRANCH   7   8
ENDBRANCH   1   7
BRANCH   2  14
HETATM   14  O   UNL     1      61.442  11.477   2.318  1.00  0.00    -0.361 OA
HETATM   15  H   UNL     1      61.170  12.325   2.606  1.00  0.00     0.217 HD
ENDBRANCH   2  14
TORSDOF 3
ENDMDL
MODEL 2
REMARK VINA RESULT:      -5.4      0.662      1.452
REMARK  3 active torsions:
REMARK  status: ('A' for Active; 'I' for Inactive)
REMARK    1  A    between atoms: O_1  and  C_2 
REMARK    2  A    between atoms: O_1  and  C_4 
REMARK    3  A    between atoms: C_3  and  O_9 
ROOT
HETATM    1  C   UNL     1      63.202   8.969   5.127  1.00  0.00     0.076 A 
HETATM    2  C   UNL     1      61.968  10.605   3.241  1.00  0.00     0.065 A 
HETATM    3  C   UNL     1      63.001  10.326   5.399  1.00  0.00     0.040 A 
HETATM    4  C   UNL     1      62.842   8.454   3.878  1.00  0.00     0.040 A 
HETATM    5  C   UNL     1      62.223   9.274   2.935  1.00  0.00     0.039 A 
HETATM    6  C   UNL     1      62.356  11.141   4.466  1.00  0.00     0.039 A 
ENDROOT
BRANCH   1   7
HETATM    7  O   UNL     1      63.807   8.083   5.990  1.00  0.00    -0.311 OA
BRANCH   7   8
HETATM    8  C   UNL     1      65.000   7.490   5.650  1.00  0.00     0.076 A 
HETATM    9  C   UNL     1      66.136   8.182   5.219  1.00  0.00     0.037 A 
HETATM   10  C   UNL     1      67.293   7.479   4.875  1.00  0.00     0.003 A 
HETATM   11  C   UNL     1      67.337   6.092   5.014  1.00  0.00     0.000 A 
HETATM   12  C   UNL     1      66.227   5.408   5.507  1.00  0.00     0.003 A 
HETATM   13  C   UNL     1      65.061   6.105   5.825  1.00  0.00     0.037 A 
ENDBRANCH   7   8
ENDBRANCH   1   7
BRANCH   2  14
HETATM   14  O   UNL     1      61.331  11.363   2.304  1.00  0.00    -0.361 OA
HETATM   15  H   UNL     1      61.281  11.066   1.417  1.00  0.00     0.217 HD
ENDBRANCH   2  14
TORSDOF 3
ENDMDL
MODEL 3
REMARK VINA RESULT:      -5.1      1.734      5.762
REMARK  3 active torsions:
REMARK  status: ('A' for Active; 'I' for Inactive)
REMARK    1  A    between atoms: O_1  and  C_2 
REMARK    2  A    between atoms: O_1  and  C_4 
REMARK    3  A    between atoms: C_3  and  O_9 
ROOT
HETATM    1  C   UNL     1      65.803   7.905   6.029  1.00  0.00     0.076 A 
HETATM    2  C   UNL     1      67.258   5.538   6.209  1.00  0.00     0.065 A 
HETATM    3  C   UNL     1      65.306   6.830   6.775  1.00  0.00     0.040 A 
HETATM    4  C   UNL     1      66.999   7.760   5.321  1.00  0.00     0.040 A 
HETATM    5  C   UNL     1      67.728   6.575   5.412  1.00  0.00     0.039 A 
HETATM    6  C   UNL     1      66.049   5.653   6.889  1.00  0.00     0.039 A 
ENDROOT
BRANCH   1   7
HETATM    7  O   UNL     1      65.156   9.111   5.877  1.00  0.00    -0.311 OA
BRANCH   7   8
HETATM    8  C   UNL     1      64.101   9.224   5.002  1.00  0.00     0.076 A 
HETATM    9  C   UNL     1      63.774   8.277   4.026  1.00  0.00     0.037 A 
HETATM   10  C   UNL     1      62.693   8.500   3.171  1.00  0.00     0.003 A 
HETATM   11  C   UNL     1      61.902   9.639   3.325  1.00  0.00     0.000 A 
HETATM   12  C   UNL     1      62.187  10.550   4.341  1.00  0.00     0.003 A 
HETATM   13  C   UNL     1      63.283  10.343   5.178  1.00  0.00     0.037 A 
ENDBRANCH   7   8
ENDBRANCH   1   7
BRANCH   2  14
HETATM   14  O   UNL     1      68.018   4.409   6.297  1.00  0.00    -0.361 OA
HETATM   15  H   UNL     1      67.606   3.576   6.416  1.00  0.00     0.217 HD
ENDBRANCH   2  14
TORSDOF 3
ENDMDL
MODEL 4
REMARK VINA RESULT:      -5.0      3.418      4.787
REMARK  3 active torsions:
REMARK  status: ('A' for Active; 'I' for Inactive)
REMARK    1  A    between atoms: O_1  and  C_2 
REMARK    2  A    between atoms: O_1  and  C_4 
REMARK    3  A    between atoms: C_3  and  O_9 
ROOT
HETATM    1  C   UNL     1      61.985   8.387   3.471  1.00  0.00     0.076 A 
HETATM    2  C   UNL     1      61.954  10.945   2.372  1.00  0.00     0.065 A 
HETATM    3  C   UNL     1      62.102   9.508   4.300  1.00  0.00     0.040 A 
HETATM    4  C   UNL     1      61.919   8.556   2.085  1.00  0.00     0.040 A 
HETATM    5  C   UNL     1      61.903   9.837   1.536  1.00  0.00     0.039 A 
HETATM    6  C   UNL     1      62.058  10.792   3.752  1.00  0.00     0.039 A 
ENDROOT
BRANCH   1   7
HETATM    7  O   UNL     1      61.995   7.085   3.918  1.00  0.00    -0.311 OA
BRANCH   7   8
HETATM    8  C   UNL     1      61.091   6.672   4.869  1.00  0.00     0.076 A 
HETATM    9  C   UNL     1      61.417   6.367   6.194  1.00  0.00     0.037 A 
HETATM   10  C   UNL     1      60.423   5.934   7.075  1.00  0.00     0.003 A 
HETATM   11  C   UNL     1      59.097   5.859   6.652  1.00  0.00     0.000 A 
HETATM   12  C   UNL     1      58.761   6.227   5.349  1.00  0.00     0.003 A 
HETATM   13  C   UNL     1      59.756   6.633   4.460  1.00  0.00     0.037 A 
ENDBRANCH   7   8
ENDBRANCH   1   7
BRANCH   2  14
HETATM   14  O   UNL     1      61.902  12.180   1.797  1.00  0.00    -0.361 OA
HETATM   15  H   UNL     1      62.597  12.792   1.938  1.00  0.00     0.217 HD
ENDBRANCH   2  14
TORSDOF 3
ENDMDL
MODEL 5
REMARK VINA RESULT:      -5.0      1.738      5.611
REMARK  3 active torsions:
REMARK  status: ('A' for Active; 'I' for Inactive)
REMARK    1  A    between atoms: O_1  and  C_2 
REMARK    2  A    between atoms: O_1  and  C_4 
REMARK    3  A    between atoms: C_3  and  O_9 
ROOT
HETATM    1  C   UNL     1      64.224   7.179   4.769  1.00  0.00     0.076 A 
HETATM    2  C   UNL     1      66.797   7.068   5.828  1.00  0.00     0.065 A 
HETATM    3  C   UNL     1      64.419   7.285   6.151  1.00  0.00     0.040 A 
HETATM    4  C   UNL     1      65.319   6.951   3.932  1.00  0.00     0.040 A 
HETATM    5  C   UNL     1      66.607   6.896   4.463  1.00  0.00     0.039 A 
HETATM    6  C   UNL     1      65.712   7.258   6.680  1.00  0.00     0.039 A 
ENDROOT
BRANCH   1   7
HETATM    7  O   UNL     1      62.993   7.217   4.153  1.00  0.00    -0.311 OA
BRANCH   7   8
HETATM    8  C   UNL     1      62.622   8.315   3.413  1.00  0.00     0.076 A 
HETATM    9  C   UNL     1      62.392   8.302   2.034  1.00  0.00     0.037 A 
HETATM   10  C   UNL     1      62.041   9.481   1.374  1.00  0.00     0.003 A 
HETATM   11  C   UNL     1      61.864  10.661   2.095  1.00  0.00     0.000 A 
HETATM   12  C   UNL     1      62.028  10.661   3.480  1.00  0.00     0.003 A 
HETATM   13  C   UNL     1      62.406   9.490   4.138  1.00  0.00     0.037 A 
ENDBRANCH   7   8
ENDBRANCH   1   7
BRANCH   2  14
HETATM   14  O   UNL     1      68.075   7.042   6.302  1.00  0.00    -0.361 OA
HETATM   15  H   UNL     1      68.746   6.610   5.813  1.00  0.00     0.217 HD
ENDBRANCH   2  14
TORSDOF 3
ENDMDL
MODEL 6
REMARK VINA RESULT:      -4.6      3.163      6.176
REMARK  3 active torsions:
REMARK  status: ('A' for Active; 'I' for Inactive)
REMARK    1  A    between atoms: O_1  and  C_2 
REMARK    2  A    between atoms: O_1  and  C_4 
REMARK    3  A    between atoms: C_3  and  O_9 
ROOT
HETATM    1  C   UNL     1      61.853   8.588   3.605  1.00  0.00     0.076 A 
HETATM    2  C   UNL     1      62.978  10.528   5.256  1.00  0.00     0.065 A 
HETATM    3  C   UNL     1      61.615   9.945   3.358  1.00  0.00     0.040 A 
HETATM    4  C   UNL     1      62.603   8.211   4.723  1.00  0.00     0.040 A 
HETATM    5  C   UNL     1      63.166   9.183   5.549  1.00  0.00     0.039 A 
HETATM    6  C   UNL     1      62.202  10.919   4.169  1.00  0.00     0.039 A 
ENDROOT
BRANCH   1   7
HETATM    7  O   UNL     1      61.338   7.558   2.851  1.00  0.00    -0.311 OA
BRANCH   7   8
HETATM    8  C   UNL     1      59.977   7.415   2.713  1.00  0.00     0.076 A 
HETATM    9  C   UNL     1      59.067   7.419   3.774  1.00  0.00     0.037 A 
HETATM   10  C   UNL     1      57.704   7.243   3.526  1.00  0.00     0.003 A 
HETATM   11  C   UNL     1      57.242   7.119   2.217  1.00  0.00     0.000 A 
HETATM   12  C   UNL     1      58.141   7.182   1.153  1.00  0.00     0.003 A 
HETATM   13  C   UNL     1      59.506   7.330   1.400  1.00  0.00     0.037 A 
ENDBRANCH   7   8
ENDBRANCH   1   7
BRANCH   2  14
HETATM   14  O   UNL     1      63.574  11.446   6.070  1.00  0.00    -0.361 OA
HETATM   15  H   UNL     1      63.980  12.205   5.700  1.00  0.00     0.217 HD
ENDBRANCH   2  14
TORSDOF 3
ENDMDL
MODEL 7
REMARK VINA RESULT:      -4.6      1.336      2.023
REMARK  3 active torsions:
REMARK  status: ('A' for Active; 'I' for Inactive)
REMARK    1  A    between atoms: O_1  and  C_2 
REMARK    2  A    between atoms: O_1  and  C_4 
REMARK    3  A    between atoms: C_3  and  O_9 
ROOT
HETATM    1  C   UNL     1      63.324   8.497   5.230  1.00  0.00     0.076 A 
HETATM    2  C   UNL     1      61.069   8.403   3.599  1.00  0.00     0.065 A 
HETATM    3  C   UNL     1      62.540   7.338   5.181  1.00  0.00     0.040 A 
HETATM    4  C   UNL     1      62.931   9.627   4.508  1.00  0.00     0.040 A 
HETATM    5  C   UNL     1      61.802   9.579   3.691  1.00  0.00     0.039 A 
HETATM    6  C   UNL     1      61.426   7.281   4.341  1.00  0.00     0.039 A 
ENDROOT
BRANCH   1   7
HETATM    7  O   UNL     1      64.450   8.641   6.008  1.00  0.00    -0.311 OA
BRANCH   7   8
HETATM    8  C   UNL     1      65.456   7.705   5.950  1.00  0.00     0.076 A 
HETATM    9  C   UNL     1      65.765   6.808   6.977  1.00  0.00     0.037 A 
HETATM   10  C   UNL     1      66.824   5.911   6.824  1.00  0.00     0.003 A 
HETATM   11  C   UNL     1      67.539   5.868   5.628  1.00  0.00     0.000 A 
HETATM   12  C   UNL     1      67.189   6.717   4.579  1.00  0.00     0.003 A 
HETATM   13  C   UNL     1      66.149   7.633   4.739  1.00  0.00     0.037 A 
ENDBRANCH   7   8
ENDBRANCH   1   7
BRANCH   2  14
HETATM   14  O   UNL     1      59.992   8.388   2.763  1.00  0.00    -0.361 OA
HETATM   15  H   UNL     1      60.040   7.932   1.946  1.00  0.00     0.217 HD
ENDBRANCH   2  14
TORSDOF 3
ENDMDL
MODEL 8
REMARK VINA RESULT:      -4.6      3.043      5.414
REMARK  3 active torsions:
REMARK  status: ('A' for Active; 'I' for Inactive)
REMARK    1  A    between atoms: O_1  and  C_2 
REMARK    2  A    between atoms: O_1  and  C_4 
REMARK    3  A    between atoms: C_3  and  O_9 
ROOT
HETATM    1  C   UNL     1      62.000   8.829   3.739  1.00  0.00     0.076 A 
HETATM    2  C   UNL     1      63.555  10.474   5.361  1.00  0.00     0.065 A 
HETATM    3  C   UNL     1      63.157   8.326   4.345  1.00  0.00     0.040 A 
HETATM    4  C   UNL     1      61.666  10.177   3.899  1.00  0.00     0.040 A 
HETATM    5  C   UNL     1      62.445  10.999   4.711  1.00  0.00     0.039 A 
HETATM    6  C   UNL     1      63.921   9.143   5.181  1.00  0.00     0.039 A 
ENDROOT
BRANCH   1   7
HETATM    7  O   UNL     1      61.171   8.097   2.918  1.00  0.00    -0.311 OA
BRANCH   7   8
HETATM    8  C   UNL     1      60.208   7.278   3.459  1.00  0.00     0.076 A 
HETATM    9  C   UNL     1      58.885   7.660   3.698  1.00  0.00     0.037 A 
HETATM   10  C   UNL     1      57.991   6.755   4.274  1.00  0.00     0.003 A 
HETATM   11  C   UNL     1      58.399   5.452   4.559  1.00  0.00     0.000 A 
HETATM   12  C   UNL     1      59.700   5.050   4.259  1.00  0.00     0.003 A 
HETATM   13  C   UNL     1      60.603   5.961   3.709  1.00  0.00     0.037 A 
ENDBRANCH   7   8
ENDBRANCH   1   7
BRANCH   2  14
HETATM   14  O   UNL     1      64.269  11.304   6.173  1.00  0.00    -0.361 OA
HETATM   15  H   UNL     1      63.888  12.103   6.478  1.00  0.00     0.217 HD
ENDBRANCH   2  14
TORSDOF 3
ENDMDL
MODEL 9
REMARK VINA RESULT:      -4.6      1.413      2.074
REMARK  3 active torsions:
REMARK  status: ('A' for Active; 'I' for Inactive)
REMARK    1  A    between atoms: O_1  and  C_2 
REMARK    2  A    between atoms: O_1  and  C_4 
REMARK    3  A    between atoms: C_3  and  O_9 
ROOT
HETATM    1  C   UNL     1      64.242   7.767   3.924  1.00  0.00     0.076 A 
HETATM    2  C   UNL     1      62.228   9.689   3.916  1.00  0.00     0.065 A 
HETATM    3  C   UNL     1      63.213   7.701   2.978  1.00  0.00     0.040 A 
HETATM    4  C   UNL     1      64.217   8.762   4.905  1.00  0.00     0.040 A 
HETATM    5  C   UNL     1      63.208   9.724   4.900  1.00  0.00     0.039 A 
HETATM    6  C   UNL     1      62.218   8.681   2.956  1.00  0.00     0.039 A 
ENDROOT
BRANCH   1   7
HETATM    7  O   UNL     1      65.276   6.862   4.012  1.00  0.00    -0.311 OA
BRANCH   7   8
HETATM    8  C   UNL     1      65.726   6.442   5.242  1.00  0.00     0.076 A 
HETATM    9  C   UNL     1      64.971   5.692   6.149  1.00  0.00     0.037 A 
HETATM   10  C   UNL     1      65.516   5.335   7.383  1.00  0.00     0.003 A 
HETATM   11  C   UNL     1      66.832   5.677   7.693  1.00  0.00     0.000 A 
HETATM   12  C   UNL     1      67.608   6.367   6.762  1.00  0.00     0.003 A 
HETATM   13  C   UNL     1      67.056   6.748   5.539  1.00  0.00     0.037 A 
ENDBRANCH   7   8
ENDBRANCH   1   7
BRANCH   2  14
HETATM   14  O   UNL     1      61.279  10.668   3.927  1.00  0.00    -0.361 OA
HETATM   15  H   UNL     1      61.072  11.111   4.726  1.00  0.00     0.217 HD
ENDBRANCH   2  14
TORSDOF 3
ENDMDL
