MODEL 1
REMARK VINA RESULT:      -5.3      0.000      0.000
REMARK  1 active torsions:
REMARK  status: ('A' for Active; 'I' for Inactive)
REMARK    1  A    between atoms: C_2  and  C_5 
ROOT
HETATM    1  C   UNL     1      63.263   8.078   5.213  1.00  0.00     0.103 A 
HETATM    2  C   UNL     1      62.447   9.793   3.715  1.00  0.00     0.012 A 
HETATM    3  C   UNL     1      62.840   9.390   4.997  1.00  0.00     0.054 A 
HETATM    4  C   UNL     1      63.278   7.156   4.165  1.00  0.00     0.102 A 
HETATM    5  O   UNL     1      63.643   7.766   6.495  1.00  0.00    -0.346 OA
HETATM    6  O   UNL     1      63.663   5.850   4.317  1.00  0.00    -0.346 OA
HETATM    7  C   UNL     1      62.479   8.868   2.661  1.00  0.00     0.018 A 
HETATM    8  C   UNL     1      62.896   7.553   2.885  1.00  0.00     0.040 A 
HETATM    9  C   UNL     1      64.368   6.534   6.544  1.00  0.00     0.202 C 
HETATM   10  C   UNL     1      63.691   5.468   5.698  1.00  0.00     0.202 C 
ENDROOT
BRANCH   2  11
HETATM   11  C   UNL     1      61.996  11.188   3.431  1.00  0.00     0.155 C 
HETATM   12  O   UNL     1      61.823  11.976   4.359  1.00  0.00    -0.293 OA
HETATM   13  C   UNL     1      61.760  11.601   2.001  1.00  0.00     0.096 C 
ENDBRANCH   2  11
TORSDOF 1
ENDMDL
MODEL 2
REMARK VINA RESULT:      -5.2      1.476      1.831
REMARK  1 active torsions:
REMARK  status: ('A' for Active; 'I' for Inactive)
REMARK    1  A    between atoms: C_2  and  C_5 
ROOT
HETATM    1  C   UNL     1      64.568   8.481   5.601  1.00  0.00     0.103 A 
HETATM    2  C   UNL     1      62.732   9.247   4.224  1.00  0.00     0.012 A 
HETATM    3  C   UNL     1      63.950   9.495   4.868  1.00  0.00     0.054 A 
HETATM    4  C   UNL     1      63.970   7.225   5.717  1.00  0.00     0.102 A 
HETATM    5  O   UNL     1      65.765   8.802   6.192  1.00  0.00    -0.346 OA
HETATM    6  O   UNL     1      64.515   6.196   6.439  1.00  0.00    -0.346 OA
HETATM    7  C   UNL     1      62.142   7.978   4.330  1.00  0.00     0.018 A 
HETATM    8  C   UNL     1      62.761   6.969   5.072  1.00  0.00     0.040 A 
HETATM    9  C   UNL     1      66.471   7.633   6.618  1.00  0.00     0.202 C 
HETATM   10  C   UNL     1      65.539   6.661   7.325  1.00  0.00     0.202 C 
ENDROOT
BRANCH   2  11
HETATM   11  C   UNL     1      62.038  10.296   3.420  1.00  0.00     0.155 C 
HETATM   12  O   UNL     1      61.700  11.352   3.952  1.00  0.00    -0.293 OA
HETATM   13  C   UNL     1      61.763  10.033   1.961  1.00  0.00     0.096 C 
ENDBRANCH   2  11
TORSDOF 1
ENDMDL
MODEL 3
REMARK VINA RESULT:      -4.7      2.177      3.002
REMARK  1 active torsions:
REMARK  status: ('A' for Active; 'I' for Inactive)
REMARK    1  A    between atoms: C_2  and  C_5 
ROOT
HETATM    1  C   UNL     1      64.638   7.564   4.337  1.00  0.00     0.103 A 
HETATM    2  C   UNL     1      62.691   8.417   3.183  1.00  0.00     0.012 A 
HETATM    3  C   UNL     1      63.684   7.441   3.327  1.00  0.00     0.054 A 
HETATM    4  C   UNL     1      64.624   8.666   5.195  1.00  0.00     0.102 A 
HETATM    5  O   UNL     1      65.570   6.560   4.418  1.00  0.00    -0.346 OA
HETATM    6  O   UNL     1      65.544   8.855   6.193  1.00  0.00    -0.346 OA
HETATM    7  C   UNL     1      62.670   9.514   4.057  1.00  0.00     0.018 A 
HETATM    8  C   UNL     1      63.632   9.637   5.063  1.00  0.00     0.040 A 
HETATM    9  C   UNL     1      66.274   6.594   5.663  1.00  0.00     0.202 C 
HETATM   10  C   UNL     1      66.689   8.013   6.016  1.00  0.00     0.202 C 
ENDROOT
BRANCH   2  11
HETATM   11  C   UNL     1      61.642   8.324   2.124  1.00  0.00     0.155 C 
HETATM   12  O   UNL     1      60.546   7.834   2.388  1.00  0.00    -0.293 OA
HETATM   13  C   UNL     1      61.956   8.838   0.742  1.00  0.00     0.096 C 
ENDBRANCH   2  11
TORSDOF 1
ENDMDL
MODEL 4
REMARK VINA RESULT:      -4.7      2.387      4.824
REMARK  1 active torsions:
REMARK  status: ('A' for Active; 'I' for Inactive)
REMARK    1  A    between atoms: C_2  and  C_5 
ROOT
HETATM    1  C   UNL     1      64.287   9.171   5.003  1.00  0.00     0.103 A 
HETATM    2  C   UNL     1      65.542   7.160   4.520  1.00  0.00     0.012 A 
HETATM    3  C   UNL     1      65.405   8.365   5.220  1.00  0.00     0.054 A 
HETATM    4  C   UNL     1      63.312   8.796   4.077  1.00  0.00     0.102 A 
HETATM    5  O   UNL     1      64.222  10.329   5.736  1.00  0.00    -0.346 OA
HETATM    6  O   UNL     1      62.202   9.552   3.804  1.00  0.00    -0.346 OA
HETATM    7  C   UNL     1      64.552   6.779   3.602  1.00  0.00     0.018 A 
HETATM    8  C   UNL     1      63.438   7.593   3.383  1.00  0.00     0.040 A 
HETATM    9  C   UNL     1      62.911  10.900   5.703  1.00  0.00     0.202 C 
HETATM   10  C   UNL     1      62.348  10.892   4.291  1.00  0.00     0.202 C 
ENDROOT
BRANCH   2  11
HETATM   11  C   UNL     1      66.715   6.259   4.725  1.00  0.00     0.155 C 
HETATM   12  O   UNL     1      67.417   6.385   5.727  1.00  0.00    -0.293 OA
HETATM   13  C   UNL     1      67.015   5.207   3.688  1.00  0.00     0.096 C 
ENDBRANCH   2  11
TORSDOF 1
ENDMDL
MODEL 5
REMARK VINA RESULT:      -4.6      1.912      4.634
REMARK  1 active torsions:
REMARK  status: ('A' for Active; 'I' for Inactive)
REMARK    1  A    between atoms: C_2  and  C_5 
ROOT
HETATM    1  C   UNL     1      62.957   7.968   2.582  1.00  0.00     0.103 A 
HETATM    2  C   UNL     1      63.998   8.430   4.716  1.00  0.00     0.012 A 
HETATM    3  C   UNL     1      63.854   7.612   3.589  1.00  0.00     0.054 A 
HETATM    4  C   UNL     1      62.183   9.124   2.698  1.00  0.00     0.102 A 
HETATM    5  O   UNL     1      62.883   7.119   1.506  1.00  0.00    -0.346 OA
HETATM    6  O   UNL     1      61.271   9.518   1.754  1.00  0.00    -0.346 OA
HETATM    7  C   UNL     1      63.231   9.600   4.821  1.00  0.00     0.018 A 
HETATM    8  C   UNL     1      62.328   9.948   3.813  1.00  0.00     0.040 A 
HETATM    9  C   UNL     1      62.213   7.729   0.399  1.00  0.00     0.202 C 
HETATM   10  C   UNL     1      60.954   8.450   0.854  1.00  0.00     0.202 C 
ENDROOT
BRANCH   2  11
HETATM   11  C   UNL     1      64.952   8.096   5.815  1.00  0.00     0.155 C 
HETATM   12  O   UNL     1      65.790   8.922   6.170  1.00  0.00    -0.293 OA
HETATM   13  C   UNL     1      64.864   6.741   6.470  1.00  0.00     0.096 C 
ENDBRANCH   2  11
TORSDOF 1
ENDMDL
MODEL 6
REMARK VINA RESULT:      -4.6      3.069      4.299
REMARK  1 active torsions:
REMARK  status: ('A' for Active; 'I' for Inactive)
REMARK    1  A    between atoms: C_2  and  C_5 
ROOT
HETATM    1  C   UNL     1      66.266   6.062   7.125  1.00  0.00     0.103 A 
HETATM    2  C   UNL     1      65.390   7.663   5.536  1.00  0.00     0.012 A 
HETATM    3  C   UNL     1      65.365   7.080   6.809  1.00  0.00     0.054 A 
HETATM    4  C   UNL     1      67.179   5.604   6.174  1.00  0.00     0.102 A 
HETATM    5  O   UNL     1      66.184   5.552   8.396  1.00  0.00    -0.346 OA
HETATM    6  O   UNL     1      68.075   4.596   6.415  1.00  0.00    -0.346 OA
HETATM    7  C   UNL     1      66.321   7.211   4.589  1.00  0.00     0.018 A 
HETATM    8  C   UNL     1      67.215   6.186   4.908  1.00  0.00     0.040 A 
HETATM    9  C   UNL     1      67.340   4.779   8.728  1.00  0.00     0.202 C 
HETATM   10  C   UNL     1      67.722   3.851   7.587  1.00  0.00     0.202 C 
ENDROOT
BRANCH   2  11
HETATM   11  C   UNL     1      64.453   8.762   5.154  1.00  0.00     0.155 C 
HETATM   12  O   UNL     1      64.481   9.830   5.762  1.00  0.00    -0.293 OA
HETATM   13  C   UNL     1      63.486   8.533   4.021  1.00  0.00     0.096 C 
ENDBRANCH   2  11
TORSDOF 1
ENDMDL
MODEL 7
REMARK VINA RESULT:      -4.4      2.696      6.214
REMARK  1 active torsions:
REMARK  status: ('A' for Active; 'I' for Inactive)
REMARK    1  A    between atoms: C_2  and  C_5 
ROOT
HETATM    1  C   UNL     1      64.561   6.899   6.019  1.00  0.00     0.103 A 
HETATM    2  C   UNL     1      66.291   6.016   7.461  1.00  0.00     0.012 A 
HETATM    3  C   UNL     1      65.033   5.891   6.859  1.00  0.00     0.054 A 
HETATM    4  C   UNL     1      65.324   8.045   5.789  1.00  0.00     0.102 A 
HETATM    5  O   UNL     1      63.324   6.695   5.460  1.00  0.00    -0.346 OA
HETATM    6  O   UNL     1      64.908   9.079   4.991  1.00  0.00    -0.346 OA
HETATM    7  C   UNL     1      67.063   7.162   7.214  1.00  0.00     0.018 A 
HETATM    8  C   UNL     1      66.581   8.173   6.377  1.00  0.00     0.040 A 
HETATM    9  C   UNL     1      63.083   7.593   4.374  1.00  0.00     0.202 C 
HETATM   10  C   UNL     1      63.501   9.009   4.734  1.00  0.00     0.202 C 
ENDROOT
BRANCH   2  11
HETATM   11  C   UNL     1      66.844   4.960   8.360  1.00  0.00     0.155 C 
HETATM   12  O   UNL     1      66.302   3.858   8.416  1.00  0.00    -0.293 OA
HETATM   13  C   UNL     1      68.066   5.273   9.186  1.00  0.00     0.096 C 
ENDBRANCH   2  11
TORSDOF 1
ENDMDL
MODEL 8
REMARK VINA RESULT:      -4.3      2.736      4.238
REMARK  1 active torsions:
REMARK  status: ('A' for Active; 'I' for Inactive)
REMARK    1  A    between atoms: C_2  and  C_5 
ROOT
HETATM    1  C   UNL     1      60.936   7.637   2.607  1.00  0.00     0.103 A 
HETATM    2  C   UNL     1      62.215   9.236   3.894  1.00  0.00     0.012 A 
HETATM    3  C   UNL     1      61.571   7.997   3.796  1.00  0.00     0.054 A 
HETATM    4  C   UNL     1      60.919   8.511   1.519  1.00  0.00     0.102 A 
HETATM    5  O   UNL     1      60.338   6.401   2.589  1.00  0.00    -0.346 OA
HETATM    6  O   UNL     1      60.296   8.225   0.333  1.00  0.00    -0.346 OA
HETATM    7  C   UNL     1      62.210  10.106   2.794  1.00  0.00     0.018 A 
HETATM    8  C   UNL     1      61.566   9.743   1.607  1.00  0.00     0.040 A 
HETATM    9  C   UNL     1      60.024   5.989   1.255  1.00  0.00     0.202 C 
HETATM   10  C   UNL     1      59.389   7.125   0.469  1.00  0.00     0.202 C 
ENDROOT
BRANCH   2  11
HETATM   11  C   UNL     1      62.917   9.663   5.142  1.00  0.00     0.155 C 
HETATM   12  O   UNL     1      63.490   8.828   5.838  1.00  0.00    -0.293 OA
HETATM   13  C   UNL     1      62.903  11.122   5.522  1.00  0.00     0.096 C 
ENDBRANCH   2  11
TORSDOF 1
ENDMDL
MODEL 9
REMARK VINA RESULT:      -4.2      2.109      4.516
REMARK  1 active torsions:
REMARK  status: ('A' for Active; 'I' for Inactive)
REMARK    1  A    between atoms: C_2  and  C_5 
ROOT
HETATM    1  C   UNL     1      63.016   8.510   3.151  1.00  0.00     0.103 A 
HETATM    2  C   UNL     1      64.621   7.699   4.769  1.00  0.00     0.012 A 
HETATM    3  C   UNL     1      63.722   8.683   4.342  1.00  0.00     0.054 A 
HETATM    4  C   UNL     1      63.215   7.371   2.369  1.00  0.00     0.102 A 
HETATM    5  O   UNL     1      62.147   9.515   2.809  1.00  0.00    -0.346 OA
HETATM    6  O   UNL     1      62.568   7.152   1.181  1.00  0.00    -0.346 OA
HETATM    7  C   UNL     1      64.806   6.548   3.989  1.00  0.00     0.018 A 
HETATM    8  C   UNL     1      64.102   6.383   2.793  1.00  0.00     0.040 A 
HETATM    9  C   UNL     1      61.240   9.100   1.783  1.00  0.00     0.202 C 
HETATM   10  C   UNL     1      61.971   8.353   0.680  1.00  0.00     0.202 C 
ENDROOT
BRANCH   2  11
HETATM   11  C   UNL     1      65.392   7.834   6.041  1.00  0.00     0.155 C 
HETATM   12  O   UNL     1      65.985   8.882   6.290  1.00  0.00    -0.293 OA
HETATM   13  C   UNL     1      65.427   6.670   6.999  1.00  0.00     0.096 C 
ENDBRANCH   2  11
TORSDOF 1
ENDMDL
