MODEL 1
REMARK VINA RESULT:      -5.4      0.000      0.000
REMARK  1 active torsions:
REMARK  status: ('A' for Active; 'I' for Inactive)
REMARK    1  A    between atoms: CA_2  and  C_3 
ROOT
HETATM    1  N   UNL     1      63.100   9.284   5.547  1.00  0.00    -0.375 N 
HETATM    2  CA  UNL     1      63.170   7.810   5.344  1.00  0.00     0.187 C 
HETATM    3  C   UNL     1      62.589   9.764   4.326  1.00  0.00     0.035 A 
HETATM    4  C   UNL     1      63.260   7.561   3.822  1.00  0.00     0.077 C 
HETATM    5  C   UNL     1      62.692   8.834   3.291  1.00  0.00    -0.029 A 
HETATM    6  C   UNL     1      62.155  11.051   4.077  1.00  0.00     0.029 A 
HETATM    7  C   UNL     1      62.336   9.154   1.992  1.00  0.00     0.009 A 
HETATM    8  C   UNL     1      61.872  10.446   1.736  1.00  0.00     0.001 A 
HETATM    9  C   UNL     1      61.782  11.389   2.773  1.00  0.00     0.002 A 
HETATM   10  H   UNL     1      63.352   9.801   6.347  1.00  0.00     0.160 HD
ENDROOT
BRANCH   2  11
HETATM   11  C   UNL     1      64.349   7.182   6.077  1.00  0.00     0.197 C 
HETATM   12  O   UNL     1      64.503   7.128   7.289  1.00  0.00    -0.646 OA
HETATM   13  OXT UNL     1      65.326   6.727   5.260  1.00  0.00    -0.646 OA
ENDBRANCH   2  11
TORSDOF 1
ENDMDL
MODEL 2
REMARK VINA RESULT:      -5.3      1.145      2.007
REMARK  1 active torsions:
REMARK  status: ('A' for Active; 'I' for Inactive)
REMARK    1  A    between atoms: CA_2  and  C_3 
ROOT
HETATM    1  N   UNL     1      63.234   7.555   3.903  1.00  0.00    -0.375 N 
HETATM    2  CA  UNL     1      63.707   8.150   5.185  1.00  0.00     0.187 C 
HETATM    3  C   UNL     1      62.793   8.670   3.164  1.00  0.00     0.035 A 
HETATM    4  C   UNL     1      62.973   9.498   5.363  1.00  0.00     0.077 C 
HETATM    5  C   UNL     1      62.586   9.800   3.954  1.00  0.00    -0.029 A 
HETATM    6  C   UNL     1      62.443   8.670   1.827  1.00  0.00     0.029 A 
HETATM    7  C   UNL     1      62.056  10.965   3.428  1.00  0.00     0.009 A 
HETATM    8  C   UNL     1      61.724  10.983   2.071  1.00  0.00     0.001 A 
HETATM    9  C   UNL     1      61.916   9.841   1.277  1.00  0.00     0.002 A 
HETATM   10  H   UNL     1      63.232   6.608   3.636  1.00  0.00     0.160 HD
ENDROOT
BRANCH   2  11
HETATM   11  C   UNL     1      63.464   7.227   6.373  1.00  0.00     0.197 C 
HETATM   12  O   UNL     1      62.431   6.619   6.618  1.00  0.00    -0.646 OA
HETATM   13  OXT UNL     1      64.493   7.175   7.249  1.00  0.00    -0.646 OA
ENDBRANCH   2  11
TORSDOF 1
ENDMDL
MODEL 3
REMARK VINA RESULT:      -5.1      0.998      1.017
REMARK  1 active torsions:
REMARK  status: ('A' for Active; 'I' for Inactive)
REMARK    1  A    between atoms: CA_2  and  C_3 
ROOT
HETATM    1  N   UNL     1      63.908   9.320   5.759  1.00  0.00    -0.375 N 
HETATM    2  CA  UNL     1      64.210   7.867   5.621  1.00  0.00     0.187 C 
HETATM    3  C   UNL     1      63.122   9.604   4.626  1.00  0.00     0.035 A 
HETATM    4  C   UNL     1      64.088   7.515   4.121  1.00  0.00     0.077 C 
HETATM    5  C   UNL     1      63.218   8.626   3.637  1.00  0.00    -0.029 A 
HETATM    6  C   UNL     1      62.426  10.775   4.395  1.00  0.00     0.029 A 
HETATM    7  C   UNL     1      62.599   8.774   2.408  1.00  0.00     0.009 A 
HETATM    8  C   UNL     1      61.872   9.943   2.175  1.00  0.00     0.001 A 
HETATM    9  C   UNL     1      61.787  10.938   3.163  1.00  0.00     0.002 A 
HETATM   10  H   UNL     1      64.191   9.935   6.474  1.00  0.00     0.160 HD
ENDROOT
BRANCH   2  11
HETATM   11  C   UNL     1      65.589   7.510   6.162  1.00  0.00     0.197 C 
HETATM   12  O   UNL     1      66.333   8.248   6.793  1.00  0.00    -0.646 OA
HETATM   13  OXT UNL     1      66.013   6.274   5.815  1.00  0.00    -0.646 OA
ENDBRANCH   2  11
TORSDOF 1
ENDMDL
MODEL 4
REMARK VINA RESULT:      -4.6      2.218      3.145
REMARK  1 active torsions:
REMARK  status: ('A' for Active; 'I' for Inactive)
REMARK    1  A    between atoms: CA_2  and  C_3 
ROOT
HETATM    1  N   UNL     1      62.477  10.076   3.244  1.00  0.00    -0.375 N 
HETATM    2  CA  UNL     1      62.616   9.406   4.568  1.00  0.00     0.187 C 
HETATM    3  C   UNL     1      62.445   9.004   2.332  1.00  0.00     0.035 A 
HETATM    4  C   UNL     1      63.252   8.021   4.316  1.00  0.00     0.077 C 
HETATM    5  C   UNL     1      62.916   7.810   2.878  1.00  0.00    -0.029 A 
HETATM    6  C   UNL     1      62.132   9.090   0.989  1.00  0.00     0.029 A 
HETATM    7  C   UNL     1      63.058   6.668   2.109  1.00  0.00     0.009 A 
HETATM    8  C   UNL     1      62.718   6.739   0.756  1.00  0.00     0.001 A 
HETATM    9  C   UNL     1      62.259   7.944   0.200  1.00  0.00     0.002 A 
HETATM   10  H   UNL     1      62.421  11.040   3.053  1.00  0.00     0.160 HD
ENDROOT
BRANCH   2  11
HETATM   11  C   UNL     1      63.447  10.226   5.546  1.00  0.00     0.197 C 
HETATM   12  O   UNL     1      64.618  10.032   5.841  1.00  0.00    -0.646 OA
HETATM   13  OXT UNL     1      62.753  11.200   6.178  1.00  0.00    -0.646 OA
ENDBRANCH   2  11
TORSDOF 1
ENDMDL
MODEL 5
REMARK VINA RESULT:      -4.4      1.564      1.937
REMARK  1 active torsions:
REMARK  status: ('A' for Active; 'I' for Inactive)
REMARK    1  A    between atoms: CA_2  and  C_3 
ROOT
HETATM    1  N   UNL     1      63.028   8.206   4.544  1.00  0.00    -0.375 N 
HETATM    2  CA  UNL     1      62.835   7.054   3.620  1.00  0.00     0.187 C 
HETATM    3  C   UNL     1      62.519   9.302   3.820  1.00  0.00     0.035 A 
HETATM    4  C   UNL     1      62.774   7.623   2.185  1.00  0.00     0.077 C 
HETATM    5  C   UNL     1      62.391   9.039   2.456  1.00  0.00    -0.029 A 
HETATM    6  C   UNL     1      62.289  10.569   4.319  1.00  0.00     0.029 A 
HETATM    7  C   UNL     1      62.003  10.023   1.562  1.00  0.00     0.009 A 
HETATM    8  C   UNL     1      61.744  11.301   2.062  1.00  0.00     0.001 A 
HETATM    9  C   UNL     1      61.887  11.572   3.433  1.00  0.00     0.002 A 
HETATM   10  H   UNL     1      63.418   8.203   5.448  1.00  0.00     0.160 HD
ENDROOT
BRANCH   2  11
HETATM   11  C   UNL     1      63.941   6.015   3.755  1.00  0.00     0.197 C 
HETATM   12  O   UNL     1      64.797   5.755   2.921  1.00  0.00    -0.646 OA
HETATM   13  OXT UNL     1      63.875   5.285   4.891  1.00  0.00    -0.646 OA
ENDBRANCH   2  11
TORSDOF 1
ENDMDL
MODEL 6
REMARK VINA RESULT:      -4.2      2.116      2.749
REMARK  1 active torsions:
REMARK  status: ('A' for Active; 'I' for Inactive)
REMARK    1  A    between atoms: CA_2  and  C_3 
ROOT
HETATM    1  N   UNL     1      60.888   6.881   4.292  1.00  0.00    -0.375 N 
HETATM    2  CA  UNL     1      62.280   6.879   4.822  1.00  0.00     0.187 C 
HETATM    3  C   UNL     1      61.019   7.469   3.019  1.00  0.00     0.035 A 
HETATM    4  C   UNL     1      63.052   7.997   4.087  1.00  0.00     0.077 C 
HETATM    5  C   UNL     1      62.222   8.157   2.859  1.00  0.00    -0.029 A 
HETATM    6  C   UNL     1      60.042   7.520   2.044  1.00  0.00     0.029 A 
HETATM    7  C   UNL     1      62.492   8.886   1.713  1.00  0.00     0.009 A 
HETATM    8  C   UNL     1      61.520   8.922   0.711  1.00  0.00     0.001 A 
HETATM    9  C   UNL     1      60.302   8.243   0.876  1.00  0.00     0.002 A 
HETATM   10  H   UNL     1      60.070   6.549   4.728  1.00  0.00     0.160 HD
ENDROOT
BRANCH   2  11
HETATM   11  C   UNL     1      62.322   7.079   6.332  1.00  0.00     0.197 C 
HETATM   12  O   UNL     1      63.197   7.657   6.962  1.00  0.00    -0.646 OA
HETATM   13  OXT UNL     1      61.313   6.471   6.996  1.00  0.00    -0.646 OA
ENDBRANCH   2  11
TORSDOF 1
ENDMDL
MODEL 7
REMARK VINA RESULT:      -4.2      2.867      3.775
REMARK  1 active torsions:
REMARK  status: ('A' for Active; 'I' for Inactive)
REMARK    1  A    between atoms: CA_2  and  C_3 
ROOT
HETATM    1  N   UNL     1      62.490   7.277   2.910  1.00  0.00    -0.375 N 
HETATM    2  CA  UNL     1      61.977   6.977   1.544  1.00  0.00     0.187 C 
HETATM    3  C   UNL     1      62.238   8.655   3.063  1.00  0.00     0.035 A 
HETATM    4  C   UNL     1      61.998   8.300   0.746  1.00  0.00     0.077 C 
HETATM    5  C   UNL     1      61.991   9.300   1.852  1.00  0.00    -0.029 A 
HETATM    6  C   UNL     1      62.353   9.376   4.236  1.00  0.00     0.029 A 
HETATM    7  C   UNL     1      61.822  10.673   1.784  1.00  0.00     0.009 A 
HETATM    8  C   UNL     1      61.911  11.406   2.969  1.00  0.00     0.001 A 
HETATM    9  C   UNL     1      62.176  10.761   4.187  1.00  0.00     0.002 A 
HETATM   10  H   UNL     1      62.905   6.659   3.554  1.00  0.00     0.160 HD
ENDROOT
BRANCH   2  11
HETATM   11  C   UNL     1      62.795   5.898   0.846  1.00  0.00     0.197 C 
HETATM   12  O   UNL     1      64.015   5.850   0.767  1.00  0.00    -0.646 OA
HETATM   13  OXT UNL     1      62.048   4.973   0.200  1.00  0.00    -0.646 OA
ENDBRANCH   2  11
TORSDOF 1
ENDMDL
MODEL 8
REMARK VINA RESULT:      -4.1      1.615      2.396
REMARK  1 active torsions:
REMARK  status: ('A' for Active; 'I' for Inactive)
REMARK    1  A    between atoms: CA_2  and  C_3 
ROOT
HETATM    1  N   UNL     1      63.834   7.246   3.462  1.00  0.00    -0.375 N 
HETATM    2  CA  UNL     1      64.939   7.204   4.460  1.00  0.00     0.187 C 
HETATM    3  C   UNL     1      63.288   8.534   3.625  1.00  0.00     0.035 A 
HETATM    4  C   UNL     1      64.604   8.239   5.557  1.00  0.00     0.077 C 
HETATM    5  C   UNL     1      63.662   9.135   4.826  1.00  0.00    -0.029 A 
HETATM    6  C   UNL     1      62.362   9.134   2.794  1.00  0.00     0.029 A 
HETATM    7  C   UNL     1      63.146  10.359   5.215  1.00  0.00     0.009 A 
HETATM    8  C   UNL     1      62.229  10.985   4.368  1.00  0.00     0.001 A 
HETATM    9  C   UNL     1      61.839  10.375   3.165  1.00  0.00     0.002 A 
HETATM   10  H   UNL     1      63.552   6.540   2.836  1.00  0.00     0.160 HD
ENDROOT
BRANCH   2  11
HETATM   11  C   UNL     1      65.129   5.813   5.052  1.00  0.00     0.197 C 
HETATM   12  O   UNL     1      66.196   5.289   5.342  1.00  0.00    -0.646 OA
HETATM   13  OXT UNL     1      63.984   5.104   5.172  1.00  0.00    -0.646 OA
ENDBRANCH   2  11
TORSDOF 1
ENDMDL
MODEL 9
REMARK VINA RESULT:      -4.0      2.772      5.662
REMARK  1 active torsions:
REMARK  status: ('A' for Active; 'I' for Inactive)
REMARK    1  A    between atoms: CA_2  and  C_3 
ROOT
HETATM    1  N   UNL     1      65.836   8.065   5.053  1.00  0.00    -0.375 N 
HETATM    2  CA  UNL     1      64.371   7.799   5.000  1.00  0.00     0.187 C 
HETATM    3  C   UNL     1      66.328   7.045   5.890  1.00  0.00     0.035 A 
HETATM    4  C   UNL     1      64.002   7.006   6.273  1.00  0.00     0.077 C 
HETATM    5  C   UNL     1      65.328   6.431   6.644  1.00  0.00    -0.029 A 
HETATM    6  C   UNL     1      67.658   6.737   6.098  1.00  0.00     0.029 A 
HETATM    7  C   UNL     1      65.625   5.475   7.600  1.00  0.00     0.009 A 
HETATM    8  C   UNL     1      66.966   5.138   7.798  1.00  0.00     0.001 A 
HETATM    9  C   UNL     1      67.976   5.766   7.052  1.00  0.00     0.002 A 
HETATM   10  H   UNL     1      66.340   8.784   4.607  1.00  0.00     0.160 HD
ENDROOT
BRANCH   2  11
HETATM   11  C   UNL     1      63.555   9.082   4.892  1.00  0.00     0.197 C 
HETATM   12  O   UNL     1      63.338   9.880   5.793  1.00  0.00    -0.646 OA
HETATM   13  OXT UNL     1      62.973   9.264   3.685  1.00  0.00    -0.646 OA
ENDBRANCH   2  11
TORSDOF 1
ENDMDL
