MODEL 1
REMARK VINA RESULT:      -5.9      0.000      0.000
REMARK  4 active torsions:
REMARK  status: ('A' for Active; 'I' for Inactive)
REMARK    1  A    between atoms: C_3  and  C_9 
REMARK    2  A    between atoms: C_4  and  C_7 
REMARK    3  A    between atoms: C_7  and  C_8 
REMARK    4  A    between atoms: C_8  and  O_11 
ROOT
HETATM    1  N   UNL     1      64.040   8.162   5.575  1.00  0.00    -0.352 N 
ATOM      2  HN  UNL     1      64.674   8.955   5.674  1.00  0.00     0.166 HD
HETATM    3  C   UNL     1      62.971   8.152   4.800  1.00  0.00     0.085 A 
HETATM    4  C   UNL     1      64.185   6.948   6.237  1.00  0.00     0.032 A 
HETATM    5  S   UNL     1      62.084   6.677   4.833  1.00  0.00    -0.075 SA
HETATM    6  C   UNL     1      63.195   6.019   5.955  1.00  0.00     0.004 A 
HETATM    7  C   UNL     1      63.011   4.625   6.440  1.00  0.00     0.058 C 
ENDROOT
BRANCH   3   8
HETATM    8  C   UNL     1      62.567   9.257   3.914  1.00  0.00    -0.002 A 
HETATM    9  C   UNL     1      62.407   9.013   2.540  1.00  0.00     0.014 A 
HETATM   10  C   UNL     1      61.984  10.027   1.675  1.00  0.00     0.001 A 
HETATM   11  C   UNL     1      61.727  11.303   2.170  1.00  0.00     0.000 A 
HETATM   12  C   UNL     1      61.904  11.570   3.524  1.00  0.00     0.001 A 
HETATM   13  C   UNL     1      62.324  10.556   4.389  1.00  0.00     0.014 A 
ENDBRANCH   3   8
BRANCH   4  14
HETATM   14  C   UNL     1      65.341   6.793   7.175  1.00  0.00     0.169 C 
BRANCH  14  15
HETATM   15  C   UNL     1      66.533   7.639   6.788  1.00  0.00     0.264 C 
HETATM   16  O   UNL     1      66.592   8.862   6.792  1.00  0.00    -0.265 OA
BRANCH  15  17
HETATM   17  O   UNL     1      67.553   6.826   6.380  1.00  0.00    -0.326 OA
HETATM   18  C   UNL     1      67.816   5.744   7.278  1.00  0.00     0.213 C 
ENDBRANCH  15  17
ENDBRANCH  14  15
ENDBRANCH   4  14
TORSDOF 4
ENDMDL
MODEL 2
REMARK VINA RESULT:      -5.5      2.097      2.478
REMARK  4 active torsions:
REMARK  status: ('A' for Active; 'I' for Inactive)
REMARK    1  A    between atoms: C_3  and  C_9 
REMARK    2  A    between atoms: C_4  and  C_7 
REMARK    3  A    between atoms: C_7  and  C_8 
REMARK    4  A    between atoms: C_8  and  O_11 
ROOT
HETATM    1  N   UNL     1      65.388   7.940   6.276  1.00  0.00    -0.352 N 
ATOM      2  HN  UNL     1      65.205   8.645   6.990  1.00  0.00     0.166 HD
HETATM    3  C   UNL     1      64.780   7.885   5.106  1.00  0.00     0.085 A 
HETATM    4  C   UNL     1      66.311   6.907   6.404  1.00  0.00     0.032 A 
HETATM    5  S   UNL     1      65.288   6.584   4.101  1.00  0.00    -0.075 SA
HETATM    6  C   UNL     1      66.382   6.061   5.309  1.00  0.00     0.004 A 
HETATM    7  C   UNL     1      67.242   4.874   5.058  1.00  0.00     0.058 C 
ENDROOT
BRANCH   3   8
HETATM    8  C   UNL     1      63.793   8.868   4.627  1.00  0.00    -0.002 A 
HETATM    9  C   UNL     1      63.092   8.614   3.436  1.00  0.00     0.014 A 
HETATM   10  C   UNL     1      62.118   9.504   2.973  1.00  0.00     0.001 A 
HETATM   11  C   UNL     1      61.839  10.666   3.687  1.00  0.00     0.000 A 
HETATM   12  C   UNL     1      62.541  10.947   4.856  1.00  0.00     0.001 A 
HETATM   13  C   UNL     1      63.512  10.057   5.320  1.00  0.00     0.014 A 
ENDBRANCH   3   8
BRANCH   4  14
HETATM   14  C   UNL     1      67.081   6.809   7.684  1.00  0.00     0.169 C 
BRANCH  14  15
HETATM   15  C   UNL     1      66.313   6.110   8.784  1.00  0.00     0.264 C 
HETATM   16  O   UNL     1      65.819   6.633   9.774  1.00  0.00    -0.265 OA
BRANCH  15  17
HETATM   17  O   UNL     1      66.284   4.767   8.534  1.00  0.00    -0.326 OA
HETATM   18  C   UNL     1      67.545   4.122   8.725  1.00  0.00     0.213 C 
ENDBRANCH  15  17
ENDBRANCH  14  15
ENDBRANCH   4  14
TORSDOF 4
ENDMDL
MODEL 3
REMARK VINA RESULT:      -5.4      2.392      6.022
REMARK  4 active torsions:
REMARK  status: ('A' for Active; 'I' for Inactive)
REMARK    1  A    between atoms: C_3  and  C_9 
REMARK    2  A    between atoms: C_4  and  C_7 
REMARK    3  A    between atoms: C_7  and  C_8 
REMARK    4  A    between atoms: C_8  and  O_11 
ROOT
HETATM    1  N   UNL     1      63.590   8.378   4.819  1.00  0.00    -0.352 N 
ATOM      2  HN  UNL     1      63.540   8.945   5.665  1.00  0.00     0.166 HD
HETATM    3  C   UNL     1      64.457   7.402   4.622  1.00  0.00     0.085 A 
HETATM    4  C   UNL     1      62.756   8.531   3.716  1.00  0.00     0.032 A 
HETATM    5  S   UNL     1      64.311   6.619   3.096  1.00  0.00    -0.075 SA
HETATM    6  C   UNL     1      63.016   7.654   2.674  1.00  0.00     0.004 A 
HETATM    7  C   UNL     1      62.344   7.491   1.357  1.00  0.00     0.058 C 
ENDROOT
BRANCH   3   8
HETATM    8  C   UNL     1      65.439   6.940   5.617  1.00  0.00    -0.002 A 
HETATM    9  C   UNL     1      66.761   6.689   5.214  1.00  0.00     0.014 A 
HETATM   10  C   UNL     1      67.730   6.290   6.139  1.00  0.00     0.001 A 
HETATM   11  C   UNL     1      67.389   6.123   7.479  1.00  0.00     0.000 A 
HETATM   12  C   UNL     1      66.078   6.342   7.893  1.00  0.00     0.001 A 
HETATM   13  C   UNL     1      65.110   6.744   6.969  1.00  0.00     0.014 A 
ENDBRANCH   3   8
BRANCH   4  14
HETATM   14  C   UNL     1      61.721   9.610   3.763  1.00  0.00     0.169 C 
BRANCH  14  15
HETATM   15  C   UNL     1      62.244  10.907   4.339  1.00  0.00     0.264 C 
HETATM   16  O   UNL     1      62.854  11.043   5.392  1.00  0.00    -0.265 OA
BRANCH  15  17
HETATM   17  O   UNL     1      61.896  11.942   3.519  1.00  0.00    -0.326 OA
HETATM   18  C   UNL     1      61.812  11.575   2.139  1.00  0.00     0.213 C 
ENDBRANCH  15  17
ENDBRANCH  14  15
ENDBRANCH   4  14
TORSDOF 4
ENDMDL
MODEL 4
REMARK VINA RESULT:      -5.3      3.057      4.087
REMARK  4 active torsions:
REMARK  status: ('A' for Active; 'I' for Inactive)
REMARK    1  A    between atoms: C_3  and  C_9 
REMARK    2  A    between atoms: C_4  and  C_7 
REMARK    3  A    between atoms: C_7  and  C_8 
REMARK    4  A    between atoms: C_8  and  O_11 
ROOT
HETATM    1  N   UNL     1      62.039   7.269   5.145  1.00  0.00    -0.352 N 
ATOM      2  HN  UNL     1      61.043   7.242   4.929  1.00  0.00     0.166 HD
HETATM    3  C   UNL     1      62.886   8.158   4.663  1.00  0.00     0.085 A 
HETATM    4  C   UNL     1      62.688   6.372   5.988  1.00  0.00     0.032 A 
HETATM    5  S   UNL     1      64.509   7.958   5.199  1.00  0.00    -0.075 SA
HETATM    6  C   UNL     1      64.049   6.595   6.126  1.00  0.00     0.004 A 
HETATM    7  C   UNL     1      65.069   5.879   6.938  1.00  0.00     0.058 C 
ENDROOT
BRANCH   3   8
HETATM    8  C   UNL     1      62.513   9.286   3.792  1.00  0.00    -0.002 A 
HETATM    9  C   UNL     1      62.383   9.073   2.409  1.00  0.00     0.014 A 
HETATM   10  C   UNL     1      61.990  10.109   1.557  1.00  0.00     0.001 A 
HETATM   11  C   UNL     1      61.732  11.376   2.073  1.00  0.00     0.000 A 
HETATM   12  C   UNL     1      61.879  11.613   3.437  1.00  0.00     0.001 A 
HETATM   13  C   UNL     1      62.270  10.577   4.289  1.00  0.00     0.014 A 
ENDBRANCH   3   8
BRANCH   4  14
HETATM   14  C   UNL     1      61.875   5.280   6.610  1.00  0.00     0.169 C 
BRANCH  14  15
HETATM   15  C   UNL     1      60.447   5.692   6.890  1.00  0.00     0.264 C 
HETATM   16  O   UNL     1      60.020   6.182   7.927  1.00  0.00    -0.265 OA
BRANCH  15  17
HETATM   17  O   UNL     1      59.668   5.393   5.808  1.00  0.00    -0.326 OA
HETATM   18  C   UNL     1      58.479   6.184   5.724  1.00  0.00     0.213 C 
ENDBRANCH  15  17
ENDBRANCH  14  15
ENDBRANCH   4  14
TORSDOF 4
ENDMDL
MODEL 5
REMARK VINA RESULT:      -5.3      1.612      2.013
REMARK  4 active torsions:
REMARK  status: ('A' for Active; 'I' for Inactive)
REMARK    1  A    between atoms: C_3  and  C_9 
REMARK    2  A    between atoms: C_4  and  C_7 
REMARK    3  A    between atoms: C_7  and  C_8 
REMARK    4  A    between atoms: C_8  and  O_11 
ROOT
HETATM    1  N   UNL     1      63.560   7.393   5.197  1.00  0.00    -0.352 N 
ATOM      2  HN  UNL     1      63.332   8.009   5.977  1.00  0.00     0.166 HD
HETATM    3  C   UNL     1      63.322   7.673   3.929  1.00  0.00     0.085 A 
HETATM    4  C   UNL     1      64.164   6.146   5.325  1.00  0.00     0.032 A 
HETATM    5  S   UNL     1      63.811   6.445   2.826  1.00  0.00    -0.075 SA
HETATM    6  C   UNL     1      64.368   5.482   4.126  1.00  0.00     0.004 A 
HETATM    7  C   UNL     1      64.991   4.160   3.847  1.00  0.00     0.058 C 
ENDROOT
BRANCH   3   8
HETATM    8  C   UNL     1      62.750   8.940   3.442  1.00  0.00    -0.002 A 
HETATM    9  C   UNL     1      62.540   9.992   4.349  1.00  0.00     0.014 A 
HETATM   10  C   UNL     1      62.038  11.223   3.916  1.00  0.00     0.001 A 
HETATM   11  C   UNL     1      61.728  11.417   2.572  1.00  0.00     0.000 A 
HETATM   12  C   UNL     1      61.907  10.378   1.664  1.00  0.00     0.001 A 
HETATM   13  C   UNL     1      62.410   9.148   2.096  1.00  0.00     0.014 A 
ENDBRANCH   3   8
BRANCH   4  14
HETATM   14  C   UNL     1      64.489   5.663   6.703  1.00  0.00     0.169 C 
BRANCH  14  15
HETATM   15  C   UNL     1      65.544   6.500   7.391  1.00  0.00     0.264 C 
HETATM   16  O   UNL     1      65.889   7.634   7.083  1.00  0.00    -0.265 OA
BRANCH  15  17
HETATM   17  O   UNL     1      66.106   5.779   8.406  1.00  0.00    -0.326 OA
HETATM   18  C   UNL     1      67.058   6.519   9.174  1.00  0.00     0.213 C 
ENDBRANCH  15  17
ENDBRANCH  14  15
ENDBRANCH   4  14
TORSDOF 4
ENDMDL
MODEL 6
REMARK VINA RESULT:      -4.9      3.240      4.378
REMARK  4 active torsions:
REMARK  status: ('A' for Active; 'I' for Inactive)
REMARK    1  A    between atoms: C_3  and  C_9 
REMARK    2  A    between atoms: C_4  and  C_7 
REMARK    3  A    between atoms: C_7  and  C_8 
REMARK    4  A    between atoms: C_8  and  O_11 
ROOT
HETATM    1  N   UNL     1      61.560   6.911   4.772  1.00  0.00    -0.352 N 
ATOM      2  HN  UNL     1      60.577   7.178   4.824  1.00  0.00     0.166 HD
HETATM    3  C   UNL     1      62.477   7.568   4.087  1.00  0.00     0.085 A 
HETATM    4  C   UNL     1      62.114   5.807   5.411  1.00  0.00     0.032 A 
HETATM    5  S   UNL     1      64.055   6.887   4.177  1.00  0.00    -0.075 SA
HETATM    6  C   UNL     1      63.471   5.636   5.187  1.00  0.00     0.004 A 
HETATM    7  C   UNL     1      64.413   4.605   5.700  1.00  0.00     0.058 C 
ENDROOT
BRANCH   3   8
HETATM    8  C   UNL     1      62.236   8.819   3.347  1.00  0.00    -0.002 A 
HETATM    9  C   UNL     1      62.106  10.024   4.058  1.00  0.00     0.014 A 
HETATM   10  C   UNL     1      61.918  11.236   3.388  1.00  0.00     0.001 A 
HETATM   11  C   UNL     1      61.846  11.260   1.997  1.00  0.00     0.000 A 
HETATM   12  C   UNL     1      61.947  10.074   1.277  1.00  0.00     0.001 A 
HETATM   13  C   UNL     1      62.138   8.862   1.947  1.00  0.00     0.014 A 
ENDBRANCH   3   8
BRANCH   4  14
HETATM   14  C   UNL     1      61.205   4.937   6.222  1.00  0.00     0.169 C 
BRANCH  14  15
HETATM   15  C   UNL     1      59.924   5.632   6.624  1.00  0.00     0.264 C 
HETATM   16  O   UNL     1      58.884   5.674   5.979  1.00  0.00    -0.265 OA
BRANCH  15  17
HETATM   17  O   UNL     1      60.106   6.260   7.824  1.00  0.00    -0.326 OA
HETATM   18  C   UNL     1      58.962   6.198   8.680  1.00  0.00     0.213 C 
ENDBRANCH  15  17
ENDBRANCH  14  15
ENDBRANCH   4  14
TORSDOF 4
ENDMDL
MODEL 7
REMARK VINA RESULT:      -4.8      4.488      5.898
REMARK  4 active torsions:
REMARK  status: ('A' for Active; 'I' for Inactive)
REMARK    1  A    between atoms: C_3  and  C_9 
REMARK    2  A    between atoms: C_4  and  C_7 
REMARK    3  A    between atoms: C_7  and  C_8 
REMARK    4  A    between atoms: C_8  and  O_11 
ROOT
HETATM    1  N   UNL     1      60.299   8.328   3.751  1.00  0.00    -0.352 N 
ATOM      2  HN  UNL     1      59.737   9.047   4.207  1.00  0.00     0.166 HD
HETATM    3  C   UNL     1      59.804   7.289   3.106  1.00  0.00     0.085 A 
HETATM    4  C   UNL     1      61.690   8.311   3.726  1.00  0.00     0.032 A 
HETATM    5  S   UNL     1      60.990   6.236   2.438  1.00  0.00    -0.075 SA
HETATM    6  C   UNL     1      62.238   7.230   3.056  1.00  0.00     0.004 A 
HETATM    7  C   UNL     1      63.659   6.871   2.799  1.00  0.00     0.058 C 
ENDROOT
BRANCH   3   8
HETATM    8  C   UNL     1      58.368   7.042   2.891  1.00  0.00    -0.002 A 
HETATM    9  C   UNL     1      57.864   7.014   1.580  1.00  0.00     0.014 A 
HETATM   10  C   UNL     1      56.515   6.741   1.335  1.00  0.00     0.001 A 
HETATM   11  C   UNL     1      55.647   6.503   2.398  1.00  0.00     0.000 A 
HETATM   12  C   UNL     1      56.123   6.551   3.705  1.00  0.00     0.001 A 
HETATM   13  C   UNL     1      57.472   6.821   3.950  1.00  0.00     0.014 A 
ENDBRANCH   3   8
BRANCH   4  14
HETATM   14  C   UNL     1      62.417   9.414   4.430  1.00  0.00     0.169 C 
BRANCH  14  15
HETATM   15  C   UNL     1      62.100  10.783   3.870  1.00  0.00     0.264 C 
HETATM   16  O   UNL     1      61.946  11.814   4.512  1.00  0.00    -0.265 OA
BRANCH  15  17
HETATM   17  O   UNL     1      61.964  10.699   2.513  1.00  0.00    -0.326 OA
HETATM   18  C   UNL     1      61.676  11.953   1.889  1.00  0.00     0.213 C 
ENDBRANCH  15  17
ENDBRANCH  14  15
ENDBRANCH   4  14
TORSDOF 4
ENDMDL
MODEL 8
REMARK VINA RESULT:      -4.7      4.409      5.701
REMARK  4 active torsions:
REMARK  status: ('A' for Active; 'I' for Inactive)
REMARK    1  A    between atoms: C_3  and  C_9 
REMARK    2  A    between atoms: C_4  and  C_7 
REMARK    3  A    between atoms: C_7  and  C_8 
REMARK    4  A    between atoms: C_8  and  O_11 
ROOT
HETATM    1  N   UNL     1      60.139   8.519   3.583  1.00  0.00    -0.352 N 
ATOM      2  HN  UNL     1      59.960   8.829   4.538  1.00  0.00     0.166 HD
HETATM    3  C   UNL     1      59.344   7.723   2.893  1.00  0.00     0.085 A 
HETATM    4  C   UNL     1      61.254   8.878   2.832  1.00  0.00     0.032 A 
HETATM    5  S   UNL     1      59.901   7.364   1.305  1.00  0.00    -0.075 SA
HETATM    6  C   UNL     1      61.291   8.328   1.561  1.00  0.00     0.004 A 
HETATM    7  C   UNL     1      62.289   8.484   0.469  1.00  0.00     0.058 C 
ENDROOT
BRANCH   3   8
HETATM    8  C   UNL     1      58.048   7.212   3.372  1.00  0.00    -0.002 A 
HETATM    9  C   UNL     1      57.046   6.898   2.440  1.00  0.00     0.014 A 
HETATM   10  C   UNL     1      55.819   6.372   2.855  1.00  0.00     0.001 A 
HETATM   11  C   UNL     1      55.571   6.163   4.209  1.00  0.00     0.000 A 
HETATM   12  C   UNL     1      56.543   6.492   5.150  1.00  0.00     0.001 A 
HETATM   13  C   UNL     1      57.771   7.015   4.735  1.00  0.00     0.014 A 
ENDBRANCH   3   8
BRANCH   4  14
HETATM   14  C   UNL     1      62.273   9.769   3.472  1.00  0.00     0.169 C 
BRANCH  14  15
HETATM   15  C   UNL     1      62.756   9.251   4.808  1.00  0.00     0.264 C 
HETATM   16  O   UNL     1      63.173   9.923   5.743  1.00  0.00    -0.265 OA
BRANCH  15  17
HETATM   17  O   UNL     1      62.700   7.886   4.813  1.00  0.00    -0.326 OA
HETATM   18  C   UNL     1      62.553   7.325   6.120  1.00  0.00     0.213 C 
ENDBRANCH  15  17
ENDBRANCH  14  15
ENDBRANCH   4  14
TORSDOF 4
ENDMDL
MODEL 9
REMARK VINA RESULT:      -4.6      2.379      3.528
REMARK  4 active torsions:
REMARK  status: ('A' for Active; 'I' for Inactive)
REMARK    1  A    between atoms: C_3  and  C_9 
REMARK    2  A    between atoms: C_4  and  C_7 
REMARK    3  A    between atoms: C_7  and  C_8 
REMARK    4  A    between atoms: C_8  and  O_11 
ROOT
HETATM    1  N   UNL     1      62.440   7.073   4.983  1.00  0.00    -0.352 N 
ATOM      2  HN  UNL     1      61.512   6.832   4.634  1.00  0.00     0.166 HD
HETATM    3  C   UNL     1      63.122   8.143   4.622  1.00  0.00     0.085 A 
HETATM    4  C   UNL     1      63.157   6.316   5.905  1.00  0.00     0.032 A 
HETATM    5  S   UNL     1      64.664   8.292   5.372  1.00  0.00    -0.075 SA
HETATM    6  C   UNL     1      64.403   6.832   6.225  1.00  0.00     0.004 A 
HETATM    7  C   UNL     1      65.442   6.335   7.167  1.00  0.00     0.058 C 
ENDROOT
BRANCH   3   8
HETATM    8  C   UNL     1      62.622   9.186   3.709  1.00  0.00    -0.002 A 
HETATM    9  C   UNL     1      62.337  10.465   4.217  1.00  0.00     0.014 A 
HETATM   10  C   UNL     1      61.901  11.491   3.373  1.00  0.00     0.001 A 
HETATM   11  C   UNL     1      61.733  11.251   2.012  1.00  0.00     0.000 A 
HETATM   12  C   UNL     1      61.987   9.984   1.495  1.00  0.00     0.001 A 
HETATM   13  C   UNL     1      62.425   8.959   2.337  1.00  0.00     0.014 A 
ENDBRANCH   3   8
BRANCH   4  14
HETATM   14  C   UNL     1      62.535   5.051   6.410  1.00  0.00     0.169 C 
BRANCH  14  15
HETATM   15  C   UNL     1      62.892   3.842   5.574  1.00  0.00     0.264 C 
HETATM   16  O   UNL     1      63.024   2.693   5.974  1.00  0.00    -0.265 OA
BRANCH  15  17
HETATM   17  O   UNL     1      63.092   4.229   4.279  1.00  0.00    -0.326 OA
HETATM   18  C   UNL     1      63.674   3.209   3.462  1.00  0.00     0.213 C 
ENDBRANCH  15  17
ENDBRANCH  14  15
ENDBRANCH   4  14
TORSDOF 4
ENDMDL
