MODEL 1
REMARK VINA RESULT:      -4.6      0.000      0.000
REMARK  5 active torsions:
REMARK  status: ('A' for Active; 'I' for Inactive)
REMARK    1  A    between atoms: C_3  and  C_4 
REMARK    2  A    between atoms: C_3  and  C_6 
REMARK    3  A    between atoms: N_5  and  C_6 
REMARK    4  A    between atoms: N_5  and  C_8 
REMARK    5  A    between atoms: N_5  and  C_9 
ROOT
HETATM    1  C   UNL     1      64.287   7.644   4.836  1.00  0.00     0.084 C 
ENDROOT
BRANCH   1   2
HETATM    2  C   UNL     1      63.434   8.874   4.632  1.00  0.00     0.010 A 
HETATM    3  N   UNL     1      63.470   9.816   5.611  1.00  0.00    -0.369 N 
HETATM    4  C   UNL     1      62.815  10.975   5.381  1.00  0.00     0.088 A 
ATOM      5  HN  UNL     1      63.972   9.655   6.485  1.00  0.00     0.165 HD
HETATM    6  C   UNL     1      62.116  11.250   4.225  1.00  0.00     0.017 A 
HETATM    7  C   UNL     1      62.060  10.267   3.245  1.00  0.00     0.003 A 
HETATM    8  C   UNL     1      62.725   9.060   3.450  1.00  0.00     0.025 A 
ENDBRANCH   1   2
BRANCH   1   9
HETATM    9  C   UNL     1      64.300   7.123   6.285  1.00  0.00     0.240 C 
BRANCH   9  10
HETATM   10  N   UNL     1      65.599   7.361   6.956  1.00  0.00    -0.071 N 
HETATM   11  H   UNL     1      65.391   8.094   7.634  1.00  0.00     0.279 HD
BRANCH  10  12
HETATM   12  C   UNL     1      66.099   6.199   7.715  1.00  0.00     0.230 C 
HETATM   13  C   UNL     1      66.417   6.433   9.191  1.00  0.00     0.034 C 
ENDBRANCH  10  12
BRANCH  10  14
HETATM   14  C   UNL     1      66.640   7.880   6.055  1.00  0.00     0.230 C 
HETATM   15  C   UNL     1      67.754   6.875   5.776  1.00  0.00     0.034 C 
ENDBRANCH  10  14
ENDBRANCH   9  10
ENDBRANCH   1   9
TORSDOF 5
ENDMDL
MODEL 2
REMARK VINA RESULT:      -4.6      1.318      1.683
REMARK  5 active torsions:
REMARK  status: ('A' for Active; 'I' for Inactive)
REMARK    1  A    between atoms: C_3  and  C_4 
REMARK    2  A    between atoms: C_3  and  C_6 
REMARK    3  A    between atoms: N_5  and  C_6 
REMARK    4  A    between atoms: N_5  and  C_8 
REMARK    5  A    between atoms: N_5  and  C_9 
ROOT
HETATM    1  C   UNL     1      63.317   8.473   5.071  1.00  0.00     0.084 C 
ENDROOT
BRANCH   1   2
HETATM    2  C   UNL     1      62.694   9.270   3.950  1.00  0.00     0.010 A 
HETATM    3  N   UNL     1      62.330  10.549   4.234  1.00  0.00    -0.369 N 
HETATM    4  C   UNL     1      61.891  11.311   3.209  1.00  0.00     0.088 A 
ATOM      5  HN  UNL     1      62.385  10.918   5.184  1.00  0.00     0.165 HD
HETATM    6  C   UNL     1      61.788  10.868   1.907  1.00  0.00     0.017 A 
HETATM    7  C   UNL     1      62.133   9.550   1.635  1.00  0.00     0.003 A 
HETATM    8  C   UNL     1      62.589   8.737   2.670  1.00  0.00     0.025 A 
ENDBRANCH   1   2
BRANCH   1   9
HETATM    9  C   UNL     1      64.856   8.490   5.073  1.00  0.00     0.240 C 
BRANCH   9  10
HETATM   10  N   UNL     1      65.423   7.936   6.324  1.00  0.00    -0.071 N 
HETATM   11  H   UNL     1      65.264   8.674   7.010  1.00  0.00     0.279 HD
BRANCH  10  12
HETATM   12  C   UNL     1      64.722   6.733   6.815  1.00  0.00     0.230 C 
HETATM   13  C   UNL     1      65.594   5.522   7.143  1.00  0.00     0.034 C 
ENDBRANCH  10  12
BRANCH  10  14
HETATM   14  C   UNL     1      66.874   7.702   6.260  1.00  0.00     0.230 C 
HETATM   15  C   UNL     1      67.442   7.811   4.848  1.00  0.00     0.034 C 
ENDBRANCH  10  14
ENDBRANCH   9  10
ENDBRANCH   1   9
TORSDOF 5
ENDMDL
MODEL 3
REMARK VINA RESULT:      -4.5      0.449      1.767
REMARK  5 active torsions:
REMARK  status: ('A' for Active; 'I' for Inactive)
REMARK    1  A    between atoms: C_3  and  C_4 
REMARK    2  A    between atoms: C_3  and  C_6 
REMARK    3  A    between atoms: N_5  and  C_6 
REMARK    4  A    between atoms: N_5  and  C_8 
REMARK    5  A    between atoms: N_5  and  C_9 
ROOT
HETATM    1  C   UNL     1      64.236   7.556   4.732  1.00  0.00     0.084 C 
ENDROOT
BRANCH   1   2
HETATM    2  C   UNL     1      63.415   8.815   4.585  1.00  0.00     0.010 A 
HETATM    3  N   UNL     1      63.502   9.726   5.590  1.00  0.00    -0.369 N 
HETATM    4  C   UNL     1      62.875  10.909   5.410  1.00  0.00     0.088 A 
ATOM      5  HN  UNL     1      64.021   9.525   6.445  1.00  0.00     0.165 HD
HETATM    6  C   UNL     1      62.155  11.237   4.281  1.00  0.00     0.017 A 
HETATM    7  C   UNL     1      62.047  10.286   3.274  1.00  0.00     0.003 A 
HETATM    8  C   UNL     1      62.682   9.055   3.427  1.00  0.00     0.025 A 
ENDBRANCH   1   2
BRANCH   1   9
HETATM    9  C   UNL     1      64.388   7.072   6.185  1.00  0.00     0.240 C 
BRANCH   9  10
HETATM   10  N   UNL     1      65.794   6.756   6.528  1.00  0.00    -0.071 N 
HETATM   11  H   UNL     1      66.072   6.081   5.816  1.00  0.00     0.279 HD
BRANCH  10  12
HETATM   12  C   UNL     1      66.709   7.909   6.410  1.00  0.00     0.230 C 
HETATM   13  C   UNL     1      67.771   7.828   5.315  1.00  0.00     0.034 C 
ENDBRANCH  10  12
BRANCH  10  14
HETATM   14  C   UNL     1      65.948   6.103   7.837  1.00  0.00     0.230 C 
HETATM   15  C   UNL     1      66.988   6.774   8.730  1.00  0.00     0.034 C 
ENDBRANCH  10  14
ENDBRANCH   9  10
ENDBRANCH   1   9
TORSDOF 5
ENDMDL
MODEL 4
REMARK VINA RESULT:      -4.2      1.431      5.884
REMARK  5 active torsions:
REMARK  status: ('A' for Active; 'I' for Inactive)
REMARK    1  A    between atoms: C_3  and  C_4 
REMARK    2  A    between atoms: C_3  and  C_6 
REMARK    3  A    between atoms: N_5  and  C_6 
REMARK    4  A    between atoms: N_5  and  C_8 
REMARK    5  A    between atoms: N_5  and  C_9 
ROOT
HETATM    1  C   UNL     1      64.657   8.778   4.928  1.00  0.00     0.084 C 
ENDROOT
BRANCH   1   2
HETATM    2  C   UNL     1      65.626   7.925   5.712  1.00  0.00     0.010 A 
HETATM    3  N   UNL     1      65.149   7.325   6.834  1.00  0.00    -0.369 N 
HETATM    4  C   UNL     1      65.967   6.460   7.470  1.00  0.00     0.088 A 
ATOM      5  HN  UNL     1      64.209   7.520   7.181  1.00  0.00     0.165 HD
HETATM    6  C   UNL     1      67.248   6.160   7.054  1.00  0.00     0.017 A 
HETATM    7  C   UNL     1      67.736   6.803   5.924  1.00  0.00     0.003 A 
HETATM    8  C   UNL     1      66.917   7.702   5.243  1.00  0.00     0.025 A 
ENDBRANCH   1   2
BRANCH   1   9
HETATM    9  C   UNL     1      63.553   7.977   4.213  1.00  0.00     0.240 C 
BRANCH   9  10
HETATM   10  N   UNL     1      62.887   8.764   3.150  1.00  0.00    -0.071 N 
HETATM   11  H   UNL     1      63.599   9.437   2.865  1.00  0.00     0.279 HD
BRANCH  10  12
HETATM   12  C   UNL     1      62.539   7.973   1.953  1.00  0.00     0.230 C 
HETATM   13  C   UNL     1      62.128   8.761   0.710  1.00  0.00     0.034 C 
ENDBRANCH  10  12
BRANCH  10  14
HETATM   14  C   UNL     1      61.723   9.528   3.624  1.00  0.00     0.230 C 
HETATM   15  C   UNL     1      61.960  11.035   3.652  1.00  0.00     0.034 C 
ENDBRANCH  10  14
ENDBRANCH   9  10
ENDBRANCH   1   9
TORSDOF 5
ENDMDL
MODEL 5
REMARK VINA RESULT:      -4.1      1.298      5.518
REMARK  5 active torsions:
REMARK  status: ('A' for Active; 'I' for Inactive)
REMARK    1  A    between atoms: C_3  and  C_4 
REMARK    2  A    between atoms: C_3  and  C_6 
REMARK    3  A    between atoms: N_5  and  C_6 
REMARK    4  A    between atoms: N_5  and  C_8 
REMARK    5  A    between atoms: N_5  and  C_9 
ROOT
HETATM    1  C   UNL     1      64.323   7.777   4.095  1.00  0.00     0.084 C 
ENDROOT
BRANCH   1   2
HETATM    2  C   UNL     1      65.541   7.419   4.914  1.00  0.00     0.010 A 
HETATM    3  N   UNL     1      65.553   7.832   6.209  1.00  0.00    -0.369 N 
HETATM    4  C   UNL     1      66.574   7.409   6.985  1.00  0.00     0.088 A 
ATOM      5  HN  UNL     1      64.820   8.438   6.580  1.00  0.00     0.165 HD
HETATM    6  C   UNL     1      67.596   6.596   6.541  1.00  0.00     0.017 A 
HETATM    7  C   UNL     1      67.589   6.206   5.207  1.00  0.00     0.003 A 
HETATM    8  C   UNL     1      66.549   6.625   4.379  1.00  0.00     0.025 A 
ENDBRANCH   1   2
BRANCH   1   9
HETATM    9  C   UNL     1      63.263   8.584   4.866  1.00  0.00     0.240 C 
BRANCH   9  10
HETATM   10  N   UNL     1      62.228   9.152   3.971  1.00  0.00    -0.071 N 
HETATM   11  H   UNL     1      61.353   8.796   4.356  1.00  0.00     0.279 HD
BRANCH  10  12
HETATM   12  C   UNL     1      62.150  10.625   4.010  1.00  0.00     0.230 C 
HETATM   13  C   UNL     1      62.619  11.299   5.299  1.00  0.00     0.034 C 
ENDBRANCH  10  12
BRANCH  10  14
HETATM   14  C   UNL     1      62.325   8.674   2.583  1.00  0.00     0.230 C 
HETATM   15  C   UNL     1      62.025   9.755   1.549  1.00  0.00     0.034 C 
ENDBRANCH  10  14
ENDBRANCH   9  10
ENDBRANCH   1   9
TORSDOF 5
ENDMDL
MODEL 6
REMARK VINA RESULT:      -3.8      2.283      5.902
REMARK  5 active torsions:
REMARK  status: ('A' for Active; 'I' for Inactive)
REMARK    1  A    between atoms: C_3  and  C_4 
REMARK    2  A    between atoms: C_3  and  C_6 
REMARK    3  A    between atoms: N_5  and  C_6 
REMARK    4  A    between atoms: N_5  and  C_8 
REMARK    5  A    between atoms: N_5  and  C_9 
ROOT
HETATM    1  C   UNL     1      62.530   8.436   4.780  1.00  0.00     0.084 C 
ENDROOT
BRANCH   1   2
HETATM    2  C   UNL     1      63.981   8.023   4.704  1.00  0.00     0.010 A 
HETATM    3  N   UNL     1      64.819   8.549   5.636  1.00  0.00    -0.369 N 
HETATM    4  C   UNL     1      66.089   8.089   5.658  1.00  0.00     0.088 A 
ATOM      5  HN  UNL     1      64.502   9.263   6.293  1.00  0.00     0.165 HD
HETATM    6  C   UNL     1      66.578   7.132   4.794  1.00  0.00     0.017 A 
HETATM    7  C   UNL     1      65.721   6.625   3.826  1.00  0.00     0.003 A 
HETATM    8  C   UNL     1      64.404   7.078   3.776  1.00  0.00     0.025 A 
ENDBRANCH   1   2
BRANCH   1   9
HETATM    9  C   UNL     1      62.078   9.355   3.631  1.00  0.00     0.240 C 
BRANCH   9  10
HETATM   10  N   UNL     1      60.818   8.893   3.005  1.00  0.00    -0.071 N 
HETATM   11  H   UNL     1      60.178   9.674   3.143  1.00  0.00     0.279 HD
BRANCH  10  12
HETATM   12  C   UNL     1      60.922   8.672   1.549  1.00  0.00     0.230 C 
HETATM   13  C   UNL     1      62.280   8.959   0.910  1.00  0.00     0.034 C 
ENDBRANCH  10  12
BRANCH  10  14
HETATM   14  C   UNL     1      60.228   7.719   3.667  1.00  0.00     0.230 C 
HETATM   15  C   UNL     1      58.813   7.404   3.192  1.00  0.00     0.034 C 
ENDBRANCH  10  14
ENDBRANCH   9  10
ENDBRANCH   1   9
TORSDOF 5
ENDMDL
MODEL 7
REMARK VINA RESULT:      -3.8      1.332      2.133
REMARK  5 active torsions:
REMARK  status: ('A' for Active; 'I' for Inactive)
REMARK    1  A    between atoms: C_3  and  C_4 
REMARK    2  A    between atoms: C_3  and  C_6 
REMARK    3  A    between atoms: N_5  and  C_6 
REMARK    4  A    between atoms: N_5  and  C_8 
REMARK    5  A    between atoms: N_5  and  C_9 
ROOT
HETATM    1  C   UNL     1      64.780   7.311   4.673  1.00  0.00     0.084 C 
ENDROOT
BRANCH   1   2
HETATM    2  C   UNL     1      63.859   8.457   4.327  1.00  0.00     0.010 A 
HETATM    3  N   UNL     1      63.172   8.362   3.158  1.00  0.00    -0.369 N 
HETATM    4  C   UNL     1      62.251   9.316   2.900  1.00  0.00     0.088 A 
ATOM      5  HN  UNL     1      63.345   7.601   2.501  1.00  0.00     0.165 HD
HETATM    6  C   UNL     1      61.976  10.371   3.744  1.00  0.00     0.017 A 
HETATM    7  C   UNL     1      62.707  10.475   4.922  1.00  0.00     0.003 A 
HETATM    8  C   UNL     1      63.664   9.507   5.218  1.00  0.00     0.025 A 
ENDBRANCH   1   2
BRANCH   1   9
HETATM    9  C   UNL     1      64.663   6.829   6.130  1.00  0.00     0.240 C 
BRANCH   9  10
HETATM   10  N   UNL     1      65.946   6.306   6.654  1.00  0.00    -0.071 N 
HETATM   11  H   UNL     1      66.553   6.291   5.835  1.00  0.00     0.279 HD
BRANCH  10  12
HETATM   12  C   UNL     1      66.586   7.186   7.650  1.00  0.00     0.230 C 
HETATM   13  C   UNL     1      66.917   6.557   9.003  1.00  0.00     0.034 C 
ENDBRANCH  10  12
BRANCH  10  14
HETATM   14  C   UNL     1      65.856   4.927   7.160  1.00  0.00     0.230 C 
HETATM   15  C   UNL     1      64.483   4.294   6.950  1.00  0.00     0.034 C 
ENDBRANCH  10  14
ENDBRANCH   9  10
ENDBRANCH   1   9
TORSDOF 5
ENDMDL
MODEL 8
REMARK VINA RESULT:      -3.6      2.739      3.695
REMARK  5 active torsions:
REMARK  status: ('A' for Active; 'I' for Inactive)
REMARK    1  A    between atoms: C_3  and  C_4 
REMARK    2  A    between atoms: C_3  and  C_6 
REMARK    3  A    between atoms: N_5  and  C_6 
REMARK    4  A    between atoms: N_5  and  C_8 
REMARK    5  A    between atoms: N_5  and  C_9 
ROOT
HETATM    1  C   UNL     1      60.463   7.210   3.723  1.00  0.00     0.084 C 
ENDROOT
BRANCH   1   2
HETATM    2  C   UNL     1      60.981   8.418   2.980  1.00  0.00     0.010 A 
HETATM    3  N   UNL     1      61.149   9.558   3.702  1.00  0.00    -0.369 N 
HETATM    4  C   UNL     1      61.732  10.605   3.080  1.00  0.00     0.088 A 
ATOM      5  HN  UNL     1      60.847   9.619   4.675  1.00  0.00     0.165 HD
HETATM    6  C   UNL     1      62.156  10.586   1.767  1.00  0.00     0.017 A 
HETATM    7  C   UNL     1      61.950   9.426   1.031  1.00  0.00     0.003 A 
HETATM    8  C   UNL     1      61.352   8.326   1.643  1.00  0.00     0.025 A 
ENDBRANCH   1   2
BRANCH   1   9
HETATM    9  C   UNL     1      61.558   6.385   4.423  1.00  0.00     0.240 C 
BRANCH   9  10
HETATM   10  N   UNL     1      61.688   6.726   5.858  1.00  0.00    -0.071 N 
HETATM   11  H   UNL     1      61.190   7.612   5.942  1.00  0.00     0.279 HD
BRANCH  10  12
HETATM   12  C   UNL     1      61.019   5.768   6.761  1.00  0.00     0.230 C 
HETATM   13  C   UNL     1      61.528   4.328   6.724  1.00  0.00     0.034 C 
ENDBRANCH  10  12
BRANCH  10  14
HETATM   14  C   UNL     1      63.076   6.960   6.285  1.00  0.00     0.230 C 
HETATM   15  C   UNL     1      63.917   7.685   5.238  1.00  0.00     0.034 C 
ENDBRANCH  10  14
ENDBRANCH   9  10
ENDBRANCH   1   9
TORSDOF 5
ENDMDL
MODEL 9
REMARK VINA RESULT:      -3.6      2.365      3.224
REMARK  5 active torsions:
REMARK  status: ('A' for Active; 'I' for Inactive)
REMARK    1  A    between atoms: C_3  and  C_4 
REMARK    2  A    between atoms: C_3  and  C_6 
REMARK    3  A    between atoms: N_5  and  C_6 
REMARK    4  A    between atoms: N_5  and  C_8 
REMARK    5  A    between atoms: N_5  and  C_9 
ROOT
HETATM    1  C   UNL     1      64.170   7.610   4.831  1.00  0.00     0.084 C 
ENDROOT
BRANCH   1   2
HETATM    2  C   UNL     1      63.368   8.878   4.663  1.00  0.00     0.010 A 
HETATM    3  N   UNL     1      63.490   9.817   5.638  1.00  0.00    -0.369 N 
HETATM    4  C   UNL     1      62.880  11.005   5.435  1.00  0.00     0.088 A 
ATOM      5  HN  UNL     1      64.022   9.632   6.489  1.00  0.00     0.165 HD
HETATM    6  C   UNL     1      62.144  11.313   4.311  1.00  0.00     0.017 A 
HETATM    7  C   UNL     1      62.000  10.334   3.335  1.00  0.00     0.003 A 
HETATM    8  C   UNL     1      62.617   9.098   3.513  1.00  0.00     0.025 A 
ENDBRANCH   1   2
BRANCH   1   9
HETATM    9  C   UNL     1      63.334   6.321   4.737  1.00  0.00     0.240 C 
BRANCH   9  10
HETATM   10  N   UNL     1      62.760   5.927   6.044  1.00  0.00    -0.071 N 
HETATM   11  H   UNL     1      63.284   6.486   6.717  1.00  0.00     0.279 HD
BRANCH  10  12
HETATM   12  C   UNL     1      61.336   6.283   6.203  1.00  0.00     0.230 C 
HETATM   13  C   UNL     1      60.506   5.383   7.116  1.00  0.00     0.034 C 
ENDBRANCH  10  12
BRANCH  10  14
HETATM   14  C   UNL     1      62.982   4.512   6.382  1.00  0.00     0.230 C 
HETATM   15  C   UNL     1      63.367   3.656   5.178  1.00  0.00     0.034 C 
ENDBRANCH  10  14
ENDBRANCH   9  10
ENDBRANCH   1   9
TORSDOF 5
ENDMDL
