MODEL 1
REMARK VINA RESULT:      -4.2      0.000      0.000
REMARK  1 active torsions:
REMARK  status: ('A' for Active; 'I' for Inactive)
REMARK    1  A    between atoms: C_4  and  O_10 
ROOT
HETATM    1  C   UNL     1      61.203   7.141   2.786  1.00  0.00     0.138 C 
HETATM    2  C   UNL     1      62.571   7.330   2.119  1.00  0.00     0.017 C 
HETATM    3  C   UNL     1      60.655   8.379   3.466  1.00  0.00     0.117 C 
HETATM    4  C   UNL     1      61.679   9.506   3.264  1.00  0.00     0.064 C 
HETATM    5  O   UNL     1      60.578   6.083   2.774  1.00  0.00    -0.297 OA
HETATM    6  C   UNL     1      62.395   8.459   1.082  1.00  0.00     0.020 C 
HETATM    7  C   UNL     1      63.536   7.797   3.226  1.00  0.00     0.020 C 
HETATM    8  C   UNL     1      61.892   9.742   1.758  1.00  0.00     0.039 C 
HETATM    9  C   UNL     1      63.022   9.085   3.884  1.00  0.00     0.039 C 
HETATM   10  C   UNL     1      63.066   6.047   1.459  1.00  0.00     0.023 C 
ENDROOT
BRANCH   4  11
HETATM   11  O   UNL     1      61.233  10.700   3.888  1.00  0.00    -0.389 OA
HETATM   12  H   UNL     1      61.260  10.591   4.852  1.00  0.00     0.210 HD
ENDBRANCH   4  11
TORSDOF 1
ENDMDL
MODEL 2
REMARK VINA RESULT:      -4.2      1.230      2.199
REMARK  1 active torsions:
REMARK  status: ('A' for Active; 'I' for Inactive)
REMARK    1  A    between atoms: C_4  and  O_10 
ROOT
HETATM    1  C   UNL     1      63.423   7.736   3.092  1.00  0.00     0.138 C 
HETATM    2  C   UNL     1      62.467   7.308   1.972  1.00  0.00     0.017 C 
HETATM    3  C   UNL     1      63.004   8.986   3.838  1.00  0.00     0.117 C 
HETATM    4  C   UNL     1      61.679   9.465   3.226  1.00  0.00     0.064 C 
HETATM    5  O   UNL     1      64.447   7.124   3.386  1.00  0.00    -0.297 OA
HETATM    6  C   UNL     1      61.094   7.081   2.638  1.00  0.00     0.020 C 
HETATM    7  C   UNL     1      62.373   8.500   0.998  1.00  0.00     0.020 C 
HETATM    8  C   UNL     1      60.622   8.354   3.355  1.00  0.00     0.039 C 
HETATM    9  C   UNL     1      61.892   9.761   1.731  1.00  0.00     0.039 C 
HETATM   10  C   UNL     1      62.949   6.049   1.260  1.00  0.00     0.023 C 
ENDROOT
BRANCH   4  11
HETATM   11  O   UNL     1      61.230  10.646   3.873  1.00  0.00    -0.389 OA
HETATM   12  H   UNL     1      60.285  10.773   3.693  1.00  0.00     0.210 HD
ENDBRANCH   4  11
TORSDOF 1
ENDMDL
MODEL 3
REMARK VINA RESULT:      -4.2      1.944      3.320
REMARK  1 active torsions:
REMARK  status: ('A' for Active; 'I' for Inactive)
REMARK    1  A    between atoms: C_4  and  O_10 
ROOT
HETATM    1  C   UNL     1      62.104   9.807   3.934  1.00  0.00     0.138 C 
HETATM    2  C   UNL     1      61.852   8.562   3.074  1.00  0.00     0.017 C 
HETATM    3  C   UNL     1      62.861   9.544   5.220  1.00  0.00     0.117 C 
HETATM    4  C   UNL     1      63.172   8.041   5.272  1.00  0.00     0.064 C 
HETATM    5  O   UNL     1      61.739  10.938   3.621  1.00  0.00    -0.297 OA
HETATM    6  C   UNL     1      63.240   7.972   2.750  1.00  0.00     0.020 C 
HETATM    7  C   UNL     1      61.068   7.572   3.958  1.00  0.00     0.020 C 
HETATM    8  C   UNL     1      64.005   7.647   4.040  1.00  0.00     0.039 C 
HETATM    9  C   UNL     1      61.852   7.251   5.238  1.00  0.00     0.039 C 
HETATM   10  C   UNL     1      61.082   8.895   1.800  1.00  0.00     0.023 C 
ENDROOT
BRANCH   4  11
HETATM   11  O   UNL     1      63.875   7.720   6.462  1.00  0.00    -0.389 OA
HETATM   12  H   UNL     1      63.721   6.788   6.686  1.00  0.00     0.210 HD
ENDBRANCH   4  11
TORSDOF 1
ENDMDL
MODEL 4
REMARK VINA RESULT:      -4.1      4.414      5.803
REMARK  1 active torsions:
REMARK  status: ('A' for Active; 'I' for Inactive)
REMARK    1  A    between atoms: C_4  and  O_10 
ROOT
HETATM    1  C   UNL     1      65.398   8.378   5.634  1.00  0.00     0.138 C 
HETATM    2  C   UNL     1      64.935   7.139   4.858  1.00  0.00     0.017 C 
HETATM    3  C   UNL     1      66.563   8.138   6.572  1.00  0.00     0.117 C 
HETATM    4  C   UNL     1      66.955   6.658   6.449  1.00  0.00     0.064 C 
HETATM    5  O   UNL     1      64.886   9.489   5.514  1.00  0.00    -0.297 OA
HETATM    6  C   UNL     1      66.157   6.650   4.055  1.00  0.00     0.020 C 
HETATM    7  C   UNL     1      64.557   6.079   5.913  1.00  0.00     0.020 C 
HETATM    8  C   UNL     1      67.336   6.347   4.991  1.00  0.00     0.039 C 
HETATM    9  C   UNL     1      65.750   5.783   6.833  1.00  0.00     0.039 C 
HETATM   10  C   UNL     1      63.758   7.448   3.939  1.00  0.00     0.023 C 
ENDROOT
BRANCH   4  11
HETATM   11  O   UNL     1      68.041   6.358   7.313  1.00  0.00    -0.389 OA
HETATM   12  H   UNL     1      68.414   7.183   7.662  1.00  0.00     0.210 HD
ENDBRANCH   4  11
TORSDOF 1
ENDMDL
MODEL 5
REMARK VINA RESULT:      -4.1      1.710      3.201
REMARK  1 active torsions:
REMARK  status: ('A' for Active; 'I' for Inactive)
REMARK    1  A    between atoms: C_4  and  O_10 
ROOT
HETATM    1  C   UNL     1      62.812   9.402   4.887  1.00  0.00     0.138 C 
HETATM    2  C   UNL     1      62.940   7.878   4.771  1.00  0.00     0.017 C 
HETATM    3  C   UNL     1      62.016  10.056   3.775  1.00  0.00     0.117 C 
HETATM    4  C   UNL     1      61.546   8.941   2.829  1.00  0.00     0.064 C 
HETATM    5  O   UNL     1      63.299  10.060   5.803  1.00  0.00    -0.297 OA
HETATM    6  C   UNL     1      61.501   7.322   4.765  1.00  0.00     0.020 C 
HETATM    7  C   UNL     1      63.603   7.597   3.408  1.00  0.00     0.020 C 
HETATM    8  C   UNL     1      60.689   7.930   3.613  1.00  0.00     0.039 C 
HETATM    9  C   UNL     1      62.774   8.204   2.267  1.00  0.00     0.039 C 
HETATM   10  C   UNL     1      63.755   7.285   5.916  1.00  0.00     0.023 C 
ENDROOT
BRANCH   4  11
HETATM   11  O   UNL     1      60.798   9.485   1.753  1.00  0.00    -0.389 OA
HETATM   12  H   UNL     1      61.405   9.790   1.059  1.00  0.00     0.210 HD
ENDBRANCH   4  11
TORSDOF 1
ENDMDL
MODEL 6
REMARK VINA RESULT:      -4.0      1.295      3.576
REMARK  1 active torsions:
REMARK  status: ('A' for Active; 'I' for Inactive)
REMARK    1  A    between atoms: C_4  and  O_10 
ROOT
HETATM    1  C   UNL     1      62.074  10.068   2.039  1.00  0.00     0.138 C 
HETATM    2  C   UNL     1      62.124   9.491   3.459  1.00  0.00     0.017 C 
HETATM    3  C   UNL     1      61.908   9.036   0.943  1.00  0.00     0.117 C 
HETATM    4  C   UNL     1      61.825   7.658   1.617  1.00  0.00     0.064 C 
HETATM    5  O   UNL     1      62.151  11.269   1.787  1.00  0.00    -0.297 OA
HETATM    6  C   UNL     1      60.800   8.725   3.662  1.00  0.00     0.020 C 
HETATM    7  C   UNL     1      63.301   8.496   3.485  1.00  0.00     0.020 C 
HETATM    8  C   UNL     1      60.635   7.636   2.593  1.00  0.00     0.039 C 
HETATM    9  C   UNL     1      63.115   7.409   2.417  1.00  0.00     0.039 C 
HETATM   10  C   UNL     1      62.298  10.581   4.512  1.00  0.00     0.023 C 
ENDROOT
BRANCH   4  11
HETATM   11  O   UNL     1      61.678   6.637   0.643  1.00  0.00    -0.389 OA
HETATM   12  H   UNL     1      62.058   5.810   0.982  1.00  0.00     0.210 HD
ENDBRANCH   4  11
TORSDOF 1
ENDMDL
MODEL 7
REMARK VINA RESULT:      -3.9      5.128      6.088
REMARK  1 active torsions:
REMARK  status: ('A' for Active; 'I' for Inactive)
REMARK    1  A    between atoms: C_4  and  O_10 
ROOT
HETATM    1  C   UNL     1      65.923   5.363   7.280  1.00  0.00     0.138 C 
HETATM    2  C   UNL     1      65.984   5.228   5.753  1.00  0.00     0.017 C 
HETATM    3  C   UNL     1      66.261   6.743   7.806  1.00  0.00     0.117 C 
HETATM    4  C   UNL     1      66.566   7.636   6.594  1.00  0.00     0.064 C 
HETATM    5  O   UNL     1      65.618   4.443   8.035  1.00  0.00    -0.297 OA
HETATM    6  C   UNL     1      64.987   6.260   5.187  1.00  0.00     0.020 C 
HETATM    7  C   UNL     1      67.417   5.619   5.337  1.00  0.00     0.020 C 
HETATM    8  C   UNL     1      65.341   7.675   5.664  1.00  0.00     0.039 C 
HETATM    9  C   UNL     1      67.750   7.039   5.814  1.00  0.00     0.039 C 
HETATM   10  C   UNL     1      65.640   3.816   5.291  1.00  0.00     0.023 C 
ENDROOT
BRANCH   4  11
HETATM   11  O   UNL     1      66.903   8.949   7.016  1.00  0.00    -0.389 OA
HETATM   12  H   UNL     1      66.684   9.580   6.312  1.00  0.00     0.210 HD
ENDBRANCH   4  11
TORSDOF 1
ENDMDL
MODEL 8
REMARK VINA RESULT:      -3.9      1.445      3.476
REMARK  1 active torsions:
REMARK  status: ('A' for Active; 'I' for Inactive)
REMARK    1  A    between atoms: C_4  and  O_10 
ROOT
HETATM    1  C   UNL     1      63.216   8.559   3.529  1.00  0.00     0.138 C 
HETATM    2  C   UNL     1      62.040   9.506   3.265  1.00  0.00     0.017 C 
HETATM    3  C   UNL     1      63.233   7.315   2.663  1.00  0.00     0.117 C 
HETATM    4  C   UNL     1      62.014   7.387   1.731  1.00  0.00     0.064 C 
HETATM    5  O   UNL     1      64.093   8.774   4.363  1.00  0.00    -0.297 OA
HETATM    6  C   UNL     1      62.131   9.908   1.779  1.00  0.00     0.020 C 
HETATM    7  C   UNL     1      60.756   8.683   3.495  1.00  0.00     0.020 C 
HETATM    8  C   UNL     1      62.095   8.665   0.878  1.00  0.00     0.039 C 
HETATM    9  C   UNL     1      60.733   7.450   2.580  1.00  0.00     0.039 C 
HETATM   10  C   UNL     1      62.080  10.732   4.172  1.00  0.00     0.023 C 
ENDROOT
BRANCH   4  11
HETATM   11  O   UNL     1      61.961   6.242   0.894  1.00  0.00    -0.389 OA
HETATM   12  H   UNL     1      62.663   6.297   0.227  1.00  0.00     0.210 HD
ENDBRANCH   4  11
TORSDOF 1
ENDMDL
MODEL 9
REMARK VINA RESULT:      -3.9      1.944      2.662
REMARK  1 active torsions:
REMARK  status: ('A' for Active; 'I' for Inactive)
REMARK    1  A    between atoms: C_4  and  O_10 
ROOT
HETATM    1  C   UNL     1      61.231   7.666   3.640  1.00  0.00     0.138 C 
HETATM    2  C   UNL     1      62.385   8.410   2.957  1.00  0.00     0.017 C 
HETATM    3  C   UNL     1      61.497   7.272   5.079  1.00  0.00     0.117 C 
HETATM    4  C   UNL     1      62.904   7.770   5.440  1.00  0.00     0.064 C 
HETATM    5  O   UNL     1      60.164   7.407   3.088  1.00  0.00    -0.297 OA
HETATM    6  C   UNL     1      62.646   9.674   3.803  1.00  0.00     0.020 C 
HETATM    7  C   UNL     1      63.612   7.479   3.035  1.00  0.00     0.020 C 
HETATM    8  C   UNL     1      62.971   9.296   5.255  1.00  0.00     0.039 C 
HETATM    9  C   UNL     1      63.927   7.120   4.493  1.00  0.00     0.039 C 
HETATM   10  C   UNL     1      62.055   8.772   1.513  1.00  0.00     0.023 C 
ENDROOT
BRANCH   4  11
HETATM   11  O   UNL     1      63.225   7.424   6.779  1.00  0.00    -0.389 OA
HETATM   12  H   UNL     1      63.703   6.579   6.788  1.00  0.00     0.210 HD
ENDBRANCH   4  11
TORSDOF 1
ENDMDL
