MODEL 1
REMARK VINA RESULT:      -4.6      0.000      0.000
REMARK  1 active torsions:
REMARK  status: ('A' for Active; 'I' for Inactive)
REMARK    1  A    between atoms: C_1  and  C_6 
ROOT
HETATM    1  C   UNL     1      62.425   9.813   3.612  1.00  0.00     0.040 A 
HETATM    2  C   UNL     1      62.540   8.788   2.692  1.00  0.00     0.090 A 
HETATM    3  S   UNL     1      63.083   7.317   3.360  1.00  0.00    -0.065 SA
HETATM    4  C   UNL     1      63.181   8.005   4.896  1.00  0.00     0.077 A 
HETATM    5  C   UNL     1      62.813   9.324   4.919  1.00  0.00     0.048 A 
HETATM    6 CL   UNL     1      62.219   8.772   0.999  1.00  0.00    -0.075 Cl
HETATM    7 CL   UNL     1      63.700   7.057   6.228  1.00  0.00    -0.076 Cl
ENDROOT
BRANCH   1   8
HETATM    8  C   UNL     1      61.991  11.200   3.394  1.00  0.00     0.158 C 
HETATM    9  O   UNL     1      61.827  11.946   4.363  1.00  0.00    -0.293 OA
HETATM   10  C   UNL     1      61.738  11.739   2.012  1.00  0.00     0.097 C 
ENDBRANCH   1   8
TORSDOF 1
ENDMDL
MODEL 2
REMARK VINA RESULT:      -4.5      2.635      4.300
REMARK  1 active torsions:
REMARK  status: ('A' for Active; 'I' for Inactive)
REMARK    1  A    between atoms: C_1  and  C_6 
ROOT
HETATM    1  C   UNL     1      63.529   8.948   4.466  1.00  0.00     0.040 A 
HETATM    2  C   UNL     1      62.865  10.153   4.595  1.00  0.00     0.090 A 
HETATM    3  S   UNL     1      61.854  10.531   3.276  1.00  0.00    -0.065 SA
HETATM    4  C   UNL     1      62.273   9.098   2.493  1.00  0.00     0.077 A 
HETATM    5  C   UNL     1      63.162   8.336   3.204  1.00  0.00     0.048 A 
HETATM    6 CL   UNL     1      62.901  11.312   5.870  1.00  0.00    -0.075 Cl
HETATM    7 CL   UNL     1      61.595   8.727   0.962  1.00  0.00    -0.076 Cl
ENDROOT
BRANCH   1   8
HETATM    8  C   UNL     1      64.470   8.311   5.398  1.00  0.00     0.158 C 
HETATM    9  O   UNL     1      65.427   8.957   5.833  1.00  0.00    -0.293 OA
HETATM   10  C   UNL     1      64.295   6.884   5.841  1.00  0.00     0.097 C 
ENDBRANCH   1   8
TORSDOF 1
ENDMDL
MODEL 3
REMARK VINA RESULT:      -4.4      1.372      2.855
REMARK  1 active torsions:
REMARK  status: ('A' for Active; 'I' for Inactive)
REMARK    1  A    between atoms: C_1  and  C_6 
ROOT
HETATM    1  C   UNL     1      62.380   9.478   2.881  1.00  0.00     0.040 A 
HETATM    2  C   UNL     1      63.219   8.688   3.645  1.00  0.00     0.090 A 
HETATM    3  S   UNL     1      63.466   7.126   3.010  1.00  0.00    -0.065 SA
HETATM    4  C   UNL     1      62.463   7.458   1.697  1.00  0.00     0.077 A 
HETATM    5  C   UNL     1      61.941   8.724   1.724  1.00  0.00     0.048 A 
HETATM    6 CL   UNL     1      64.040   9.039   5.119  1.00  0.00    -0.075 Cl
HETATM    7 CL   UNL     1      62.192   6.259   0.500  1.00  0.00    -0.076 Cl
ENDROOT
BRANCH   1   8
HETATM    8  C   UNL     1      61.949  10.862   3.121  1.00  0.00     0.158 C 
HETATM    9  O   UNL     1      61.759  11.249   4.277  1.00  0.00    -0.293 OA
HETATM   10  C   UNL     1      61.732  11.828   1.987  1.00  0.00     0.097 C 
ENDBRANCH   1   8
TORSDOF 1
ENDMDL
MODEL 4
REMARK VINA RESULT:      -4.2      1.931      2.532
REMARK  1 active torsions:
REMARK  status: ('A' for Active; 'I' for Inactive)
REMARK    1  A    between atoms: C_1  and  C_6 
ROOT
HETATM    1  C   UNL     1      61.953   9.239   3.643  1.00  0.00     0.040 A 
HETATM    2  C   UNL     1      62.948   8.457   4.198  1.00  0.00     0.090 A 
HETATM    3  S   UNL     1      62.575   6.794   4.246  1.00  0.00    -0.065 SA
HETATM    4  C   UNL     1      61.075   7.070   3.526  1.00  0.00     0.077 A 
HETATM    5  C   UNL     1      60.846   8.392   3.250  1.00  0.00     0.048 A 
HETATM    6 CL   UNL     1      64.486   8.900   4.838  1.00  0.00    -0.075 Cl
HETATM    7 CL   UNL     1      60.019   5.755   3.214  1.00  0.00    -0.076 Cl
ENDROOT
BRANCH   1   8
HETATM    8  C   UNL     1      61.933  10.695   3.442  1.00  0.00     0.158 C 
HETATM    9  O   UNL     1      61.975  11.445   4.420  1.00  0.00    -0.293 OA
HETATM   10  C   UNL     1      61.861  11.300   2.066  1.00  0.00     0.097 C 
ENDBRANCH   1   8
TORSDOF 1
ENDMDL
MODEL 5
REMARK VINA RESULT:      -4.1      2.645      3.038
REMARK  1 active torsions:
REMARK  status: ('A' for Active; 'I' for Inactive)
REMARK    1  A    between atoms: C_1  and  C_6 
ROOT
HETATM    1  C   UNL     1      61.899   9.027   2.423  1.00  0.00     0.040 A 
HETATM    2  C   UNL     1      61.997  10.314   2.917  1.00  0.00     0.090 A 
HETATM    3  S   UNL     1      62.414  10.392   4.568  1.00  0.00    -0.065 SA
HETATM    4  C   UNL     1      62.477   8.710   4.671  1.00  0.00     0.077 A 
HETATM    5  C   UNL     1      62.190   8.087   3.487  1.00  0.00     0.048 A 
HETATM    6 CL   UNL     1      61.766  11.829   2.128  1.00  0.00    -0.075 Cl
HETATM    7 CL   UNL     1      62.875   7.958   6.161  1.00  0.00    -0.076 Cl
ENDROOT
BRANCH   1   8
HETATM    8  C   UNL     1      61.564   8.587   1.061  1.00  0.00     0.158 C 
HETATM    9  O   UNL     1      62.449   8.538   0.203  1.00  0.00    -0.293 OA
HETATM   10  C   UNL     1      60.162   8.192   0.683  1.00  0.00     0.097 C 
ENDBRANCH   1   8
TORSDOF 1
ENDMDL
MODEL 6
REMARK VINA RESULT:      -4.1      2.498      4.003
REMARK  1 active torsions:
REMARK  status: ('A' for Active; 'I' for Inactive)
REMARK    1  A    between atoms: C_1  and  C_6 
ROOT
HETATM    1  C   UNL     1      62.645   8.324   4.612  1.00  0.00     0.040 A 
HETATM    2  C   UNL     1      61.964   7.639   3.623  1.00  0.00     0.090 A 
HETATM    3  S   UNL     1      61.368   8.637   2.376  1.00  0.00    -0.065 SA
HETATM    4  C   UNL     1      62.001  10.011   3.119  1.00  0.00     0.077 A 
HETATM    5  C   UNL     1      62.654   9.737   4.291  1.00  0.00     0.048 A 
HETATM    6 CL   UNL     1      61.634   5.956   3.462  1.00  0.00    -0.075 Cl
HETATM    7 CL   UNL     1      61.792  11.551   2.392  1.00  0.00    -0.076 Cl
ENDROOT
BRANCH   1   8
HETATM    8  C   UNL     1      63.287   7.794   5.823  1.00  0.00     0.158 C 
HETATM    9  O   UNL     1      62.658   7.769   6.884  1.00  0.00    -0.293 OA
HETATM   10  C   UNL     1      64.700   7.277   5.804  1.00  0.00     0.097 C 
ENDBRANCH   1   8
TORSDOF 1
ENDMDL
MODEL 7
REMARK VINA RESULT:      -4.1      2.586      3.011
REMARK  1 active torsions:
REMARK  status: ('A' for Active; 'I' for Inactive)
REMARK    1  A    between atoms: C_1  and  C_6 
ROOT
HETATM    1  C   UNL     1      62.534   9.373   3.644  1.00  0.00     0.040 A 
HETATM    2  C   UNL     1      61.989  10.002   2.541  1.00  0.00     0.090 A 
HETATM    3  S   UNL     1      61.405   8.930   1.351  1.00  0.00    -0.065 SA
HETATM    4  C   UNL     1      61.862   7.595   2.274  1.00  0.00     0.077 A 
HETATM    5  C   UNL     1      62.448   7.937   3.463  1.00  0.00     0.048 A 
HETATM    6 CL   UNL     1      61.811  11.680   2.192  1.00  0.00    -0.075 Cl
HETATM    7 CL   UNL     1      61.573   6.009   1.688  1.00  0.00    -0.076 Cl
ENDROOT
BRANCH   1   8
HETATM    8  C   UNL     1      63.124   9.974   4.848  1.00  0.00     0.158 C 
HETATM    9  O   UNL     1      64.051   9.399   5.423  1.00  0.00    -0.293 OA
HETATM   10  C   UNL     1      62.626  11.282   5.401  1.00  0.00     0.097 C 
ENDBRANCH   1   8
TORSDOF 1
ENDMDL
MODEL 8
REMARK VINA RESULT:      -4.0      1.869      3.575
REMARK  1 active torsions:
REMARK  status: ('A' for Active; 'I' for Inactive)
REMARK    1  A    between atoms: C_1  and  C_6 
ROOT
HETATM    1  C   UNL     1      62.660   8.997   4.297  1.00  0.00     0.040 A 
HETATM    2  C   UNL     1      62.166   7.733   4.557  1.00  0.00     0.090 A 
HETATM    3  S   UNL     1      61.325   7.037   3.248  1.00  0.00    -0.065 SA
HETATM    4  C   UNL     1      61.596   8.402   2.297  1.00  0.00     0.077 A 
HETATM    5  C   UNL     1      62.308   9.376   2.943  1.00  0.00     0.048 A 
HETATM    6 CL   UNL     1      62.272   6.768   5.981  1.00  0.00    -0.075 Cl
HETATM    7 CL   UNL     1      60.997   8.459   0.690  1.00  0.00    -0.076 Cl
ENDROOT
BRANCH   1   8
HETATM    8  C   UNL     1      63.426   9.885   5.183  1.00  0.00     0.158 C 
HETATM    9  O   UNL     1      64.547   9.542   5.567  1.00  0.00    -0.293 OA
HETATM   10  C   UNL     1      62.877  11.211   5.636  1.00  0.00     0.097 C 
ENDBRANCH   1   8
TORSDOF 1
ENDMDL
MODEL 9
REMARK VINA RESULT:      -4.0      2.419      2.643
REMARK  1 active torsions:
REMARK  status: ('A' for Active; 'I' for Inactive)
REMARK    1  A    between atoms: C_1  and  C_6 
ROOT
HETATM    1  C   UNL     1      62.596   9.114   3.033  1.00  0.00     0.040 A 
HETATM    2  C   UNL     1      62.984   9.501   4.302  1.00  0.00     0.090 A 
HETATM    3  S   UNL     1      63.913   8.335   5.127  1.00  0.00    -0.065 SA
HETATM    4  C   UNL     1      63.827   7.280   3.815  1.00  0.00     0.077 A 
HETATM    5  C   UNL     1      63.110   7.786   2.764  1.00  0.00     0.048 A 
HETATM    6 CL   UNL     1      62.675  10.963   5.162  1.00  0.00    -0.075 Cl
HETATM    7 CL   UNL     1      64.598   5.750   3.893  1.00  0.00    -0.076 Cl
ENDROOT
BRANCH   1   8
HETATM    8  C   UNL     1      61.798   9.858   2.049  1.00  0.00     0.158 C 
HETATM    9  O   UNL     1      61.080   9.241   1.257  1.00  0.00    -0.293 OA
HETATM   10  C   UNL     1      61.831  11.361   1.980  1.00  0.00     0.097 C 
ENDBRANCH   1   8
TORSDOF 1
ENDMDL
