MODEL 1
REMARK VINA RESULT:      -5.1      0.000      0.000
REMARK  2 active torsions:
REMARK  status: ('A' for Active; 'I' for Inactive)
REMARK    1  A    between atoms: C_3  and  C_8 
REMARK    2  A    between atoms: C_6  and  N_9 
ROOT
HETATM    1  N   UNL     1      65.296   8.635   5.827  1.00  0.00    -0.321 N 
ATOM      2  HN  UNL     1      65.721   9.549   5.665  1.00  0.00     0.169 HD
HETATM    3  C   UNL     1      64.038   8.231   5.361  1.00  0.00     0.123 A 
HETATM    4  N   UNL     1      63.607   7.005   5.687  1.00  0.00    -0.309 N 
ATOM      5  HN  UNL     1      62.709   6.591   5.435  1.00  0.00     0.176 HD
HETATM    6  C   UNL     1      65.842   7.655   6.502  1.00  0.00     0.160 A 
HETATM    7  S   UNL     1      64.811   6.281   6.579  1.00  0.00     0.024 SA
ENDROOT
BRANCH   3   8
HETATM    8  C   UNL     1      63.240   9.141   4.531  1.00  0.00     0.009 A 
HETATM    9  C   UNL     1      62.863  10.402   5.018  1.00  0.00     0.015 A 
HETATM   10  C   UNL     1      62.127  11.285   4.224  1.00  0.00     0.001 A 
HETATM   11  C   UNL     1      61.756  10.917   2.932  1.00  0.00     0.000 A 
HETATM   12  C   UNL     1      62.115   9.666   2.436  1.00  0.00     0.001 A 
HETATM   13  C   UNL     1      62.852   8.782   3.230  1.00  0.00     0.015 A 
ENDBRANCH   3   8
BRANCH   6  14
HETATM   14  N   UNL     1      67.054   7.717   7.077  1.00  0.00    -0.379 N 
HETATM   15  H   UNL     1      67.264   8.444   7.706  1.00  0.00     0.158 HD
HETATM   16  H   UNL     1      67.733   7.035   6.868  1.00  0.00     0.158 HD
ENDBRANCH   6  14
TORSDOF 2
ENDMDL
MODEL 2
REMARK VINA RESULT:      -5.1      0.066      1.394
REMARK  2 active torsions:
REMARK  status: ('A' for Active; 'I' for Inactive)
REMARK    1  A    between atoms: C_3  and  C_8 
REMARK    2  A    between atoms: C_6  and  N_9 
ROOT
HETATM    1  N   UNL     1      65.268   8.604   5.816  1.00  0.00    -0.321 N 
ATOM      2  HN  UNL     1      65.726   9.499   5.645  1.00  0.00     0.169 HD
HETATM    3  C   UNL     1      63.996   8.242   5.354  1.00  0.00     0.123 A 
HETATM    4  N   UNL     1      63.520   7.036   5.693  1.00  0.00    -0.309 N 
ATOM      5  HN  UNL     1      62.607   6.654   5.445  1.00  0.00     0.176 HD
HETATM    6  C   UNL     1      65.776   7.612   6.503  1.00  0.00     0.160 A 
HETATM    7  S   UNL     1      64.695   6.279   6.594  1.00  0.00     0.024 SA
ENDROOT
BRANCH   3   8
HETATM    8  C   UNL     1      63.233   9.172   4.512  1.00  0.00     0.009 A 
HETATM    9  C   UNL     1      62.853   8.805   3.213  1.00  0.00     0.015 A 
HETATM   10  C   UNL     1      62.101   9.672   2.415  1.00  0.00     0.001 A 
HETATM   11  C   UNL     1      61.722  10.920   2.908  1.00  0.00     0.000 A 
HETATM   12  C   UNL     1      62.098  11.303   4.193  1.00  0.00     0.001 A 
HETATM   13  C   UNL     1      62.850  10.435   4.991  1.00  0.00     0.015 A 
ENDBRANCH   3   8
BRANCH   6  14
HETATM   14  N   UNL     1      66.989   7.636   7.079  1.00  0.00    -0.379 N 
HETATM   15  H   UNL     1      67.415   8.496   7.297  1.00  0.00     0.158 HD
HETATM   16  H   UNL     1      67.453   6.792   7.283  1.00  0.00     0.158 HD
ENDBRANCH   6  14
TORSDOF 2
ENDMDL
MODEL 3
REMARK VINA RESULT:      -4.7      1.063      2.234
REMARK  2 active torsions:
REMARK  status: ('A' for Active; 'I' for Inactive)
REMARK    1  A    between atoms: C_3  and  C_8 
REMARK    2  A    between atoms: C_6  and  N_9 
ROOT
HETATM    1  N   UNL     1      63.510   6.695   5.424  1.00  0.00    -0.321 N 
ATOM      2  HN  UNL     1      62.685   6.365   4.923  1.00  0.00     0.169 HD
HETATM    3  C   UNL     1      64.000   8.007   5.405  1.00  0.00     0.123 A 
HETATM    4  N   UNL     1      65.118   8.275   6.093  1.00  0.00    -0.309 N 
ATOM      5  HN  UNL     1      65.594   9.176   6.149  1.00  0.00     0.176 HD
HETATM    6  C   UNL     1      64.279   5.959   6.187  1.00  0.00     0.160 A 
HETATM    7  S   UNL     1      65.586   6.864   6.839  1.00  0.00     0.024 SA
ENDROOT
BRANCH   3   8
HETATM    8  C   UNL     1      63.281   9.044   4.654  1.00  0.00     0.009 A 
HETATM    9  C   UNL     1      62.838   8.796   3.346  1.00  0.00     0.015 A 
HETATM   10  C   UNL     1      62.129   9.768   2.635  1.00  0.00     0.001 A 
HETATM   11  C   UNL     1      61.856  11.002   3.223  1.00  0.00     0.000 A 
HETATM   12  C   UNL     1      62.296  11.267   4.517  1.00  0.00     0.001 A 
HETATM   13  C   UNL     1      63.005  10.295   5.229  1.00  0.00     0.015 A 
ENDBRANCH   3   8
BRANCH   6  14
HETATM   14  N   UNL     1      64.080   4.652   6.422  1.00  0.00    -0.379 N 
HETATM   15  H   UNL     1      64.758   4.130   6.909  1.00  0.00     0.158 HD
HETATM   16  H   UNL     1      63.256   4.215   6.107  1.00  0.00     0.158 HD
ENDBRANCH   6  14
TORSDOF 2
ENDMDL
MODEL 4
REMARK VINA RESULT:      -4.5      2.416      5.103
REMARK  2 active torsions:
REMARK  status: ('A' for Active; 'I' for Inactive)
REMARK    1  A    between atoms: C_3  and  C_8 
REMARK    2  A    between atoms: C_6  and  N_9 
ROOT
HETATM    1  N   UNL     1      64.153   9.789   5.615  1.00  0.00    -0.321 N 
ATOM      2  HN  UNL     1      64.676  10.208   6.383  1.00  0.00     0.169 HD
HETATM    3  C   UNL     1      64.425   8.545   5.032  1.00  0.00     0.123 A 
HETATM    4  N   UNL     1      63.661   8.147   4.005  1.00  0.00    -0.309 N 
ATOM      5  HN  UNL     1      63.759   7.280   3.476  1.00  0.00     0.176 HD
HETATM    6  C   UNL     1      63.120  10.329   5.019  1.00  0.00     0.160 A 
HETATM    7  S   UNL     1      62.521   9.332   3.753  1.00  0.00     0.024 SA
ENDROOT
BRANCH   3   8
HETATM    8  C   UNL     1      65.514   7.713   5.558  1.00  0.00     0.009 A 
HETATM    9  C   UNL     1      66.783   7.742   4.959  1.00  0.00     0.015 A 
HETATM   10  C   UNL     1      67.833   6.975   5.472  1.00  0.00     0.001 A 
HETATM   11  C   UNL     1      67.626   6.168   6.589  1.00  0.00     0.000 A 
HETATM   12  C   UNL     1      66.371   6.122   7.190  1.00  0.00     0.001 A 
HETATM   13  C   UNL     1      65.320   6.889   6.678  1.00  0.00     0.015 A 
ENDBRANCH   3   8
BRANCH   6  14
HETATM   14  N   UNL     1      62.598  11.522   5.345  1.00  0.00    -0.379 N 
HETATM   15  H   UNL     1      61.816  11.868   4.857  1.00  0.00     0.158 HD
HETATM   16  H   UNL     1      62.997  12.051   6.073  1.00  0.00     0.158 HD
ENDBRANCH   6  14
TORSDOF 2
ENDMDL
MODEL 5
REMARK VINA RESULT:      -4.5      2.702      5.141
REMARK  2 active torsions:
REMARK  status: ('A' for Active; 'I' for Inactive)
REMARK    1  A    between atoms: C_3  and  C_8 
REMARK    2  A    between atoms: C_6  and  N_9 
ROOT
HETATM    1  N   UNL     1      63.223   8.756   3.839  1.00  0.00    -0.321 N 
ATOM      2  HN  UNL     1      63.155   8.041   3.115  1.00  0.00     0.169 HD
HETATM    3  C   UNL     1      64.217   8.820   4.824  1.00  0.00     0.123 A 
HETATM    4  N   UNL     1      64.148   9.808   5.728  1.00  0.00    -0.309 N 
ATOM      5  HN  UNL     1      64.788   9.962   6.507  1.00  0.00     0.176 HD
HETATM    6  C   UNL     1      62.395   9.758   3.994  1.00  0.00     0.160 A 
HETATM    7  S   UNL     1      62.823  10.737   5.341  1.00  0.00     0.024 SA
ENDROOT
BRANCH   3   8
HETATM    8  C   UNL     1      65.299   7.829   4.837  1.00  0.00     0.009 A 
HETATM    9  C   UNL     1      65.300   6.766   3.921  1.00  0.00     0.015 A 
HETATM   10  C   UNL     1      66.342   5.835   3.907  1.00  0.00     0.001 A 
HETATM   11  C   UNL     1      67.395   5.953   4.812  1.00  0.00     0.000 A 
HETATM   12  C   UNL     1      67.405   6.998   5.733  1.00  0.00     0.001 A 
HETATM   13  C   UNL     1      66.364   7.930   5.747  1.00  0.00     0.015 A 
ENDBRANCH   3   8
BRANCH   6  14
HETATM   14  N   UNL     1      61.332   9.988   3.207  1.00  0.00    -0.379 N 
HETATM   15  H   UNL     1      60.684   9.269   3.031  1.00  0.00     0.158 HD
HETATM   16  H   UNL     1      61.200  10.878   2.806  1.00  0.00     0.158 HD
ENDBRANCH   6  14
TORSDOF 2
ENDMDL
MODEL 6
REMARK VINA RESULT:      -4.1      1.774      2.396
REMARK  2 active torsions:
REMARK  status: ('A' for Active; 'I' for Inactive)
REMARK    1  A    between atoms: C_3  and  C_8 
REMARK    2  A    between atoms: C_6  and  N_9 
ROOT
HETATM    1  N   UNL     1      65.374   7.467   6.833  1.00  0.00    -0.321 N 
ATOM      2  HN  UNL     1      64.646   7.460   7.547  1.00  0.00     0.169 HD
HETATM    3  C   UNL     1      65.156   7.563   5.452  1.00  0.00     0.123 A 
HETATM    4  N   UNL     1      66.221   7.526   4.639  1.00  0.00    -0.309 N 
ATOM      5  HN  UNL     1      66.208   7.565   3.620  1.00  0.00     0.176 HD
HETATM    6  C   UNL     1      66.660   7.387   7.062  1.00  0.00     0.160 A 
HETATM    7  S   UNL     1      67.571   7.404   5.604  1.00  0.00     0.024 SA
ENDROOT
BRANCH   3   8
HETATM    8  C   UNL     1      63.790   7.713   4.937  1.00  0.00     0.009 A 
HETATM    9  C   UNL     1      63.473   8.759   4.057  1.00  0.00     0.015 A 
HETATM   10  C   UNL     1      62.182   8.891   3.539  1.00  0.00     0.001 A 
HETATM   11  C   UNL     1      61.190   7.980   3.897  1.00  0.00     0.000 A 
HETATM   12  C   UNL     1      61.485   6.941   4.776  1.00  0.00     0.001 A 
HETATM   13  C   UNL     1      62.777   6.808   5.294  1.00  0.00     0.015 A 
ENDBRANCH   3   8
BRANCH   6  14
HETATM   14  N   UNL     1      67.205   7.290   8.286  1.00  0.00    -0.379 N 
HETATM   15  H   UNL     1      68.031   6.771   8.418  1.00  0.00     0.158 HD
HETATM   16  H   UNL     1      66.778   7.738   9.052  1.00  0.00     0.158 HD
ENDBRANCH   6  14
TORSDOF 2
ENDMDL
MODEL 7
REMARK VINA RESULT:      -4.0      2.334      5.764
REMARK  2 active torsions:
REMARK  status: ('A' for Active; 'I' for Inactive)
REMARK    1  A    between atoms: C_3  and  C_8 
REMARK    2  A    between atoms: C_6  and  N_9 
ROOT
HETATM    1  N   UNL     1      64.527   8.282   5.849  1.00  0.00    -0.321 N 
ATOM      2  HN  UNL     1      65.287   8.960   5.901  1.00  0.00     0.169 HD
HETATM    3  C   UNL     1      64.568   6.977   6.357  1.00  0.00     0.123 A 
HETATM    4  N   UNL     1      63.493   6.196   6.180  1.00  0.00    -0.309 N 
ATOM      5  HN  UNL     1      63.394   5.225   6.477  1.00  0.00     0.176 HD
HETATM    6  C   UNL     1      63.359   8.494   5.297  1.00  0.00     0.160 A 
HETATM    7  S   UNL     1      62.351   7.105   5.382  1.00  0.00     0.024 SA
ENDROOT
BRANCH   3   8
HETATM    8  C   UNL     1      65.761   6.508   7.072  1.00  0.00     0.009 A 
HETATM    9  C   UNL     1      66.874   6.035   6.362  1.00  0.00     0.015 A 
HETATM   10  C   UNL     1      68.025   5.613   7.034  1.00  0.00     0.001 A 
HETATM   11  C   UNL     1      68.075   5.658   8.426  1.00  0.00     0.000 A 
HETATM   12  C   UNL     1      66.975   6.117   9.147  1.00  0.00     0.001 A 
HETATM   13  C   UNL     1      65.824   6.539   8.475  1.00  0.00     0.015 A 
ENDBRANCH   3   8
BRANCH   6  14
HETATM   14  N   UNL     1      62.995   9.651   4.720  1.00  0.00    -0.379 N 
HETATM   15  H   UNL     1      63.184  10.506   5.169  1.00  0.00     0.158 HD
HETATM   16  H   UNL     1      62.540   9.644   3.847  1.00  0.00     0.158 HD
ENDBRANCH   6  14
TORSDOF 2
ENDMDL
MODEL 8
REMARK VINA RESULT:      -3.8      3.146      4.229
REMARK  2 active torsions:
REMARK  status: ('A' for Active; 'I' for Inactive)
REMARK    1  A    between atoms: C_3  and  C_8 
REMARK    2  A    between atoms: C_6  and  N_9 
ROOT
HETATM    1  N   UNL     1      59.700   6.831   4.084  1.00  0.00    -0.321 N 
ATOM      2  HN  UNL     1      59.002   7.094   3.388  1.00  0.00     0.169 HD
HETATM    3  C   UNL     1      60.967   7.413   4.222  1.00  0.00     0.123 A 
HETATM    4  N   UNL     1      61.785   6.931   5.168  1.00  0.00    -0.309 N 
ATOM      5  HN  UNL     1      62.736   7.244   5.364  1.00  0.00     0.176 HD
HETATM    6  C   UNL     1      59.555   5.895   4.988  1.00  0.00     0.160 A 
HETATM    7  S   UNL     1      60.959   5.726   5.964  1.00  0.00     0.024 SA
ENDROOT
BRANCH   3   8
HETATM    8  C   UNL     1      61.358   8.527   3.350  1.00  0.00     0.009 A 
HETATM    9  C   UNL     1      61.591   9.802   3.887  1.00  0.00     0.015 A 
HETATM   10  C   UNL     1      61.991  10.861   3.068  1.00  0.00     0.001 A 
HETATM   11  C   UNL     1      62.162  10.658   1.699  1.00  0.00     0.000 A 
HETATM   12  C   UNL     1      61.928   9.401   1.149  1.00  0.00     0.001 A 
HETATM   13  C   UNL     1      61.527   8.341   1.968  1.00  0.00     0.015 A 
ENDBRANCH   3   8
BRANCH   6  14
HETATM   14  N   UNL     1      58.448   5.148   5.130  1.00  0.00    -0.379 N 
HETATM   15  H   UNL     1      58.100   4.949   6.029  1.00  0.00     0.158 HD
HETATM   16  H   UNL     1      57.984   4.800   4.334  1.00  0.00     0.158 HD
ENDBRANCH   6  14
TORSDOF 2
ENDMDL
MODEL 9
REMARK VINA RESULT:      -3.7      3.065      6.301
REMARK  2 active torsions:
REMARK  status: ('A' for Active; 'I' for Inactive)
REMARK    1  A    between atoms: C_3  and  C_8 
REMARK    2  A    between atoms: C_6  and  N_9 
ROOT
HETATM    1  N   UNL     1      64.997   6.051   5.325  1.00  0.00    -0.321 N 
ATOM      2  HN  UNL     1      64.982   5.038   5.212  1.00  0.00     0.169 HD
HETATM    3  C   UNL     1      65.695   6.747   6.320  1.00  0.00     0.123 A 
HETATM    4  N   UNL     1      65.586   8.083   6.353  1.00  0.00    -0.309 N 
ATOM      5  HN  UNL     1      66.020   8.710   7.031  1.00  0.00     0.176 HD
HETATM    6  C   UNL     1      64.365   6.907   4.562  1.00  0.00     0.160 A 
HETATM    7  S   UNL     1      64.610   8.528   5.081  1.00  0.00     0.024 SA
ENDROOT
BRANCH   3   8
HETATM    8  C   UNL     1      66.527   6.011   7.280  1.00  0.00     0.009 A 
HETATM    9  C   UNL     1      66.999   6.641   8.441  1.00  0.00     0.015 A 
HETATM   10  C   UNL     1      67.767   5.939   9.374  1.00  0.00     0.001 A 
HETATM   11  C   UNL     1      68.075   4.598   9.156  1.00  0.00     0.000 A 
HETATM   12  C   UNL     1      67.622   3.959   8.004  1.00  0.00     0.001 A 
HETATM   13  C   UNL     1      66.853   4.661   7.070  1.00  0.00     0.015 A 
ENDBRANCH   3   8
BRANCH   6  14
HETATM   14  N   UNL     1      63.606   6.564   3.509  1.00  0.00    -0.379 N 
HETATM   15  H   UNL     1      63.717   5.681   3.088  1.00  0.00     0.158 HD
HETATM   16  H   UNL     1      62.938   7.195   3.157  1.00  0.00     0.158 HD
ENDBRANCH   6  14
TORSDOF 2
ENDMDL
