MODEL 1
REMARK VINA RESULT:      -5.5      0.000      0.000
REMARK  3 active torsions:
REMARK  status: ('A' for Active; 'I' for Inactive)
REMARK    1  A    between atoms: C_2  and  C_7 
REMARK    2  A    between atoms: C_6  and  C_9 
REMARK    3  A    between atoms: C_7  and  C_9 
ROOT
HETATM    1  N   UNL     1      62.829   7.637   2.067  1.00  0.00    -0.365 N 
HETATM    2  C   UNL     1      63.107   7.880   4.268  1.00  0.00    -0.030 A 
HETATM    3  C   UNL     1      63.233   7.001   3.210  1.00  0.00     0.096 A 
HETATM    4  C   UNL     1      62.651   9.123   3.718  1.00  0.00    -0.002 A 
HETATM    5  C   UNL     1      62.466   8.933   2.349  1.00  0.00     0.042 A 
HETATM    6  C   UNL     1      62.373  10.397   4.259  1.00  0.00     0.014 A 
HETATM    7  C   UNL     1      61.999   9.942   1.497  1.00  0.00     0.030 A 
HETATM    8  C   UNL     1      61.913  11.420   3.422  1.00  0.00     0.001 A 
HETATM    9  C   UNL     1      61.725  11.192   2.061  1.00  0.00     0.002 A 
HETATM   10  H   UNL     1      62.800   7.226   1.173  1.00  0.00     0.165 HD
ENDROOT
BRANCH   2  11
HETATM   11  C   UNL     1      63.414   7.578   5.703  1.00  0.00     0.051 C 
BRANCH  11  12
HETATM   12  C   UNL     1      64.864   7.147   5.919  1.00  0.00     0.118 C 
BRANCH  12  13
HETATM   13  C   UNL     1      65.809   8.267   5.592  1.00  0.00     0.172 C 
HETATM   14  O   UNL     1      66.820   8.211   4.912  1.00  0.00    -0.648 OA
HETATM   15  O   UNL     1      65.421   9.434   6.143  1.00  0.00    -0.648 OA
ENDBRANCH  12  13
ENDBRANCH  11  12
ENDBRANCH   2  11
TORSDOF 3
ENDMDL
MODEL 2
REMARK VINA RESULT:      -5.3      1.389      2.380
REMARK  3 active torsions:
REMARK  status: ('A' for Active; 'I' for Inactive)
REMARK    1  A    between atoms: C_2  and  C_7 
REMARK    2  A    between atoms: C_6  and  C_9 
REMARK    3  A    between atoms: C_7  and  C_9 
ROOT
HETATM    1  N   UNL     1      62.324  10.601   4.133  1.00  0.00    -0.365 N 
HETATM    2  C   UNL     1      63.316   8.699   4.745  1.00  0.00    -0.030 A 
HETATM    3  C   UNL     1      62.929   9.953   5.176  1.00  0.00     0.096 A 
HETATM    4  C   UNL     1      62.872   8.575   3.387  1.00  0.00    -0.002 A 
HETATM    5  C   UNL     1      62.278   9.784   3.028  1.00  0.00     0.042 A 
HETATM    6  C   UNL     1      62.924   7.545   2.424  1.00  0.00     0.014 A 
HETATM    7  C   UNL     1      61.751  10.025   1.753  1.00  0.00     0.030 A 
HETATM    8  C   UNL     1      62.396   7.764   1.146  1.00  0.00     0.001 A 
HETATM    9  C   UNL     1      61.822   8.989   0.817  1.00  0.00     0.002 A 
HETATM   10  H   UNL     1      61.974  11.521   4.169  1.00  0.00     0.165 HD
ENDROOT
BRANCH   2  11
HETATM   11  C   UNL     1      64.041   7.673   5.562  1.00  0.00     0.051 C 
BRANCH  11  12
HETATM   12  C   UNL     1      65.420   7.336   5.001  1.00  0.00     0.118 C 
BRANCH  12  13
HETATM   13  C   UNL     1      66.478   8.195   5.629  1.00  0.00     0.172 C 
HETATM   14  O   UNL     1      66.399   8.834   6.665  1.00  0.00    -0.648 OA
HETATM   15  O   UNL     1      67.618   8.202   4.910  1.00  0.00    -0.648 OA
ENDBRANCH  12  13
ENDBRANCH  11  12
ENDBRANCH   2  11
TORSDOF 3
ENDMDL
MODEL 3
REMARK VINA RESULT:      -5.0      2.554      5.181
REMARK  3 active torsions:
REMARK  status: ('A' for Active; 'I' for Inactive)
REMARK    1  A    between atoms: C_2  and  C_7 
REMARK    2  A    between atoms: C_6  and  C_9 
REMARK    3  A    between atoms: C_7  and  C_9 
ROOT
HETATM    1  N   UNL     1      63.838   7.182   6.767  1.00  0.00    -0.365 N 
HETATM    2  C   UNL     1      63.742   8.115   4.743  1.00  0.00    -0.030 A 
HETATM    3  C   UNL     1      63.003   7.778   5.860  1.00  0.00     0.096 A 
HETATM    4  C   UNL     1      65.100   7.747   5.020  1.00  0.00    -0.002 A 
HETATM    5  C   UNL     1      65.123   7.148   6.279  1.00  0.00     0.042 A 
HETATM    6  C   UNL     1      66.316   7.863   4.313  1.00  0.00     0.014 A 
HETATM    7  C   UNL     1      66.292   6.642   6.860  1.00  0.00     0.030 A 
HETATM    8  C   UNL     1      67.496   7.370   4.881  1.00  0.00     0.001 A 
HETATM    9  C   UNL     1      67.481   6.764   6.135  1.00  0.00     0.002 A 
HETATM   10  H   UNL     1      63.558   6.828   7.642  1.00  0.00     0.165 HD
ENDROOT
BRANCH   2  11
HETATM   11  C   UNL     1      63.211   8.762   3.500  1.00  0.00     0.051 C 
BRANCH  11  12
HETATM   12  C   UNL     1      61.872   9.462   3.724  1.00  0.00     0.118 C 
BRANCH  12  13
HETATM   13  C   UNL     1      62.000  10.942   3.505  1.00  0.00     0.172 C 
HETATM   14  O   UNL     1      62.004  11.539   2.441  1.00  0.00    -0.648 OA
HETATM   15  O   UNL     1      62.111  11.617   4.666  1.00  0.00    -0.648 OA
ENDBRANCH  12  13
ENDBRANCH  11  12
ENDBRANCH   2  11
TORSDOF 3
ENDMDL
MODEL 4
REMARK VINA RESULT:      -4.8      2.015      2.267
REMARK  3 active torsions:
REMARK  status: ('A' for Active; 'I' for Inactive)
REMARK    1  A    between atoms: C_2  and  C_7 
REMARK    2  A    between atoms: C_6  and  C_9 
REMARK    3  A    between atoms: C_7  and  C_9 
ROOT
HETATM    1  N   UNL     1      63.507   7.403   2.988  1.00  0.00    -0.365 N 
HETATM    2  C   UNL     1      64.535   7.757   4.937  1.00  0.00    -0.030 A 
HETATM    3  C   UNL     1      64.413   6.884   3.873  1.00  0.00     0.096 A 
HETATM    4  C   UNL     1      63.695   8.881   4.645  1.00  0.00    -0.002 A 
HETATM    5  C   UNL     1      63.051   8.621   3.436  1.00  0.00     0.042 A 
HETATM    6  C   UNL     1      63.416  10.100   5.301  1.00  0.00     0.014 A 
HETATM    7  C   UNL     1      62.129   9.503   2.858  1.00  0.00     0.030 A 
HETATM    8  C   UNL     1      62.504  10.997   4.735  1.00  0.00     0.001 A 
HETATM    9  C   UNL     1      61.867  10.699   3.533  1.00  0.00     0.002 A 
HETATM   10  H   UNL     1      63.221   6.967   2.153  1.00  0.00     0.165 HD
ENDROOT
BRANCH   2  11
HETATM   11  C   UNL     1      65.402   7.558   6.142  1.00  0.00     0.051 C 
BRANCH  11  12
HETATM   12  C   UNL     1      65.109   6.249   6.872  1.00  0.00     0.118 C 
BRANCH  12  13
HETATM   13  C   UNL     1      66.057   6.052   8.019  1.00  0.00     0.172 C 
HETATM   14  O   UNL     1      66.130   5.092   8.767  1.00  0.00    -0.648 OA
HETATM   15  O   UNL     1      66.895   7.098   8.168  1.00  0.00    -0.648 OA
ENDBRANCH  12  13
ENDBRANCH  11  12
ENDBRANCH   2  11
TORSDOF 3
ENDMDL
MODEL 5
REMARK VINA RESULT:      -4.7      2.955      5.254
REMARK  3 active torsions:
REMARK  status: ('A' for Active; 'I' for Inactive)
REMARK    1  A    between atoms: C_2  and  C_7 
REMARK    2  A    between atoms: C_6  and  C_9 
REMARK    3  A    between atoms: C_7  and  C_9 
ROOT
HETATM    1  N   UNL     1      64.838   9.136   5.826  1.00  0.00    -0.365 N 
HETATM    2  C   UNL     1      63.606   8.355   4.138  1.00  0.00    -0.030 A 
HETATM    3  C   UNL     1      63.687   9.333   5.111  1.00  0.00     0.096 A 
HETATM    4  C   UNL     1      64.797   7.565   4.247  1.00  0.00    -0.002 A 
HETATM    5  C   UNL     1      65.533   8.063   5.322  1.00  0.00     0.042 A 
HETATM    6  C   UNL     1      65.319   6.465   3.533  1.00  0.00     0.014 A 
HETATM    7  C   UNL     1      66.752   7.507   5.732  1.00  0.00     0.030 A 
HETATM    8  C   UNL     1      66.539   5.902   3.923  1.00  0.00     0.001 A 
HETATM    9  C   UNL     1      67.242   6.415   5.010  1.00  0.00     0.002 A 
HETATM   10  H   UNL     1      65.125   9.684   6.593  1.00  0.00     0.165 HD
ENDROOT
BRANCH   2  11
HETATM   11  C   UNL     1      62.488   8.186   3.155  1.00  0.00     0.051 C 
BRANCH  11  12
HETATM   12  C   UNL     1      61.575   9.407   3.081  1.00  0.00     0.118 C 
BRANCH  12  13
HETATM   13  C   UNL     1      61.967  10.300   1.940  1.00  0.00     0.172 C 
HETATM   14  O   UNL     1      62.033  11.518   1.937  1.00  0.00    -0.648 OA
HETATM   15  O   UNL     1      62.274   9.599   0.831  1.00  0.00    -0.648 OA
ENDBRANCH  12  13
ENDBRANCH  11  12
ENDBRANCH   2  11
TORSDOF 3
ENDMDL
MODEL 6
REMARK VINA RESULT:      -4.6      3.345      4.646
REMARK  3 active torsions:
REMARK  status: ('A' for Active; 'I' for Inactive)
REMARK    1  A    between atoms: C_2  and  C_7 
REMARK    2  A    between atoms: C_6  and  C_9 
REMARK    3  A    between atoms: C_7  and  C_9 
ROOT
HETATM    1  N   UNL     1      63.682   7.488   3.650  1.00  0.00    -0.365 N 
HETATM    2  C   UNL     1      62.454   8.257   1.953  1.00  0.00    -0.030 A 
HETATM    3  C   UNL     1      63.180   7.177   2.415  1.00  0.00     0.096 A 
HETATM    4  C   UNL     1      62.482   9.246   2.991  1.00  0.00    -0.002 A 
HETATM    5  C   UNL     1      63.273   8.746   4.025  1.00  0.00     0.042 A 
HETATM    6  C   UNL     1      61.911  10.527   3.147  1.00  0.00     0.014 A 
HETATM    7  C   UNL     1      63.539   9.466   5.197  1.00  0.00     0.030 A 
HETATM    8  C   UNL     1      62.158  11.258   4.314  1.00  0.00     0.001 A 
HETATM    9  C   UNL     1      62.965  10.735   5.322  1.00  0.00     0.002 A 
HETATM   10  H   UNL     1      64.254   6.897   4.191  1.00  0.00     0.165 HD
ENDROOT
BRANCH   2  11
HETATM   11  C   UNL     1      61.761   8.348   0.628  1.00  0.00     0.051 C 
BRANCH  11  12
HETATM   12  C   UNL     1      60.239   8.346   0.756  1.00  0.00     0.118 C 
BRANCH  12  13
HETATM   13  C   UNL     1      59.763   7.107   1.458  1.00  0.00     0.172 C 
HETATM   14  O   UNL     1      59.874   5.951   1.084  1.00  0.00    -0.648 OA
HETATM   15  O   UNL     1      59.163   7.389   2.632  1.00  0.00    -0.648 OA
ENDBRANCH  12  13
ENDBRANCH  11  12
ENDBRANCH   2  11
TORSDOF 3
ENDMDL
MODEL 7
REMARK VINA RESULT:      -4.5      2.503      4.738
REMARK  3 active torsions:
REMARK  status: ('A' for Active; 'I' for Inactive)
REMARK    1  A    between atoms: C_2  and  C_7 
REMARK    2  A    between atoms: C_6  and  C_9 
REMARK    3  A    between atoms: C_7  and  C_9 
ROOT
HETATM    1  N   UNL     1      64.949   6.147   3.002  1.00  0.00    -0.365 N 
HETATM    2  C   UNL     1      63.705   7.622   4.123  1.00  0.00    -0.030 A 
HETATM    3  C   UNL     1      63.702   6.706   3.088  1.00  0.00     0.096 A 
HETATM    4  C   UNL     1      65.008   7.568   4.717  1.00  0.00    -0.002 A 
HETATM    5  C   UNL     1      65.766   6.657   3.983  1.00  0.00     0.042 A 
HETATM    6  C   UNL     1      65.619   8.215   5.813  1.00  0.00     0.014 A 
HETATM    7  C   UNL     1      67.107   6.374   4.273  1.00  0.00     0.030 A 
HETATM    8  C   UNL     1      66.955   7.939   6.123  1.00  0.00     0.001 A 
HETATM    9  C   UNL     1      67.688   7.033   5.360  1.00  0.00     0.002 A 
HETATM   10  H   UNL     1      65.221   5.478   2.333  1.00  0.00     0.165 HD
ENDROOT
BRANCH   2  11
HETATM   11  C   UNL     1      62.549   8.479   4.540  1.00  0.00     0.051 C 
BRANCH  11  12
HETATM   12  C   UNL     1      62.927   9.951   4.686  1.00  0.00     0.118 C 
BRANCH  12  13
HETATM   13  C   UNL     1      62.145  10.802   3.729  1.00  0.00     0.172 C 
HETATM   14  O   UNL     1      61.892  11.992   3.827  1.00  0.00    -0.648 OA
HETATM   15  O   UNL     1      61.714  10.099   2.663  1.00  0.00    -0.648 OA
ENDBRANCH  12  13
ENDBRANCH  11  12
ENDBRANCH   2  11
TORSDOF 3
ENDMDL
MODEL 8
REMARK VINA RESULT:      -4.5      1.770      2.010
REMARK  3 active torsions:
REMARK  status: ('A' for Active; 'I' for Inactive)
REMARK    1  A    between atoms: C_2  and  C_7 
REMARK    2  A    between atoms: C_6  and  C_9 
REMARK    3  A    between atoms: C_7  and  C_9 
ROOT
HETATM    1  N   UNL     1      61.431   6.790   1.596  1.00  0.00    -0.365 N 
HETATM    2  C   UNL     1      61.434   6.824   3.827  1.00  0.00    -0.030 A 
HETATM    3  C   UNL     1      61.345   6.008   2.716  1.00  0.00     0.096 A 
HETATM    4  C   UNL     1      61.636   8.158   3.342  1.00  0.00    -0.002 A 
HETATM    5  C   UNL     1      61.607   8.107   1.949  1.00  0.00     0.042 A 
HETATM    6  C   UNL     1      61.837   9.411   3.960  1.00  0.00     0.014 A 
HETATM    7  C   UNL     1      61.748   9.243   1.142  1.00  0.00     0.030 A 
HETATM    8  C   UNL     1      61.988  10.556   3.171  1.00  0.00     0.001 A 
HETATM    9  C   UNL     1      61.940  10.472   1.781  1.00  0.00     0.002 A 
HETATM   10  H   UNL     1      61.374   6.457   0.671  1.00  0.00     0.165 HD
ENDROOT
BRANCH   2  11
HETATM   11  C   UNL     1      61.355   6.377   5.255  1.00  0.00     0.051 C 
BRANCH  11  12
HETATM   12  C   UNL     1      62.693   5.871   5.791  1.00  0.00     0.118 C 
BRANCH  12  13
HETATM   13  C   UNL     1      63.500   7.000   6.363  1.00  0.00     0.172 C 
HETATM   14  O   UNL     1      64.705   7.172   6.276  1.00  0.00    -0.648 OA
HETATM   15  O   UNL     1      62.732   7.885   7.029  1.00  0.00    -0.648 OA
ENDBRANCH  12  13
ENDBRANCH  11  12
ENDBRANCH   2  11
TORSDOF 3
ENDMDL
MODEL 9
REMARK VINA RESULT:      -4.4      3.585      6.711
REMARK  3 active torsions:
REMARK  status: ('A' for Active; 'I' for Inactive)
REMARK    1  A    between atoms: C_2  and  C_7 
REMARK    2  A    between atoms: C_6  and  C_9 
REMARK    3  A    between atoms: C_7  and  C_9 
ROOT
HETATM    1  N   UNL     1      67.277   7.788   7.670  1.00  0.00    -0.365 N 
HETATM    2  C   UNL     1      66.070   7.016   5.960  1.00  0.00    -0.030 A 
HETATM    3  C   UNL     1      66.589   8.155   6.545  1.00  0.00     0.096 A 
HETATM    4  C   UNL     1      66.516   5.907   6.752  1.00  0.00    -0.002 A 
HETATM    5  C   UNL     1      67.247   6.422   7.822  1.00  0.00     0.042 A 
HETATM    6  C   UNL     1      66.362   4.507   6.661  1.00  0.00     0.014 A 
HETATM    7  C   UNL     1      67.814   5.614   8.815  1.00  0.00     0.030 A 
HETATM    8  C   UNL     1      66.929   3.683   7.640  1.00  0.00     0.001 A 
HETATM    9  C   UNL     1      67.641   4.231   8.703  1.00  0.00     0.002 A 
HETATM   10  H   UNL     1      67.728   8.413   8.284  1.00  0.00     0.165 HD
ENDROOT
BRANCH   2  11
HETATM   11  C   UNL     1      65.224   6.970   4.724  1.00  0.00     0.051 C 
BRANCH  11  12
HETATM   12  C   UNL     1      63.927   7.764   4.866  1.00  0.00     0.118 C 
BRANCH  12  13
HETATM   13  C   UNL     1      63.084   7.216   5.980  1.00  0.00     0.172 C 
HETATM   14  O   UNL     1      62.675   7.809   6.964  1.00  0.00    -0.648 OA
HETATM   15  O   UNL     1      62.782   5.915   5.794  1.00  0.00    -0.648 OA
ENDBRANCH  12  13
ENDBRANCH  11  12
ENDBRANCH   2  11
TORSDOF 3
ENDMDL
