MODEL 1
REMARK VINA RESULT:      -4.3      0.000      0.000
REMARK  4 active torsions:
REMARK  status: ('A' for Active; 'I' for Inactive)
REMARK    1  A    between atoms: C_3  and  C_4 
REMARK    2  A    between atoms: C_4  and  C_7 
REMARK    3  A    between atoms: O_5  and  C_7 
REMARK    4  A    between atoms: O_5  and  C_9 
ROOT
HETATM    1  N   UNL     1      63.611   9.749   5.630  1.00  0.00    -0.369 N 
ATOM      2  HN  UNL     1      64.158   9.565   6.470  1.00  0.00     0.165 HD
HETATM    3  C   UNL     1      63.520   8.832   4.634  1.00  0.00     0.011 A 
HETATM    4  C   UNL     1      62.948  10.915   5.467  1.00  0.00     0.088 A 
HETATM    5  C   UNL     1      62.752   9.052   3.491  1.00  0.00     0.025 A 
HETATM    6  C   UNL     1      62.182  11.217   4.355  1.00  0.00     0.017 A 
HETATM    7  C   UNL     1      62.079  10.263   3.352  1.00  0.00     0.003 A 
ENDROOT
BRANCH   3   8
HETATM    8  C   UNL     1      64.273   7.543   4.835  1.00  0.00     0.083 C 
BRANCH   8   9
HETATM    9  C   UNL     1      63.866   6.760   6.088  1.00  0.00     0.173 C 
BRANCH   9  10
HETATM   10  O   UNL     1      64.534   7.146   7.290  1.00  0.00    -0.391 OA
BRANCH  10  11
HETATM   11  C   UNL     1      65.935   6.884   7.283  1.00  0.00     0.163 C 
HETATM   12  C   UNL     1      66.352   6.481   8.685  1.00  0.00     0.033 C 
ENDBRANCH  10  11
ENDBRANCH   9  10
ENDBRANCH   8   9
ENDBRANCH   3   8
TORSDOF 4
ENDMDL
MODEL 2
REMARK VINA RESULT:      -4.2      2.375      3.696
REMARK  4 active torsions:
REMARK  status: ('A' for Active; 'I' for Inactive)
REMARK    1  A    between atoms: C_3  and  C_4 
REMARK    2  A    between atoms: C_4  and  C_7 
REMARK    3  A    between atoms: O_5  and  C_7 
REMARK    4  A    between atoms: O_5  and  C_9 
ROOT
HETATM    1  N   UNL     1      60.982   9.127   3.646  1.00  0.00    -0.369 N 
ATOM      2  HN  UNL     1      60.662   9.082   4.613  1.00  0.00     0.165 HD
HETATM    3  C   UNL     1      61.747  10.159   3.206  1.00  0.00     0.011 A 
HETATM    4  C   UNL     1      60.662   8.163   2.756  1.00  0.00     0.088 A 
HETATM    5  C   UNL     1      62.219  10.225   1.896  1.00  0.00     0.025 A 
HETATM    6  C   UNL     1      61.075   8.167   1.435  1.00  0.00     0.017 A 
HETATM    7  C   UNL     1      61.874   9.215   1.001  1.00  0.00     0.003 A 
ENDROOT
BRANCH   3   8
HETATM    8  C   UNL     1      62.085  11.226   4.215  1.00  0.00     0.083 C 
BRANCH   8   9
HETATM    9  C   UNL     1      62.981  10.749   5.364  1.00  0.00     0.173 C 
BRANCH   9  10
HETATM   10  O   UNL     1      63.121   9.333   5.477  1.00  0.00    -0.391 OA
BRANCH  10  11
HETATM   11  C   UNL     1      64.424   8.851   5.157  1.00  0.00     0.163 C 
HETATM   12  C   UNL     1      64.277   7.643   4.250  1.00  0.00     0.033 C 
ENDBRANCH  10  11
ENDBRANCH   9  10
ENDBRANCH   8   9
ENDBRANCH   3   8
TORSDOF 4
ENDMDL
MODEL 3
REMARK VINA RESULT:      -4.2      1.813      2.541
REMARK  4 active torsions:
REMARK  status: ('A' for Active; 'I' for Inactive)
REMARK    1  A    between atoms: C_3  and  C_4 
REMARK    2  A    between atoms: C_4  and  C_7 
REMARK    3  A    between atoms: O_5  and  C_7 
REMARK    4  A    between atoms: O_5  and  C_9 
ROOT
HETATM    1  N   UNL     1      62.822   8.616   2.837  1.00  0.00    -0.369 N 
ATOM      2  HN  UNL     1      63.214   7.675   2.821  1.00  0.00     0.165 HD
HETATM    3  C   UNL     1      62.794   9.346   3.981  1.00  0.00     0.011 A 
HETATM    4  C   UNL     1      62.313   9.183   1.722  1.00  0.00     0.088 A 
HETATM    5  C   UNL     1      62.290  10.646   4.019  1.00  0.00     0.025 A 
HETATM    6  C   UNL     1      61.778  10.458   1.681  1.00  0.00     0.017 A 
HETATM    7  C   UNL     1      61.774  11.204   2.852  1.00  0.00     0.003 A 
ENDROOT
BRANCH   3   8
HETATM    8  C   UNL     1      63.361   8.690   5.213  1.00  0.00     0.083 C 
BRANCH   8   9
HETATM    9  C   UNL     1      64.849   8.335   5.114  1.00  0.00     0.173 C 
BRANCH   9  10
HETATM   10  O   UNL     1      65.684   8.938   6.102  1.00  0.00    -0.391 OA
BRANCH  10  11
HETATM   11  C   UNL     1      66.794   8.134   6.493  1.00  0.00     0.163 C 
HETATM   12  C   UNL     1      67.576   7.761   5.248  1.00  0.00     0.033 C 
ENDBRANCH  10  11
ENDBRANCH   9  10
ENDBRANCH   8   9
ENDBRANCH   3   8
TORSDOF 4
ENDMDL
MODEL 4
REMARK VINA RESULT:      -4.2      1.630      1.980
REMARK  4 active torsions:
REMARK  status: ('A' for Active; 'I' for Inactive)
REMARK    1  A    between atoms: C_3  and  C_4 
REMARK    2  A    between atoms: C_4  and  C_7 
REMARK    3  A    between atoms: O_5  and  C_7 
REMARK    4  A    between atoms: O_5  and  C_9 
ROOT
HETATM    1  N   UNL     1      62.648  10.011   4.400  1.00  0.00    -0.369 N 
ATOM      2  HN  UNL     1      62.896   9.959   5.388  1.00  0.00     0.165 HD
HETATM    3  C   UNL     1      62.860   8.963   3.565  1.00  0.00     0.011 A 
HETATM    4  C   UNL     1      62.097  11.127   3.875  1.00  0.00     0.088 A 
HETATM    5  C   UNL     1      62.501   9.004   2.218  1.00  0.00     0.025 A 
HETATM    6  C   UNL     1      61.731  11.253   2.546  1.00  0.00     0.017 A 
HETATM    7  C   UNL     1      61.932  10.167   1.706  1.00  0.00     0.003 A 
ENDROOT
BRANCH   3   8
HETATM    8  C   UNL     1      63.483   7.733   4.173  1.00  0.00     0.083 C 
BRANCH   8   9
HETATM    9  C   UNL     1      64.083   7.950   5.567  1.00  0.00     0.173 C 
BRANCH   9  10
HETATM   10  O   UNL     1      65.237   8.790   5.607  1.00  0.00    -0.391 OA
BRANCH  10  11
HETATM   11  C   UNL     1      66.384   8.172   6.183  1.00  0.00     0.163 C 
HETATM   12  C   UNL     1      67.349   7.820   5.066  1.00  0.00     0.033 C 
ENDBRANCH  10  11
ENDBRANCH   9  10
ENDBRANCH   8   9
ENDBRANCH   3   8
TORSDOF 4
ENDMDL
MODEL 5
REMARK VINA RESULT:      -4.1      2.441      5.117
REMARK  4 active torsions:
REMARK  status: ('A' for Active; 'I' for Inactive)
REMARK    1  A    between atoms: C_3  and  C_4 
REMARK    2  A    between atoms: C_4  and  C_7 
REMARK    3  A    between atoms: O_5  and  C_7 
REMARK    4  A    between atoms: O_5  and  C_9 
ROOT
HETATM    1  N   UNL     1      65.161   8.707   5.950  1.00  0.00    -0.369 N 
ATOM      2  HN  UNL     1      65.257   9.408   6.684  1.00  0.00     0.165 HD
HETATM    3  C   UNL     1      64.137   8.756   5.061  1.00  0.00     0.011 A 
HETATM    4  C   UNL     1      66.047   7.695   5.827  1.00  0.00     0.088 A 
HETATM    5  C   UNL     1      64.002   7.823   4.033  1.00  0.00     0.025 A 
HETATM    6  C   UNL     1      65.973   6.721   4.847  1.00  0.00     0.017 A 
HETATM    7  C   UNL     1      64.934   6.793   3.930  1.00  0.00     0.003 A 
ENDROOT
BRANCH   3   8
HETATM    8  C   UNL     1      63.156   9.889   5.224  1.00  0.00     0.083 C 
BRANCH   8   9
HETATM    9  C   UNL     1      62.051   9.926   4.163  1.00  0.00     0.173 C 
BRANCH   9  10
HETATM   10  O   UNL     1      61.664  11.232   3.734  1.00  0.00    -0.391 OA
BRANCH  10  11
HETATM   11  C   UNL     1      61.877  11.474   2.346  1.00  0.00     0.163 C 
HETATM   12  C   UNL     1      62.031  10.137   1.646  1.00  0.00     0.033 C 
ENDBRANCH  10  11
ENDBRANCH   9  10
ENDBRANCH   8   9
ENDBRANCH   3   8
TORSDOF 4
ENDMDL
MODEL 6
REMARK VINA RESULT:      -4.1      1.503      2.503
REMARK  4 active torsions:
REMARK  status: ('A' for Active; 'I' for Inactive)
REMARK    1  A    between atoms: C_3  and  C_4 
REMARK    2  A    between atoms: C_4  and  C_7 
REMARK    3  A    between atoms: O_5  and  C_7 
REMARK    4  A    between atoms: O_5  and  C_9 
ROOT
HETATM    1  N   UNL     1      63.517   9.982   5.696  1.00  0.00    -0.369 N 
ATOM      2  HN  UNL     1      64.034   9.889   6.570  1.00  0.00     0.165 HD
HETATM    3  C   UNL     1      63.500   8.981   4.779  1.00  0.00     0.011 A 
HETATM    4  C   UNL     1      62.824  11.105   5.408  1.00  0.00     0.088 A 
HETATM    5  C   UNL     1      62.776   9.076   3.591  1.00  0.00     0.025 A 
HETATM    6  C   UNL     1      62.097  11.284   4.244  1.00  0.00     0.017 A 
HETATM    7  C   UNL     1      62.068  10.246   3.323  1.00  0.00     0.003 A 
ENDROOT
BRANCH   3   8
HETATM    8  C   UNL     1      64.287   7.742   5.119  1.00  0.00     0.083 C 
BRANCH   8   9
HETATM    9  C   UNL     1      63.680   6.896   6.245  1.00  0.00     0.173 C 
BRANCH   9  10
HETATM   10  O   UNL     1      62.386   7.311   6.686  1.00  0.00    -0.391 OA
BRANCH  10  11
HETATM   11  C   UNL     1      61.381   6.308   6.560  1.00  0.00     0.163 C 
HETATM   12  C   UNL     1      60.964   6.230   5.103  1.00  0.00     0.033 C 
ENDBRANCH  10  11
ENDBRANCH   9  10
ENDBRANCH   8   9
ENDBRANCH   3   8
TORSDOF 4
ENDMDL
MODEL 7
REMARK VINA RESULT:      -3.6      3.993      5.882
REMARK  4 active torsions:
REMARK  status: ('A' for Active; 'I' for Inactive)
REMARK    1  A    between atoms: C_3  and  C_4 
REMARK    2  A    between atoms: C_4  and  C_7 
REMARK    3  A    between atoms: O_5  and  C_7 
REMARK    4  A    between atoms: O_5  and  C_9 
ROOT
HETATM    1  N   UNL     1      62.566   8.753   2.943  1.00  0.00    -0.369 N 
ATOM      2  HN  UNL     1      62.812   7.766   2.862  1.00  0.00     0.165 HD
HETATM    3  C   UNL     1      62.191   9.475   1.857  1.00  0.00     0.011 A 
HETATM    4  C   UNL     1      62.602   9.389   4.134  1.00  0.00     0.088 A 
HETATM    5  C   UNL     1      61.823  10.817   1.950  1.00  0.00     0.025 A 
HETATM    6  C   UNL     1      62.271  10.722   4.306  1.00  0.00     0.017 A 
HETATM    7  C   UNL     1      61.868  11.445   3.192  1.00  0.00     0.003 A 
ENDROOT
BRANCH   3   8
HETATM    8  C   UNL     1      62.166   8.746   0.538  1.00  0.00     0.083 C 
BRANCH   8   9
HETATM    9  C   UNL     1      61.141   7.608   0.464  1.00  0.00     0.173 C 
BRANCH   9  10
HETATM   10  O   UNL     1      59.778   8.024   0.370  1.00  0.00    -0.391 OA
BRANCH  10  11
HETATM   11  C   UNL     1      58.992   7.694   1.512  1.00  0.00     0.163 C 
HETATM   12  C   UNL     1      57.801   6.874   1.051  1.00  0.00     0.033 C 
ENDBRANCH  10  11
ENDBRANCH   9  10
ENDBRANCH   8   9
ENDBRANCH   3   8
TORSDOF 4
ENDMDL
MODEL 8
REMARK VINA RESULT:      -3.6      3.095      4.499
REMARK  4 active torsions:
REMARK  status: ('A' for Active; 'I' for Inactive)
REMARK    1  A    between atoms: C_3  and  C_4 
REMARK    2  A    between atoms: C_4  and  C_7 
REMARK    3  A    between atoms: O_5  and  C_7 
REMARK    4  A    between atoms: O_5  and  C_9 
ROOT
HETATM    1  N   UNL     1      65.075   6.894   7.317  1.00  0.00    -0.369 N 
ATOM      2  HN  UNL     1      64.520   6.608   8.123  1.00  0.00     0.165 HD
HETATM    3  C   UNL     1      66.412   7.101   7.420  1.00  0.00     0.011 A 
HETATM    4  C   UNL     1      64.506   7.081   6.106  1.00  0.00     0.088 A 
HETATM    5  C   UNL     1      67.193   7.464   6.323  1.00  0.00     0.025 A 
HETATM    6  C   UNL     1      65.208   7.458   4.975  1.00  0.00     0.017 A 
HETATM    7  C   UNL     1      66.579   7.646   5.087  1.00  0.00     0.003 A 
ENDROOT
BRANCH   3   8
HETATM    8  C   UNL     1      67.023   6.895   8.782  1.00  0.00     0.083 C 
BRANCH   8   9
HETATM    9  C   UNL     1      67.429   5.447   9.081  1.00  0.00     0.173 C 
BRANCH   9  10
HETATM   10  O   UNL     1      66.600   4.449   8.485  1.00  0.00    -0.391 OA
BRANCH  10  11
HETATM   11  C   UNL     1      67.322   3.353   7.927  1.00  0.00     0.163 C 
HETATM   12  C   UNL     1      67.801   3.751   6.544  1.00  0.00     0.033 C 
ENDBRANCH  10  11
ENDBRANCH   9  10
ENDBRANCH   8   9
ENDBRANCH   3   8
TORSDOF 4
ENDMDL
MODEL 9
REMARK VINA RESULT:      -3.6      1.816      5.130
REMARK  4 active torsions:
REMARK  status: ('A' for Active; 'I' for Inactive)
REMARK    1  A    between atoms: C_3  and  C_4 
REMARK    2  A    between atoms: C_4  and  C_7 
REMARK    3  A    between atoms: O_5  and  C_7 
REMARK    4  A    between atoms: O_5  and  C_9 
ROOT
HETATM    1  N   UNL     1      65.361   6.973   7.343  1.00  0.00    -0.369 N 
ATOM      2  HN  UNL     1      64.511   7.429   7.671  1.00  0.00     0.165 HD
HETATM    3  C   UNL     1      65.507   6.608   6.044  1.00  0.00     0.011 A 
HETATM    4  C   UNL     1      66.385   6.710   8.184  1.00  0.00     0.088 A 
HETATM    5  C   UNL     1      66.673   6.010   5.568  1.00  0.00     0.025 A 
HETATM    6  C   UNL     1      67.566   6.103   7.794  1.00  0.00     0.017 A 
HETATM    7  C   UNL     1      67.713   5.754   6.458  1.00  0.00     0.003 A 
ENDROOT
BRANCH   3   8
HETATM    8  C   UNL     1      64.349   6.904   5.127  1.00  0.00     0.083 C 
BRANCH   8   9
HETATM    9  C   UNL     1      63.062   7.322   5.847  1.00  0.00     0.173 C 
BRANCH   9  10
HETATM   10  O   UNL     1      62.978   8.707   6.186  1.00  0.00    -0.391 OA
BRANCH  10  11
HETATM   11  C   UNL     1      62.956   9.579   5.060  1.00  0.00     0.163 C 
HETATM   12  C   UNL     1      62.972  11.011   5.564  1.00  0.00     0.033 C 
ENDBRANCH  10  11
ENDBRANCH   9  10
ENDBRANCH   8   9
ENDBRANCH   3   8
TORSDOF 4
ENDMDL
