MODEL 1
REMARK VINA RESULT:      -5.8      0.000      0.000
REMARK  1 active torsions:
REMARK  status: ('A' for Active; 'I' for Inactive)
REMARK    1  A    between atoms: C_4  and  O_8 
ROOT
HETATM    1  C   UNL     1      62.835  10.257   5.060  1.00  0.00     0.250 A 
HETATM    2  C   UNL     1      62.187  11.227   4.149  1.00  0.00     0.112 A 
HETATM    3  N   UNL     1      63.123   8.996   4.555  1.00  0.00    -0.318 N 
HETATM    4  C   UNL     1      61.902  10.916   2.881  1.00  0.00     0.083 A 
HETATM    5  C   UNL     1      62.823   8.637   3.203  1.00  0.00     0.050 A 
HETATM    6  C   UNL     1      62.222   9.586   2.355  1.00  0.00     0.024 A 
HETATM    7  O   UNL     1      63.075  10.622   6.209  1.00  0.00    -0.268 OA
HETATM    8  C   UNL     1      63.750   8.028   5.439  1.00  0.00     0.159 C 
HETATM    9  C   UNL     1      61.933   9.243   1.024  1.00  0.00     0.016 A 
HETATM   10  C   UNL     1      63.109   7.359   2.696  1.00  0.00     0.031 A 
HETATM   11  C   UNL     1      62.221   7.970   0.536  1.00  0.00     0.001 A 
HETATM   12  C   UNL     1      62.806   7.027   1.373  1.00  0.00     0.002 A 
ENDROOT
BRANCH   4  13
HETATM   13  O   UNL     1      61.294  11.799   2.013  1.00  0.00    -0.360 OA
HETATM   14  H   UNL     1      61.793  12.490   1.622  1.00  0.00     0.217 HD
ENDBRANCH   4  13
TORSDOF 1
ENDMDL
MODEL 2
REMARK VINA RESULT:      -5.4      1.436      2.949
REMARK  1 active torsions:
REMARK  status: ('A' for Active; 'I' for Inactive)
REMARK    1  A    between atoms: C_4  and  O_8 
ROOT
HETATM    1  C   UNL     1      62.276  10.898   4.203  1.00  0.00     0.250 A 
HETATM    2  C   UNL     1      62.750   9.760   5.022  1.00  0.00     0.112 A 
HETATM    3  N   UNL     1      62.079  10.673   2.847  1.00  0.00    -0.318 N 
HETATM    4  C   UNL     1      62.965   8.554   4.490  1.00  0.00     0.083 A 
HETATM    5  C   UNL     1      62.307   9.394   2.252  1.00  0.00     0.050 A 
HETATM    6  C   UNL     1      62.741   8.325   3.059  1.00  0.00     0.024 A 
HETATM    7  O   UNL     1      62.091  11.974   4.769  1.00  0.00    -0.268 OA
HETATM    8  C   UNL     1      61.623  11.783   2.026  1.00  0.00     0.159 C 
HETATM    9  C   UNL     1      62.958   7.063   2.483  1.00  0.00     0.016 A 
HETATM   10  C   UNL     1      62.113   9.170   0.879  1.00  0.00     0.031 A 
HETATM   11  C   UNL     1      62.763   6.858   1.118  1.00  0.00     0.001 A 
HETATM   12  C   UNL     1      62.344   7.913   0.316  1.00  0.00     0.002 A 
ENDROOT
BRANCH   4  13
HETATM   13  O   UNL     1      63.411   7.478   5.229  1.00  0.00    -0.360 OA
HETATM   14  H   UNL     1      64.328   7.291   5.279  1.00  0.00     0.217 HD
ENDBRANCH   4  13
TORSDOF 1
ENDMDL
MODEL 3
REMARK VINA RESULT:      -5.2      0.981      3.380
REMARK  1 active torsions:
REMARK  status: ('A' for Active; 'I' for Inactive)
REMARK    1  A    between atoms: C_4  and  O_8 
ROOT
HETATM    1  C   UNL     1      61.946  10.912   2.743  1.00  0.00     0.250 A 
HETATM    2  C   UNL     1      62.189  11.268   4.158  1.00  0.00     0.112 A 
HETATM    3  N   UNL     1      62.314   9.638   2.330  1.00  0.00    -0.318 N 
HETATM    4  C   UNL     1      62.725  10.398   5.019  1.00  0.00     0.083 A 
HETATM    5  C   UNL     1      62.894   8.691   3.230  1.00  0.00     0.050 A 
HETATM    6  C   UNL     1      63.097   9.051   4.575  1.00  0.00     0.024 A 
HETATM    7  O   UNL     1      61.439  11.764   2.016  1.00  0.00    -0.268 OA
HETATM    8  C   UNL     1      62.091   9.275   0.940  1.00  0.00     0.159 C 
HETATM    9  C   UNL     1      63.658   8.122   5.466  1.00  0.00     0.016 A 
HETATM   10  C   UNL     1      63.271   7.404   2.808  1.00  0.00     0.031 A 
HETATM   11  C   UNL     1      64.029   6.851   5.033  1.00  0.00     0.001 A 
HETATM   12  C   UNL     1      63.839   6.494   3.703  1.00  0.00     0.002 A 
ENDROOT
BRANCH   4  13
HETATM   13  O   UNL     1      62.966  10.706   6.342  1.00  0.00    -0.360 OA
HETATM   14  H   UNL     1      62.616  10.163   7.021  1.00  0.00     0.217 HD
ENDBRANCH   4  13
TORSDOF 1
ENDMDL
MODEL 4
REMARK VINA RESULT:      -5.1      1.421      2.623
REMARK  1 active torsions:
REMARK  status: ('A' for Active; 'I' for Inactive)
REMARK    1  A    between atoms: C_4  and  O_8 
ROOT
HETATM    1  C   UNL     1      62.063  10.964   3.262  1.00  0.00     0.250 A 
HETATM    2  C   UNL     1      61.784  10.398   1.923  1.00  0.00     0.112 A 
HETATM    3  N   UNL     1      62.694  10.142   4.186  1.00  0.00    -0.318 N 
HETATM    4  C   UNL     1      62.138   9.150   1.601  1.00  0.00     0.083 A 
HETATM    5  C   UNL     1      63.078   8.802   3.868  1.00  0.00     0.050 A 
HETATM    6  C   UNL     1      62.816   8.296   2.581  1.00  0.00     0.024 A 
HETATM    7  O   UNL     1      61.716  12.123   3.478  1.00  0.00    -0.268 OA
HETATM    8  C   UNL     1      62.967  10.679   5.510  1.00  0.00     0.159 C 
HETATM    9  C   UNL     1      63.198   6.984   2.259  1.00  0.00     0.016 A 
HETATM   10  C   UNL     1      63.711   7.970   4.807  1.00  0.00     0.031 A 
HETATM   11  C   UNL     1      63.823   6.170   3.202  1.00  0.00     0.001 A 
HETATM   12  C   UNL     1      64.076   6.663   4.477  1.00  0.00     0.002 A 
ENDROOT
BRANCH   4  13
HETATM   13  O   UNL     1      61.886   8.597   0.363  1.00  0.00    -0.360 OA
HETATM   14  H   UNL     1      61.121   8.850  -0.116  1.00  0.00     0.217 HD
ENDBRANCH   4  13
TORSDOF 1
ENDMDL
MODEL 5
REMARK VINA RESULT:      -4.9      2.427      4.459
REMARK  1 active torsions:
REMARK  status: ('A' for Active; 'I' for Inactive)
REMARK    1  A    between atoms: C_4  and  O_8 
ROOT
HETATM    1  C   UNL     1      64.727   6.606   3.426  1.00  0.00     0.250 A 
HETATM    2  C   UNL     1      65.454   7.150   4.595  1.00  0.00     0.112 A 
HETATM    3  N   UNL     1      63.636   7.326   2.958  1.00  0.00    -0.318 N 
HETATM    4  C   UNL     1      65.092   8.298   5.173  1.00  0.00     0.083 A 
HETATM    5  C   UNL     1      63.226   8.555   3.563  1.00  0.00     0.050 A 
HETATM    6  C   UNL     1      63.947   9.057   4.662  1.00  0.00     0.024 A 
HETATM    7  O   UNL     1      65.127   5.548   2.943  1.00  0.00    -0.268 OA
HETATM    8  C   UNL     1      62.905   6.800   1.816  1.00  0.00     0.159 C 
HETATM    9  C   UNL     1      63.555  10.268   5.255  1.00  0.00     0.016 A 
HETATM   10  C   UNL     1      62.117   9.278   3.091  1.00  0.00     0.031 A 
HETATM   11  C   UNL     1      62.452  10.973   4.777  1.00  0.00     0.001 A 
HETATM   12  C   UNL     1      61.732  10.476   3.698  1.00  0.00     0.002 A 
ENDROOT
BRANCH   4  13
HETATM   13  O   UNL     1      65.750   8.825   6.266  1.00  0.00    -0.360 OA
HETATM   14  H   UNL     1      65.270   9.042   7.042  1.00  0.00     0.217 HD
ENDBRANCH   4  13
TORSDOF 1
ENDMDL
MODEL 6
REMARK VINA RESULT:      -4.8      1.831      3.229
REMARK  1 active torsions:
REMARK  status: ('A' for Active; 'I' for Inactive)
REMARK    1  A    between atoms: C_4  and  O_8 
ROOT
HETATM    1  C   UNL     1      64.302   6.923   4.566  1.00  0.00     0.250 A 
HETATM    2  C   UNL     1      64.053   8.043   5.501  1.00  0.00     0.112 A 
HETATM    3  N   UNL     1      63.789   7.035   3.280  1.00  0.00    -0.318 N 
HETATM    4  C   UNL     1      63.378   9.133   5.126  1.00  0.00     0.083 A 
HETATM    5  C   UNL     1      63.058   8.188   2.856  1.00  0.00     0.050 A 
HETATM    6  C   UNL     1      62.853   9.246   3.762  1.00  0.00     0.024 A 
HETATM    7  O   UNL     1      64.941   5.959   4.983  1.00  0.00    -0.268 OA
HETATM    8  C   UNL     1      64.016   5.939   2.353  1.00  0.00     0.159 C 
HETATM    9  C   UNL     1      62.143  10.386   3.349  1.00  0.00     0.016 A 
HETATM   10  C   UNL     1      62.535   8.297   1.557  1.00  0.00     0.031 A 
HETATM   11  C   UNL     1      61.628  10.478   2.058  1.00  0.00     0.001 A 
HETATM   12  C   UNL     1      61.821   9.432   1.163  1.00  0.00     0.002 A 
ENDROOT
BRANCH   4  13
HETATM   13  O   UNL     1      63.129  10.189   5.978  1.00  0.00    -0.360 OA
HETATM   14  H   UNL     1      62.264  10.545   6.043  1.00  0.00     0.217 HD
ENDBRANCH   4  13
TORSDOF 1
ENDMDL
MODEL 7
REMARK VINA RESULT:      -4.7      2.069      3.628
REMARK  1 active torsions:
REMARK  status: ('A' for Active; 'I' for Inactive)
REMARK    1  A    between atoms: C_4  and  O_8 
ROOT
HETATM    1  C   UNL     1      63.625   6.752   2.976  1.00  0.00     0.250 A 
HETATM    2  C   UNL     1      62.902   7.254   1.786  1.00  0.00     0.112 A 
HETATM    3  N   UNL     1      63.725   7.601   4.070  1.00  0.00    -0.318 N 
HETATM    4  C   UNL     1      62.348   8.469   1.762  1.00  0.00     0.083 A 
HETATM    5  C   UNL     1      63.146   8.909   4.067  1.00  0.00     0.050 A 
HETATM    6  C   UNL     1      62.449   9.352   2.928  1.00  0.00     0.024 A 
HETATM    7  O   UNL     1      64.097   5.618   2.924  1.00  0.00    -0.268 OA
HETATM    8  C   UNL     1      64.440   7.128   5.244  1.00  0.00     0.159 C 
HETATM    9  C   UNL     1      61.870  10.632   2.922  1.00  0.00     0.016 A 
HETATM   10  C   UNL     1      63.255   9.769   5.173  1.00  0.00     0.031 A 
HETATM   11  C   UNL     1      61.988  11.474   4.026  1.00  0.00     0.001 A 
HETATM   12  C   UNL     1      62.683  11.043   5.150  1.00  0.00     0.002 A 
ENDROOT
BRANCH   4  13
HETATM   13  O   UNL     1      61.674   8.963   0.664  1.00  0.00    -0.360 OA
HETATM   14  H   UNL     1      62.152   9.324  -0.056  1.00  0.00     0.217 HD
ENDBRANCH   4  13
TORSDOF 1
ENDMDL
MODEL 8
REMARK VINA RESULT:      -4.5      2.762      4.681
REMARK  1 active torsions:
REMARK  status: ('A' for Active; 'I' for Inactive)
REMARK    1  A    between atoms: C_4  and  O_8 
ROOT
HETATM    1  C   UNL     1      63.142   7.776   3.150  1.00  0.00     0.250 A 
HETATM    2  C   UNL     1      63.338   8.864   4.134  1.00  0.00     0.112 A 
HETATM    3  N   UNL     1      64.118   6.791   3.080  1.00  0.00    -0.318 N 
HETATM    4  C   UNL     1      64.402   8.896   4.942  1.00  0.00     0.083 A 
HETATM    5  C   UNL     1      65.268   6.805   3.930  1.00  0.00     0.050 A 
HETATM    6  C   UNL     1      65.419   7.843   4.869  1.00  0.00     0.024 A 
HETATM    7  O   UNL     1      62.132   7.812   2.450  1.00  0.00    -0.268 OA
HETATM    8  C   UNL     1      63.945   5.720   2.112  1.00  0.00     0.159 C 
HETATM    9  C   UNL     1      66.542   7.858   5.713  1.00  0.00     0.016 A 
HETATM   10  C   UNL     1      66.257   5.810   3.853  1.00  0.00     0.031 A 
HETATM   11  C   UNL     1      67.516   6.865   5.623  1.00  0.00     0.001 A 
HETATM   12  C   UNL     1      67.374   5.844   4.691  1.00  0.00     0.002 A 
ENDROOT
BRANCH   4  13
HETATM   13  O   UNL     1      64.611   9.900   5.865  1.00  0.00    -0.360 OA
HETATM   14  H   UNL     1      65.410   9.929   6.353  1.00  0.00     0.217 HD
ENDBRANCH   4  13
TORSDOF 1
ENDMDL
MODEL 9
REMARK VINA RESULT:      -4.4      5.215      7.416
REMARK  1 active torsions:
REMARK  status: ('A' for Active; 'I' for Inactive)
REMARK    1  A    between atoms: C_4  and  O_8 
ROOT
HETATM    1  C   UNL     1      66.701   5.790   4.256  1.00  0.00     0.250 A 
HETATM    2  C   UNL     1      66.323   7.149   4.704  1.00  0.00     0.112 A 
HETATM    3  N   UNL     1      67.225   4.924   5.206  1.00  0.00    -0.318 N 
HETATM    4  C   UNL     1      66.460   7.531   5.977  1.00  0.00     0.083 A 
HETATM    5  C   UNL     1      67.387   5.311   6.573  1.00  0.00     0.050 A 
HETATM    6  C   UNL     1      67.002   6.604   6.974  1.00  0.00     0.024 A 
HETATM    7  O   UNL     1      66.534   5.511   3.070  1.00  0.00    -0.268 OA
HETATM    8  C   UNL     1      67.611   3.589   4.780  1.00  0.00     0.159 C 
HETATM    9  C   UNL     1      67.150   6.988   8.318  1.00  0.00     0.016 A 
HETATM   10  C   UNL     1      67.923   4.435   7.532  1.00  0.00     0.031 A 
HETATM   11  C   UNL     1      67.685   6.108   9.256  1.00  0.00     0.001 A 
HETATM   12  C   UNL     1      68.075   4.834   8.862  1.00  0.00     0.002 A 
ENDROOT
BRANCH   4  13
HETATM   13  O   UNL     1      66.119   8.793   6.420  1.00  0.00    -0.360 OA
HETATM   14  H   UNL     1      66.758   9.327   6.850  1.00  0.00     0.217 HD
ENDBRANCH   4  13
TORSDOF 1
ENDMDL
