MODEL 1
REMARK VINA RESULT:      -5.4      0.000      0.000
REMARK  2 active torsions:
REMARK  status: ('A' for Active; 'I' for Inactive)
REMARK    1  A    between atoms: N_1  and  O_8 
REMARK    2  A    between atoms: C_5  and  C_7 
ROOT
HETATM    1  N   UNL     1      63.648   7.234   5.793  1.00  0.00    -0.156 NA
HETATM    2  N   UNL     1      65.392   7.987   4.570  1.00  0.00    -0.360 N 
HETATM    3  C   UNL     1      64.778   6.307   6.095  1.00  0.00     0.086 C 
HETATM    4  C   UNL     1      65.820   6.778   5.075  1.00  0.00     0.099 C 
HETATM    5  C   UNL     1      64.254   8.471   5.279  1.00  0.00     0.218 C 
HETATM    6  S   UNL     1      67.256   6.067   4.651  1.00  0.00    -0.063 SA
HETATM    7  C   UNL     1      65.336   6.448   7.522  1.00  0.00     0.042 C 
HETATM    8  C   UNL     1      64.297   4.876   5.839  1.00  0.00     0.042 C 
HETATM    9  H   UNL     1      65.819   8.457   3.817  1.00  0.00     0.162 HD
ENDROOT
BRANCH   5  10
HETATM   10  C   UNL     1      63.315   9.275   4.410  1.00  0.00    -0.019 A 
HETATM   11  C   UNL     1      62.836  10.536   4.806  1.00  0.00     0.010 A 
HETATM   12  C   UNL     1      61.998  11.277   3.967  1.00  0.00     0.001 A 
HETATM   13  C   UNL     1      61.623  10.769   2.726  1.00  0.00     0.000 A 
HETATM   14  C   UNL     1      62.079   9.516   2.322  1.00  0.00     0.001 A 
HETATM   15  C   UNL     1      62.918   8.775   3.158  1.00  0.00     0.010 A 
ENDBRANCH   5  10
BRANCH   1  16
HETATM   16  O   UNL     1      62.920   7.540   7.011  1.00  0.00    -0.310 OA
HETATM   17  H   UNL     1      62.280   8.249   6.836  1.00  0.00     0.237 HD
ENDBRANCH   1  16
TORSDOF 2
ENDMDL
MODEL 2
REMARK VINA RESULT:      -5.4      1.740      2.158
REMARK  2 active torsions:
REMARK  status: ('A' for Active; 'I' for Inactive)
REMARK    1  A    between atoms: N_1  and  O_8 
REMARK    2  A    between atoms: C_5  and  C_7 
ROOT
HETATM    1  N   UNL     1      65.384   7.855   5.951  1.00  0.00    -0.156 NA
HETATM    2  N   UNL     1      63.823   6.405   5.198  1.00  0.00    -0.360 N 
HETATM    3  C   UNL     1      65.766   6.527   6.516  1.00  0.00     0.086 C 
HETATM    4  C   UNL     1      64.549   5.684   6.121  1.00  0.00     0.099 C 
HETATM    5  C   UNL     1      64.524   7.578   4.791  1.00  0.00     0.218 C 
HETATM    6  S   UNL     1      64.144   4.152   6.608  1.00  0.00    -0.063 SA
HETATM    7  C   UNL     1      67.043   5.930   5.900  1.00  0.00     0.042 C 
HETATM    8  C   UNL     1      65.917   6.684   8.032  1.00  0.00     0.042 C 
HETATM    9  H   UNL     1      62.936   6.143   4.862  1.00  0.00     0.162 HD
ENDROOT
BRANCH   5  10
HETATM   10  C   UNL     1      63.603   8.727   4.450  1.00  0.00    -0.019 A 
HETATM   11  C   UNL     1      63.442   9.829   5.307  1.00  0.00     0.010 A 
HETATM   12  C   UNL     1      62.614  10.897   4.951  1.00  0.00     0.001 A 
HETATM   13  C   UNL     1      61.931  10.878   3.738  1.00  0.00     0.000 A 
HETATM   14  C   UNL     1      62.068   9.789   2.880  1.00  0.00     0.001 A 
HETATM   15  C   UNL     1      62.898   8.722   3.234  1.00  0.00     0.010 A 
ENDBRANCH   5  10
BRANCH   1  16
HETATM   16  O   UNL     1      66.570   8.558   5.496  1.00  0.00    -0.310 OA
HETATM   17  H   UNL     1      66.327   9.179   4.790  1.00  0.00     0.237 HD
ENDBRANCH   1  16
TORSDOF 2
ENDMDL
MODEL 3
REMARK VINA RESULT:      -5.3      1.819      2.605
REMARK  2 active torsions:
REMARK  status: ('A' for Active; 'I' for Inactive)
REMARK    1  A    between atoms: N_1  and  O_8 
REMARK    2  A    between atoms: C_5  and  C_7 
ROOT
HETATM    1  N   UNL     1      65.435   7.228   4.489  1.00  0.00    -0.156 NA
HETATM    2  N   UNL     1      64.431   7.528   6.490  1.00  0.00    -0.360 N 
HETATM    3  C   UNL     1      66.241   6.435   5.464  1.00  0.00     0.086 C 
HETATM    4  C   UNL     1      65.606   6.872   6.788  1.00  0.00     0.099 C 
HETATM    5  C   UNL     1      64.114   7.420   5.104  1.00  0.00     0.218 C 
HETATM    6  S   UNL     1      66.128   6.587   8.335  1.00  0.00    -0.063 SA
HETATM    7  C   UNL     1      66.106   4.912   5.292  1.00  0.00     0.042 C 
HETATM    8  C   UNL     1      67.704   6.869   5.332  1.00  0.00     0.042 C 
HETATM    9  H   UNL     1      63.879   8.008   7.151  1.00  0.00     0.162 HD
ENDROOT
BRANCH   5  10
HETATM   10  C   UNL     1      63.382   8.630   4.570  1.00  0.00    -0.019 A 
HETATM   11  C   UNL     1      62.743   8.616   3.318  1.00  0.00     0.010 A 
HETATM   12  C   UNL     1      62.040   9.735   2.863  1.00  0.00     0.001 A 
HETATM   13  C   UNL     1      61.967  10.883   3.648  1.00  0.00     0.000 A 
HETATM   14  C   UNL     1      62.604  10.919   4.887  1.00  0.00     0.001 A 
HETATM   15  C   UNL     1      63.305   9.800   5.344  1.00  0.00     0.010 A 
ENDBRANCH   5  10
BRANCH   1  16
HETATM   16  O   UNL     1      65.272   6.479   3.256  1.00  0.00    -0.310 OA
HETATM   17  H   UNL     1      65.330   5.529   3.445  1.00  0.00     0.237 HD
ENDBRANCH   1  16
TORSDOF 2
ENDMDL
MODEL 4
REMARK VINA RESULT:      -4.6      2.549      5.920
REMARK  2 active torsions:
REMARK  status: ('A' for Active; 'I' for Inactive)
REMARK    1  A    between atoms: N_1  and  O_8 
REMARK    2  A    between atoms: C_5  and  C_7 
ROOT
HETATM    1  N   UNL     1      65.221   7.207   5.331  1.00  0.00    -0.156 NA
HETATM    2  N   UNL     1      63.687   6.109   6.573  1.00  0.00    -0.360 N 
HETATM    3  C   UNL     1      63.928   7.367   4.602  1.00  0.00     0.086 C 
HETATM    4  C   UNL     1      63.024   6.428   5.407  1.00  0.00     0.099 C 
HETATM    5  C   UNL     1      64.874   6.884   6.722  1.00  0.00     0.218 C 
HETATM    6  S   UNL     1      61.493   5.902   5.052  1.00  0.00    -0.063 SA
HETATM    7  C   UNL     1      63.365   8.799   4.637  1.00  0.00     0.042 C 
HETATM    8  C   UNL     1      64.138   6.901   3.159  1.00  0.00     0.042 C 
HETATM    9  H   UNL     1      63.378   5.434   7.221  1.00  0.00     0.162 HD
ENDROOT
BRANCH   5  10
HETATM   10  C   UNL     1      65.973   6.145   7.450  1.00  0.00    -0.019 A 
HETATM   11  C   UNL     1      66.366   4.847   7.079  1.00  0.00     0.010 A 
HETATM   12  C   UNL     1      67.411   4.199   7.744  1.00  0.00     0.001 A 
HETATM   13  C   UNL     1      68.075   4.835   8.791  1.00  0.00     0.000 A 
HETATM   14  C   UNL     1      67.692   6.117   9.180  1.00  0.00     0.001 A 
HETATM   15  C   UNL     1      66.649   6.766   8.515  1.00  0.00     0.010 A 
ENDBRANCH   5  10
BRANCH   1  16
HETATM   16  O   UNL     1      65.958   8.458   5.311  1.00  0.00    -0.310 OA
HETATM   17  H   UNL     1      66.138   8.713   4.392  1.00  0.00     0.237 HD
ENDBRANCH   1  16
TORSDOF 2
ENDMDL
MODEL 5
REMARK VINA RESULT:      -4.5      8.487     10.583
REMARK  2 active torsions:
REMARK  status: ('A' for Active; 'I' for Inactive)
REMARK    1  A    between atoms: N_1  and  O_8 
REMARK    2  A    between atoms: C_5  and  C_7 
ROOT
HETATM    1  N   UNL     1      58.833   3.782   9.703  1.00  0.00    -0.156 NA
HETATM    2  N   UNL     1      57.667   1.900   9.251  1.00  0.00    -0.360 N 
HETATM    3  C   UNL     1      58.805   3.675   8.214  1.00  0.00     0.086 C 
HETATM    4  C   UNL     1      58.185   2.286   8.034  1.00  0.00     0.099 C 
HETATM    5  C   UNL     1      57.713   2.967  10.196  1.00  0.00     0.218 C 
HETATM    6  S   UNL     1      58.052   1.378   6.654  1.00  0.00    -0.063 SA
HETATM    7  C   UNL     1      57.927   4.738   7.529  1.00  0.00     0.042 C 
HETATM    8  C   UNL     1      60.248   3.755   7.707  1.00  0.00     0.042 C 
HETATM    9  H   UNL     1      57.309   1.003   9.443  1.00  0.00     0.162 HD
ENDROOT
BRANCH   5  10
HETATM   10  C   UNL     1      57.908   2.489  11.617  1.00  0.00    -0.019 A 
HETATM   11  C   UNL     1      56.836   2.393  12.520  1.00  0.00     0.010 A 
HETATM   12  C   UNL     1      57.035   1.912  13.817  1.00  0.00     0.001 A 
HETATM   13  C   UNL     1      58.307   1.525  14.232  1.00  0.00     0.000 A 
HETATM   14  C   UNL     1      59.384   1.625  13.354  1.00  0.00     0.001 A 
HETATM   15  C   UNL     1      59.186   2.103  12.057  1.00  0.00     0.010 A 
ENDBRANCH   5  10
BRANCH   1  16
HETATM   16  O   UNL     1      58.621   5.160  10.105  1.00  0.00    -0.310 OA
HETATM   17  H   UNL     1      57.779   5.477   9.741  1.00  0.00     0.237 HD
ENDBRANCH   1  16
TORSDOF 2
ENDMDL
MODEL 6
REMARK VINA RESULT:      -4.4      2.504      4.984
REMARK  2 active torsions:
REMARK  status: ('A' for Active; 'I' for Inactive)
REMARK    1  A    between atoms: N_1  and  O_8 
REMARK    2  A    between atoms: C_5  and  C_7 
ROOT
HETATM    1  N   UNL     1      63.183   8.931   4.477  1.00  0.00    -0.156 NA
HETATM    2  N   UNL     1      63.587   7.551   2.735  1.00  0.00    -0.360 N 
HETATM    3  C   UNL     1      62.075   9.177   3.506  1.00  0.00     0.086 C 
HETATM    4  C   UNL     1      62.558   8.360   2.304  1.00  0.00     0.099 C 
HETATM    5  C   UNL     1      63.731   7.607   4.152  1.00  0.00     0.218 C 
HETATM    6  S   UNL     1      61.962   8.336   0.757  1.00  0.00    -0.063 SA
HETATM    7  C   UNL     1      60.705   8.660   3.979  1.00  0.00     0.042 C 
HETATM    8  C   UNL     1      62.019  10.680   3.223  1.00  0.00     0.042 C 
HETATM    9  H   UNL     1      64.151   7.004   2.140  1.00  0.00     0.162 HD
ENDROOT
BRANCH   5  10
HETATM   10  C   UNL     1      65.161   7.428   4.608  1.00  0.00    -0.019 A 
HETATM   11  C   UNL     1      65.704   8.189   5.658  1.00  0.00     0.010 A 
HETATM   12  C   UNL     1      67.017   7.979   6.087  1.00  0.00     0.001 A 
HETATM   13  C   UNL     1      67.808   7.011   5.472  1.00  0.00     0.000 A 
HETATM   14  C   UNL     1      67.290   6.256   4.422  1.00  0.00     0.001 A 
HETATM   15  C   UNL     1      65.977   6.463   3.994  1.00  0.00     0.010 A 
ENDBRANCH   5  10
BRANCH   1  16
HETATM   16  O   UNL     1      62.657   8.901   5.830  1.00  0.00    -0.310 OA
HETATM   17  H   UNL     1      62.875   8.050   6.242  1.00  0.00     0.237 HD
ENDBRANCH   1  16
TORSDOF 2
ENDMDL
MODEL 7
REMARK VINA RESULT:      -4.3      2.137      5.316
REMARK  2 active torsions:
REMARK  status: ('A' for Active; 'I' for Inactive)
REMARK    1  A    between atoms: N_1  and  O_8 
REMARK    2  A    between atoms: C_5  and  C_7 
ROOT
HETATM    1  N   UNL     1      63.692   7.451   5.659  1.00  0.00    -0.156 NA
HETATM    2  N   UNL     1      64.370   5.831   4.237  1.00  0.00    -0.360 N 
HETATM    3  C   UNL     1      62.823   7.587   4.452  1.00  0.00     0.086 C 
HETATM    4  C   UNL     1      63.497   6.598   3.496  1.00  0.00     0.099 C 
HETATM    5  C   UNL     1      64.222   6.080   5.633  1.00  0.00     0.218 C 
HETATM    6  S   UNL     1      63.232   6.375   1.876  1.00  0.00    -0.063 SA
HETATM    7  C   UNL     1      61.359   7.177   4.689  1.00  0.00     0.042 C 
HETATM    8  C   UNL     1      62.909   9.038   3.970  1.00  0.00     0.042 C 
HETATM    9  H   UNL     1      65.013   5.192   3.852  1.00  0.00     0.162 HD
ENDROOT
BRANCH   5  10
HETATM   10  C   UNL     1      65.515   5.930   6.400  1.00  0.00    -0.019 A 
HETATM   11  C   UNL     1      65.577   5.235   7.620  1.00  0.00     0.010 A 
HETATM   12  C   UNL     1      66.792   5.077   8.292  1.00  0.00     0.001 A 
HETATM   13  C   UNL     1      67.961   5.614   7.758  1.00  0.00     0.000 A 
HETATM   14  C   UNL     1      67.918   6.316   6.556  1.00  0.00     0.001 A 
HETATM   15  C   UNL     1      66.704   6.473   5.883  1.00  0.00     0.010 A 
ENDBRANCH   5  10
BRANCH   1  16
HETATM   16  O   UNL     1      62.898   7.623   6.862  1.00  0.00    -0.310 OA
HETATM   17  H   UNL     1      63.047   8.511   7.224  1.00  0.00     0.237 HD
ENDBRANCH   1  16
TORSDOF 2
ENDMDL
MODEL 8
REMARK VINA RESULT:      -4.3      3.257      5.115
REMARK  2 active torsions:
REMARK  status: ('A' for Active; 'I' for Inactive)
REMARK    1  A    between atoms: N_1  and  O_8 
REMARK    2  A    between atoms: C_5  and  C_7 
ROOT
HETATM    1  N   UNL     1      63.423   6.714   5.871  1.00  0.00    -0.156 NA
HETATM    2  N   UNL     1      61.598   6.934   4.558  1.00  0.00    -0.360 N 
HETATM    3  C   UNL     1      63.877   7.494   4.682  1.00  0.00     0.086 C 
HETATM    4  C   UNL     1      62.639   7.403   3.785  1.00  0.00     0.099 C 
HETATM    5  C   UNL     1      61.963   6.870   5.934  1.00  0.00     0.218 C 
HETATM    6  S   UNL     1      62.474   7.835   2.194  1.00  0.00    -0.063 SA
HETATM    7  C   UNL     1      64.199   8.967   4.989  1.00  0.00     0.042 C 
HETATM    8  C   UNL     1      65.098   6.785   4.089  1.00  0.00     0.042 C 
HETATM    9  H   UNL     1      60.715   6.677   4.204  1.00  0.00     0.162 HD
ENDROOT
BRANCH   5  10
HETATM   10  C   UNL     1      61.278   5.745   6.675  1.00  0.00    -0.019 A 
HETATM   11  C   UNL     1      60.117   5.958   7.438  1.00  0.00     0.010 A 
HETATM   12  C   UNL     1      59.480   4.894   8.083  1.00  0.00     0.001 A 
HETATM   13  C   UNL     1      59.995   3.604   7.979  1.00  0.00     0.000 A 
HETATM   14  C   UNL     1      61.152   3.375   7.237  1.00  0.00     0.001 A 
HETATM   15  C   UNL     1      61.788   4.438   6.590  1.00  0.00     0.010 A 
ENDBRANCH   5  10
BRANCH   1  16
HETATM   16  O   UNL     1      64.006   7.269   7.079  1.00  0.00    -0.310 OA
HETATM   17  H   UNL     1      63.667   6.790   7.852  1.00  0.00     0.237 HD
ENDBRANCH   1  16
TORSDOF 2
ENDMDL
MODEL 9
REMARK VINA RESULT:      -4.1      4.167      4.909
REMARK  2 active torsions:
REMARK  status: ('A' for Active; 'I' for Inactive)
REMARK    1  A    between atoms: N_1  and  O_8 
REMARK    2  A    between atoms: C_5  and  C_7 
ROOT
HETATM    1  N   UNL     1      61.038   6.422   4.876  1.00  0.00    -0.156 NA
HETATM    2  N   UNL     1      59.024   7.064   4.076  1.00  0.00    -0.360 N 
HETATM    3  C   UNL     1      60.028   5.684   5.692  1.00  0.00     0.086 C 
HETATM    4  C   UNL     1      58.730   6.341   5.212  1.00  0.00     0.099 C 
HETATM    5  C   UNL     1      60.357   6.815   3.634  1.00  0.00     0.218 C 
HETATM    6  S   UNL     1      57.202   6.203   5.838  1.00  0.00    -0.063 SA
HETATM    7  C   UNL     1      59.988   4.171   5.413  1.00  0.00     0.042 C 
HETATM    8  C   UNL     1      60.324   5.956   7.169  1.00  0.00     0.042 C 
HETATM    9  H   UNL     1      58.394   7.673   3.626  1.00  0.00     0.162 HD
ENDROOT
BRANCH   5  10
HETATM   10  C   UNL     1      60.990   8.013   2.964  1.00  0.00    -0.019 A 
HETATM   11  C   UNL     1      61.188   8.065   1.573  1.00  0.00     0.010 A 
HETATM   12  C   UNL     1      61.741   9.200   0.973  1.00  0.00     0.001 A 
HETATM   13  C   UNL     1      62.108  10.295   1.752  1.00  0.00     0.000 A 
HETATM   14  C   UNL     1      61.931  10.256   3.133  1.00  0.00     0.001 A 
HETATM   15  C   UNL     1      61.376   9.123   3.734  1.00  0.00     0.010 A 
ENDBRANCH   5  10
BRANCH   1  16
HETATM   16  O   UNL     1      62.145   5.544   4.545  1.00  0.00    -0.310 OA
HETATM   17  H   UNL     1      61.800   4.701   4.211  1.00  0.00     0.237 HD
ENDBRANCH   1  16
TORSDOF 2
ENDMDL
