MODEL 1
REMARK VINA RESULT:      -5.5      0.000      0.000
REMARK  1 active torsions:
REMARK  status: ('A' for Active; 'I' for Inactive)
REMARK    1  A    between atoms: C_10  and  N_12 
ROOT
HETATM    1  C   UNL     1      63.272   8.906   4.428  1.00  0.00     0.092 A 
HETATM    2  C   UNL     1      62.177   9.392   2.272  1.00  0.00    -0.043 A 
HETATM    3  O   UNL     1      62.861  10.162   4.920  1.00  0.00    -0.275 OA
HETATM    4  C   UNL     1      62.179  11.054   4.111  1.00  0.00     0.288 A 
HETATM    5  C   UNL     1      62.963   8.496   3.131  1.00  0.00     0.004 A 
HETATM    6  C   UNL     1      61.831  10.594   2.758  1.00  0.00     0.090 A 
HETATM    7  C   UNL     1      64.031   8.119   5.299  1.00  0.00     0.067 A 
HETATM    8  C   UNL     1      63.460   7.259   2.710  1.00  0.00     0.017 A 
HETATM    9  O   UNL     1      61.861  12.174   4.491  1.00  0.00    -0.260 OA
HETATM   10  C   UNL     1      64.491   6.871   4.885  1.00  0.00     0.028 A 
HETATM   11  C   UNL     1      64.239   6.471   3.571  1.00  0.00     0.030 A 
HETATM   12  C   UNL     1      61.790   8.963   0.889  1.00  0.00     0.049 C 
ENDROOT
BRANCH  10  13
HETATM   13  N   UNL     1      65.388   6.148   5.680  1.00  0.00    -0.399 N 
HETATM   14  H   UNL     1      65.082   5.745   6.524  1.00  0.00     0.156 HD
HETATM   15  H   UNL     1      66.325   6.045   5.395  1.00  0.00     0.156 HD
ENDBRANCH  10  13
TORSDOF 1
ENDMDL
MODEL 2
REMARK VINA RESULT:      -5.4      2.489      3.882
REMARK  1 active torsions:
REMARK  status: ('A' for Active; 'I' for Inactive)
REMARK    1  A    between atoms: C_10  and  N_12 
ROOT
HETATM    1  C   UNL     1      63.448   8.660   3.998  1.00  0.00     0.092 A 
HETATM    2  C   UNL     1      62.350   8.214   1.836  1.00  0.00    -0.043 A 
HETATM    3  O   UNL     1      64.087   7.405   3.932  1.00  0.00    -0.275 OA
HETATM    4  C   UNL     1      63.835   6.532   2.888  1.00  0.00     0.288 A 
HETATM    5  C   UNL     1      62.580   9.089   2.993  1.00  0.00     0.004 A 
HETATM    6  C   UNL     1      62.946   7.012   1.819  1.00  0.00     0.090 A 
HETATM    7  C   UNL     1      63.704   9.425   5.140  1.00  0.00     0.067 A 
HETATM    8  C   UNL     1      61.948  10.322   3.170  1.00  0.00     0.017 A 
HETATM    9  O   UNL     1      64.330   5.414   2.834  1.00  0.00    -0.260 OA
HETATM   10  C   UNL     1      63.099  10.671   5.291  1.00  0.00     0.028 A 
HETATM   11  C   UNL     1      62.185  11.089   4.321  1.00  0.00     0.030 A 
HETATM   12  C   UNL     1      61.459   8.664   0.716  1.00  0.00     0.049 C 
ENDROOT
BRANCH  10  13
HETATM   13  N   UNL     1      63.214  11.371   6.497  1.00  0.00    -0.399 N 
HETATM   14  H   UNL     1      64.103  11.607   6.846  1.00  0.00     0.156 HD
HETATM   15  H   UNL     1      62.404  11.625   6.997  1.00  0.00     0.156 HD
ENDBRANCH  10  13
TORSDOF 1
ENDMDL
MODEL 3
REMARK VINA RESULT:      -5.3      2.598      4.154
REMARK  1 active torsions:
REMARK  status: ('A' for Active; 'I' for Inactive)
REMARK    1  A    between atoms: C_10  and  N_12 
ROOT
HETATM    1  C   UNL     1      62.599   9.234   3.975  1.00  0.00     0.092 A 
HETATM    2  C   UNL     1      63.189   6.895   3.462  1.00  0.00    -0.043 A 
HETATM    3  O   UNL     1      62.819   8.989   5.345  1.00  0.00    -0.275 OA
HETATM    4  C   UNL     1      63.156   7.724   5.797  1.00  0.00     0.288 A 
HETATM    5  C   UNL     1      62.761   8.229   3.020  1.00  0.00     0.004 A 
HETATM    6  C   UNL     1      63.357   6.684   4.776  1.00  0.00     0.090 A 
HETATM    7  C   UNL     1      62.177  10.523   3.637  1.00  0.00     0.067 A 
HETATM    8  C   UNL     1      62.467   8.548   1.692  1.00  0.00     0.017 A 
HETATM    9  O   UNL     1      63.297   7.468   6.986  1.00  0.00    -0.260 OA
HETATM   10  C   UNL     1      61.921  10.843   2.306  1.00  0.00     0.028 A 
HETATM   11  C   UNL     1      62.024   9.833   1.347  1.00  0.00     0.030 A 
HETATM   12  C   UNL     1      63.417   5.805   2.457  1.00  0.00     0.049 C 
ENDROOT
BRANCH  10  13
HETATM   13  N   UNL     1      61.340  12.072   1.974  1.00  0.00    -0.399 N 
HETATM   14  H   UNL     1      61.670  12.578   1.197  1.00  0.00     0.156 HD
HETATM   15  H   UNL     1      60.602  12.430   2.518  1.00  0.00     0.156 HD
ENDBRANCH  10  13
TORSDOF 1
ENDMDL
MODEL 4
REMARK VINA RESULT:      -5.2      2.281      3.159
REMARK  1 active torsions:
REMARK  status: ('A' for Active; 'I' for Inactive)
REMARK    1  A    between atoms: C_10  and  N_12 
ROOT
HETATM    1  C   UNL     1      62.518   8.108   2.929  1.00  0.00     0.092 A 
HETATM    2  C   UNL     1      62.071  10.532   2.848  1.00  0.00    -0.043 A 
HETATM    3  O   UNL     1      62.717   8.190   4.322  1.00  0.00    -0.275 OA
HETATM    4  C   UNL     1      62.661   9.408   4.978  1.00  0.00     0.288 A 
HETATM    5  C   UNL     1      62.209   9.236   2.169  1.00  0.00     0.004 A 
HETATM    6  C   UNL     1      62.299  10.583   4.169  1.00  0.00     0.090 A 
HETATM    7  C   UNL     1      62.685   6.844   2.354  1.00  0.00     0.067 A 
HETATM    8  C   UNL     1      62.085   9.069   0.787  1.00  0.00     0.017 A 
HETATM    9  O   UNL     1      62.886   9.520   6.176  1.00  0.00    -0.260 OA
HETATM   10  C   UNL     1      62.523   6.678   0.981  1.00  0.00     0.028 A 
HETATM   11  C   UNL     1      62.269   7.808   0.200  1.00  0.00     0.030 A 
HETATM   12  C   UNL     1      61.694  11.756   2.069  1.00  0.00     0.049 C 
ENDROOT
BRANCH  10  13
HETATM   13  N   UNL     1      62.849   5.461   0.372  1.00  0.00    -0.399 N 
HETATM   14  H   UNL     1      63.074   5.436  -0.586  1.00  0.00     0.156 HD
HETATM   15  H   UNL     1      62.853   4.632   0.902  1.00  0.00     0.156 HD
ENDBRANCH  10  13
TORSDOF 1
ENDMDL
MODEL 5
REMARK VINA RESULT:      -5.1      2.597      4.332
REMARK  1 active torsions:
REMARK  status: ('A' for Active; 'I' for Inactive)
REMARK    1  A    between atoms: C_10  and  N_12 
ROOT
HETATM    1  C   UNL     1      64.221   8.624   4.726  1.00  0.00     0.092 A 
HETATM    2  C   UNL     1      65.744   6.738   4.268  1.00  0.00    -0.043 A 
HETATM    3  O   UNL     1      65.046   9.031   5.794  1.00  0.00    -0.275 OA
HETATM    4  C   UNL     1      66.163   8.295   6.151  1.00  0.00     0.288 A 
HETATM    5  C   UNL     1      64.525   7.498   3.959  1.00  0.00     0.004 A 
HETATM    6  C   UNL     1      66.489   7.132   5.312  1.00  0.00     0.090 A 
HETATM    7  C   UNL     1      63.071   9.388   4.506  1.00  0.00     0.067 A 
HETATM    8  C   UNL     1      63.621   7.138   2.957  1.00  0.00     0.017 A 
HETATM    9  O   UNL     1      66.865   8.591   7.110  1.00  0.00    -0.260 OA
HETATM   10  C   UNL     1      62.194   9.044   3.481  1.00  0.00     0.028 A 
HETATM   11  C   UNL     1      62.455   7.887   2.742  1.00  0.00     0.030 A 
HETATM   12  C   UNL     1      66.124   5.551   3.436  1.00  0.00     0.049 C 
ENDROOT
BRANCH  10  13
HETATM   13  N   UNL     1      60.961   9.694   3.357  1.00  0.00    -0.399 N 
HETATM   14  H   UNL     1      60.297   9.631   4.080  1.00  0.00     0.156 HD
HETATM   15  H   UNL     1      60.759  10.215   2.546  1.00  0.00     0.156 HD
ENDBRANCH  10  13
TORSDOF 1
ENDMDL
MODEL 6
REMARK VINA RESULT:      -4.8      2.275      3.182
REMARK  1 active torsions:
REMARK  status: ('A' for Active; 'I' for Inactive)
REMARK    1  A    between atoms: C_10  and  N_12 
ROOT
HETATM    1  C   UNL     1      62.512   8.008   3.268  1.00  0.00     0.092 A 
HETATM    2  C   UNL     1      61.856  10.061   2.070  1.00  0.00    -0.043 A 
HETATM    3  O   UNL     1      62.021   7.228   2.202  1.00  0.00    -0.275 OA
HETATM    4  C   UNL     1      61.403   7.820   1.114  1.00  0.00     0.288 A 
HETATM    5  C   UNL     1      62.441   9.401   3.245  1.00  0.00     0.004 A 
HETATM    6  C   UNL     1      61.366   9.290   1.087  1.00  0.00     0.090 A 
HETATM    7  C   UNL     1      63.038   7.306   4.357  1.00  0.00     0.067 A 
HETATM    8  C   UNL     1      62.902  10.090   4.370  1.00  0.00     0.017 A 
HETATM    9  O   UNL     1      60.914   7.166   0.201  1.00  0.00    -0.260 OA
HETATM   10  C   UNL     1      63.530   8.001   5.460  1.00  0.00     0.028 A 
HETATM   11  C   UNL     1      63.413   9.393   5.475  1.00  0.00     0.030 A 
HETATM   12  C   UNL     1      61.805  11.558   1.992  1.00  0.00     0.049 C 
ENDROOT
BRANCH  10  13
HETATM   13  N   UNL     1      63.902   7.313   6.620  1.00  0.00    -0.399 N 
HETATM   14  H   UNL     1      63.616   7.646   7.501  1.00  0.00     0.156 HD
HETATM   15  H   UNL     1      64.450   6.498   6.554  1.00  0.00     0.156 HD
ENDBRANCH  10  13
TORSDOF 1
ENDMDL
MODEL 7
REMARK VINA RESULT:      -4.7      2.469      3.714
REMARK  1 active torsions:
REMARK  status: ('A' for Active; 'I' for Inactive)
REMARK    1  A    between atoms: C_10  and  N_12 
ROOT
HETATM    1  C   UNL     1      62.294   9.052   3.120  1.00  0.00     0.092 A 
HETATM    2  C   UNL     1      64.225   8.033   4.267  1.00  0.00    -0.043 A 
HETATM    3  O   UNL     1      62.274  10.089   4.074  1.00  0.00    -0.275 OA
HETATM    4  C   UNL     1      63.154  10.091   5.142  1.00  0.00     0.288 A 
HETATM    5  C   UNL     1      63.231   8.020   3.186  1.00  0.00     0.004 A 
HETATM    6  C   UNL     1      64.157   9.015   5.179  1.00  0.00     0.090 A 
HETATM    7  C   UNL     1      61.305   9.100   2.132  1.00  0.00     0.067 A 
HETATM    8  C   UNL     1      63.140   7.005   2.229  1.00  0.00     0.017 A 
HETATM    9  O   UNL     1      63.122  10.945   6.018  1.00  0.00    -0.260 OA
HETATM   10  C   UNL     1      61.245   8.104   1.160  1.00  0.00     0.028 A 
HETATM   11  C   UNL     1      62.139   7.035   1.247  1.00  0.00     0.030 A 
HETATM   12  C   UNL     1      65.273   6.964   4.342  1.00  0.00     0.049 C 
ENDROOT
BRANCH  10  13
HETATM   13  N   UNL     1      60.165   8.048   0.272  1.00  0.00    -0.399 N 
HETATM   14  H   UNL     1      59.259   7.869   0.611  1.00  0.00     0.156 HD
HETATM   15  H   UNL     1      60.314   8.185  -0.692  1.00  0.00     0.156 HD
ENDBRANCH  10  13
TORSDOF 1
ENDMDL
MODEL 8
REMARK VINA RESULT:      -4.4      2.769      3.711
REMARK  1 active torsions:
REMARK  status: ('A' for Active; 'I' for Inactive)
REMARK    1  A    between atoms: C_10  and  N_12 
ROOT
HETATM    1  C   UNL     1      63.961   6.825   6.356  1.00  0.00     0.092 A 
HETATM    2  C   UNL     1      62.816   7.857   4.431  1.00  0.00    -0.043 A 
HETATM    3  O   UNL     1      62.764   6.178   6.722  1.00  0.00    -0.275 OA
HETATM    4  C   UNL     1      61.593   6.395   6.015  1.00  0.00     0.288 A 
HETATM    5  C   UNL     1      64.025   7.664   5.243  1.00  0.00     0.004 A 
HETATM    6  C   UNL     1      61.684   7.255   4.825  1.00  0.00     0.090 A 
HETATM    7  C   UNL     1      65.063   6.605   7.189  1.00  0.00     0.067 A 
HETATM    8  C   UNL     1      65.240   8.307   4.989  1.00  0.00     0.017 A 
HETATM    9  O   UNL     1      60.526   5.894   6.344  1.00  0.00    -0.260 OA
HETATM   10  C   UNL     1      66.280   7.220   6.907  1.00  0.00     0.028 A 
HETATM   11  C   UNL     1      66.344   8.107   5.830  1.00  0.00     0.030 A 
HETATM   12  C   UNL     1      62.862   8.717   3.203  1.00  0.00     0.049 C 
ENDROOT
BRANCH  10  13
HETATM   13  N   UNL     1      67.339   7.144   7.820  1.00  0.00    -0.399 N 
HETATM   14  H   UNL     1      67.890   6.330   7.866  1.00  0.00     0.156 HD
HETATM   15  H   UNL     1      67.530   7.904   8.415  1.00  0.00     0.156 HD
ENDBRANCH  10  13
TORSDOF 1
ENDMDL
MODEL 9
REMARK VINA RESULT:      -4.4      2.869      4.306
REMARK  1 active torsions:
REMARK  status: ('A' for Active; 'I' for Inactive)
REMARK    1  A    between atoms: C_10  and  N_12 
ROOT
HETATM    1  C   UNL     1      63.365   7.724   3.170  1.00  0.00     0.092 A 
HETATM    2  C   UNL     1      63.526   9.521   4.852  1.00  0.00    -0.043 A 
HETATM    3  O   UNL     1      64.491   7.093   3.736  1.00  0.00    -0.275 OA
HETATM    4  C   UNL     1      65.174   7.670   4.793  1.00  0.00     0.288 A 
HETATM    5  C   UNL     1      62.866   8.922   3.684  1.00  0.00     0.004 A 
HETATM    6  C   UNL     1      64.617   8.915   5.345  1.00  0.00     0.090 A 
HETATM    7  C   UNL     1      62.804   7.101   2.051  1.00  0.00     0.067 A 
HETATM    8  C   UNL     1      61.780   9.504   3.025  1.00  0.00     0.017 A 
HETATM    9  O   UNL     1      66.189   7.176   5.266  1.00  0.00    -0.260 OA
HETATM   10  C   UNL     1      61.698   7.668   1.422  1.00  0.00     0.028 A 
HETATM   11  C   UNL     1      61.224   8.896   1.889  1.00  0.00     0.030 A 
HETATM   12  C   UNL     1      62.989  10.784   5.456  1.00  0.00     0.049 C 
ENDROOT
BRANCH  10  13
HETATM   13  N   UNL     1      61.233   7.150   0.208  1.00  0.00    -0.399 N 
HETATM   14  H   UNL     1      60.690   6.330   0.200  1.00  0.00     0.156 HD
HETATM   15  H   UNL     1      61.449   7.607  -0.637  1.00  0.00     0.156 HD
ENDBRANCH  10  13
TORSDOF 1
ENDMDL
