MODEL 1
REMARK VINA RESULT:      -4.3      0.000      0.000
REMARK  1 active torsions:
REMARK  status: ('A' for Active; 'I' for Inactive)
REMARK    1  A    between atoms: C_1  and  C_7 
ROOT
HETATM    1  C   UNL     1      62.713   8.580   4.709  1.00  0.00     0.140 A 
HETATM    2  C   UNL     1      62.542   9.989   4.425  1.00  0.00     0.098 A 
HETATM    3  N   UNL     1      62.408   7.762   3.685  1.00  0.00    -0.318 N 
ATOM      4  HN  UNL     1      62.469   6.744   3.708  1.00  0.00     0.174 HD
HETATM    5  C   UNL     1      62.094  10.159   3.137  1.00  0.00     0.115 A 
HETATM    6  S   UNL     1      61.918   8.658   2.384  1.00  0.00     0.000 SA
HETATM    7 CL   UNL     1      62.849  11.263   5.528  1.00  0.00    -0.079 Cl
HETATM    8 CL   UNL     1      61.730  11.601   2.287  1.00  0.00    -0.073 Cl
ENDROOT
BRANCH   1   9
HETATM    9  C   UNL     1      63.177   8.005   5.977  1.00  0.00     0.229 C 
HETATM   10  O   UNL     1      62.466   7.615   6.894  1.00  0.00    -0.643 OA
HETATM   11  O   UNL     1      64.523   7.913   6.112  1.00  0.00    -0.643 OA
ENDBRANCH   1   9
TORSDOF 1
ENDMDL
MODEL 2
REMARK VINA RESULT:      -4.3      2.413      2.962
REMARK  1 active torsions:
REMARK  status: ('A' for Active; 'I' for Inactive)
REMARK    1  A    between atoms: C_1  and  C_7 
ROOT
HETATM    1  C   UNL     1      62.490   9.935   4.014  1.00  0.00     0.140 A 
HETATM    2  C   UNL     1      62.188  10.037   2.602  1.00  0.00     0.098 A 
HETATM    3  N   UNL     1      62.748   8.686   4.442  1.00  0.00    -0.318 N 
ATOM      4  HN  UNL     1      62.979   8.429   5.402  1.00  0.00     0.174 HD
HETATM    5  C   UNL     1      62.240   8.794   2.019  1.00  0.00     0.115 A 
HETATM    6  S   UNL     1      62.636   7.630   3.175  1.00  0.00     0.000 SA
HETATM    7 CL   UNL     1      61.818  11.490   1.774  1.00  0.00    -0.079 Cl
HETATM    8 CL   UNL     1      61.972   8.340   0.388  1.00  0.00    -0.073 Cl
ENDROOT
BRANCH   1   9
HETATM    9  C   UNL     1      62.532  11.048   4.971  1.00  0.00     0.229 C 
HETATM   10  O   UNL     1      61.974  12.130   4.844  1.00  0.00    -0.643 OA
HETATM   11  O   UNL     1      63.269  10.820   6.087  1.00  0.00    -0.643 OA
ENDBRANCH   1   9
TORSDOF 1
ENDMDL
MODEL 3
REMARK VINA RESULT:      -4.2      3.257      3.783
REMARK  1 active torsions:
REMARK  status: ('A' for Active; 'I' for Inactive)
REMARK    1  A    between atoms: C_1  and  C_7 
ROOT
HETATM    1  C   UNL     1      61.763   9.740   3.622  1.00  0.00     0.140 A 
HETATM    2  C   UNL     1      62.669   8.821   4.276  1.00  0.00     0.098 A 
HETATM    3  N   UNL     1      60.693   9.158   3.049  1.00  0.00    -0.318 N 
ATOM      4  HN  UNL     1      59.955   9.651   2.546  1.00  0.00     0.174 HD
HETATM    5  C   UNL     1      62.205   7.533   4.152  1.00  0.00     0.115 A 
HETATM    6  S   UNL     1      60.757   7.523   3.284  1.00  0.00     0.000 SA
HETATM    7 CL   UNL     1      64.110   9.266   5.088  1.00  0.00    -0.079 Cl
HETATM    8 CL   UNL     1      62.877   6.069   4.734  1.00  0.00    -0.073 Cl
ENDROOT
BRANCH   1   9
HETATM    9  C   UNL     1      61.919  11.197   3.542  1.00  0.00     0.229 C 
HETATM   10  O   UNL     1      61.959  11.972   4.489  1.00  0.00    -0.643 OA
HETATM   11  O   UNL     1      62.024  11.698   2.286  1.00  0.00    -0.643 OA
ENDBRANCH   1   9
TORSDOF 1
ENDMDL
MODEL 4
REMARK VINA RESULT:      -4.1      3.509      4.160
REMARK  1 active torsions:
REMARK  status: ('A' for Active; 'I' for Inactive)
REMARK    1  A    between atoms: C_1  and  C_7 
ROOT
HETATM    1  C   UNL     1      62.354   9.931   3.480  1.00  0.00     0.140 A 
HETATM    2  C   UNL     1      62.463   8.912   2.459  1.00  0.00     0.098 A 
HETATM    3  N   UNL     1      62.615   9.502   4.728  1.00  0.00    -0.318 N 
ATOM      4  HN  UNL     1      62.585  10.081   5.568  1.00  0.00     0.174 HD
HETATM    5  C   UNL     1      62.820   7.712   3.026  1.00  0.00     0.115 A 
HETATM    6  S   UNL     1      62.992   7.892   4.696  1.00  0.00     0.000 SA
HETATM    7 CL   UNL     1      62.189   9.158   0.785  1.00  0.00    -0.079 Cl
HETATM    8 CL   UNL     1      63.086   6.189   2.287  1.00  0.00    -0.073 Cl
ENDROOT
BRANCH   1   9
HETATM    9  C   UNL     1      61.994  11.337   3.262  1.00  0.00     0.229 C 
HETATM   10  O   UNL     1      61.854  11.886   2.177  1.00  0.00    -0.643 OA
HETATM   11  O   UNL     1      61.809  12.066   4.391  1.00  0.00    -0.643 OA
ENDBRANCH   1   9
TORSDOF 1
ENDMDL
MODEL 5
REMARK VINA RESULT:      -4.0      2.373      2.477
REMARK  1 active torsions:
REMARK  status: ('A' for Active; 'I' for Inactive)
REMARK    1  A    between atoms: C_1  and  C_7 
ROOT
HETATM    1  C   UNL     1      63.494   8.957   4.683  1.00  0.00     0.140 A 
HETATM    2  C   UNL     1      63.207   8.364   3.395  1.00  0.00     0.098 A 
HETATM    3  N   UNL     1      62.878  10.132   4.907  1.00  0.00    -0.318 N 
ATOM      4  HN  UNL     1      62.965  10.689   5.757  1.00  0.00     0.174 HD
HETATM    5  C   UNL     1      62.346   9.168   2.687  1.00  0.00     0.115 A 
HETATM    6  S   UNL     1      61.957  10.537   3.594  1.00  0.00     0.000 SA
HETATM    7 CL   UNL     1      63.844   6.878   2.828  1.00  0.00    -0.079 Cl
HETATM    8 CL   UNL     1      61.683   8.949   1.122  1.00  0.00    -0.073 Cl
ENDROOT
BRANCH   1   9
HETATM    9  C   UNL     1      64.370   8.394   5.717  1.00  0.00     0.229 C 
HETATM   10  O   UNL     1      64.113   7.440   6.439  1.00  0.00    -0.643 OA
HETATM   11  O   UNL     1      65.567   9.016   5.860  1.00  0.00    -0.643 OA
ENDBRANCH   1   9
TORSDOF 1
ENDMDL
MODEL 6
REMARK VINA RESULT:      -4.0      6.218      7.269
REMARK  1 active torsions:
REMARK  status: ('A' for Active; 'I' for Inactive)
REMARK    1  A    between atoms: C_1  and  C_7 
ROOT
HETATM    1  C   UNL     1      67.186   6.995   6.815  1.00  0.00     0.140 A 
HETATM    2  C   UNL     1      67.422   5.607   6.484  1.00  0.00     0.098 A 
HETATM    3  N   UNL     1      67.299   7.284   8.125  1.00  0.00    -0.318 N 
ATOM      4  HN  UNL     1      67.167   8.208   8.537  1.00  0.00     0.174 HD
HETATM    5  C   UNL     1      67.715   4.893   7.621  1.00  0.00     0.115 A 
HETATM    6  S   UNL     1      67.686   5.914   8.966  1.00  0.00     0.000 SA
HETATM    7 CL   UNL     1      67.348   4.942   4.906  1.00  0.00    -0.079 Cl
HETATM    8 CL   UNL     1      68.075   3.228   7.805  1.00  0.00    -0.073 Cl
ENDROOT
BRANCH   1   9
HETATM    9  C   UNL     1      66.848   8.064   5.869  1.00  0.00     0.229 C 
HETATM   10  O   UNL     1      67.407   8.287   4.803  1.00  0.00    -0.643 OA
HETATM   11  O   UNL     1      65.816   8.861   6.243  1.00  0.00    -0.643 OA
ENDBRANCH   1   9
TORSDOF 1
ENDMDL
MODEL 7
REMARK VINA RESULT:      -3.9      2.570      2.788
REMARK  1 active torsions:
REMARK  status: ('A' for Active; 'I' for Inactive)
REMARK    1  A    between atoms: C_1  and  C_7 
ROOT
HETATM    1  C   UNL     1      62.994   9.274   4.014  1.00  0.00     0.140 A 
HETATM    2  C   UNL     1      63.023   8.354   2.898  1.00  0.00     0.098 A 
HETATM    3  N   UNL     1      62.309  10.410   3.785  1.00  0.00    -0.318 N 
ATOM      4  HN  UNL     1      62.185  11.168   4.457  1.00  0.00     0.174 HD
HETATM    5  C   UNL     1      62.321   8.876   1.838  1.00  0.00     0.115 A 
HETATM    6  S   UNL     1      61.696  10.389   2.249  1.00  0.00     0.000 SA
HETATM    7 CL   UNL     1      63.816   6.835   2.891  1.00  0.00    -0.079 Cl
HETATM    8 CL   UNL     1      62.036   8.214   0.283  1.00  0.00    -0.073 Cl
ENDROOT
BRANCH   1   9
HETATM    9  C   UNL     1      63.630   9.068   5.321  1.00  0.00     0.229 C 
HETATM   10  O   UNL     1      64.758   9.421   5.637  1.00  0.00    -0.643 OA
HETATM   11  O   UNL     1      62.867   8.421   6.238  1.00  0.00    -0.643 OA
ENDBRANCH   1   9
TORSDOF 1
ENDMDL
MODEL 8
REMARK VINA RESULT:      -3.9      1.269      1.608
REMARK  1 active torsions:
REMARK  status: ('A' for Active; 'I' for Inactive)
REMARK    1  A    between atoms: C_1  and  C_7 
ROOT
HETATM    1  C   UNL     1      63.282   7.797   4.621  1.00  0.00     0.140 A 
HETATM    2  C   UNL     1      62.798   8.991   3.963  1.00  0.00     0.098 A 
HETATM    3  N   UNL     1      63.397   6.724   3.817  1.00  0.00    -0.318 N 
ATOM      4  HN  UNL     1      63.721   5.802   4.110  1.00  0.00     0.174 HD
HETATM    5  C   UNL     1      62.565   8.736   2.633  1.00  0.00     0.115 A 
HETATM    6  S   UNL     1      62.934   7.127   2.282  1.00  0.00     0.000 SA
HETATM    7 CL   UNL     1      62.548  10.505   4.725  1.00  0.00    -0.079 Cl
HETATM    8 CL   UNL     1      61.992   9.782   1.403  1.00  0.00    -0.073 Cl
ENDROOT
BRANCH   1   9
HETATM    9  C   UNL     1      63.641   7.677   6.039  1.00  0.00     0.229 C 
HETATM   10  O   UNL     1      64.773   7.560   6.489  1.00  0.00    -0.643 OA
HETATM   11  O   UNL     1      62.595   7.698   6.903  1.00  0.00    -0.643 OA
ENDBRANCH   1   9
TORSDOF 1
ENDMDL
MODEL 9
REMARK VINA RESULT:      -3.7      3.102      3.941
REMARK  1 active torsions:
REMARK  status: ('A' for Active; 'I' for Inactive)
REMARK    1  A    between atoms: C_1  and  C_7 
ROOT
HETATM    1  C   UNL     1      61.887   8.825   2.592  1.00  0.00     0.140 A 
HETATM    2  C   UNL     1      62.070  10.145   3.156  1.00  0.00     0.098 A 
HETATM    3  N   UNL     1      62.172   7.813   3.433  1.00  0.00    -0.318 N 
ATOM      4  HN  UNL     1      62.101   6.821   3.205  1.00  0.00     0.174 HD
HETATM    5  C   UNL     1      62.503  10.046   4.456  1.00  0.00     0.115 A 
HETATM    6  S   UNL     1      62.655   8.423   4.892  1.00  0.00     0.000 SA
HETATM    7 CL   UNL     1      61.789  11.618   2.328  1.00  0.00    -0.079 Cl
HETATM    8 CL   UNL     1      62.872  11.284   5.582  1.00  0.00    -0.073 Cl
ENDROOT
BRANCH   1   9
HETATM    9  C   UNL     1      61.433   8.522   1.230  1.00  0.00     0.229 C 
HETATM   10  O   UNL     1      62.073   8.696   0.201  1.00  0.00    -0.643 OA
HETATM   11  O   UNL     1      60.183   8.003   1.140  1.00  0.00    -0.643 OA
ENDBRANCH   1   9
TORSDOF 1
ENDMDL
