MODEL 1
REMARK VINA RESULT:      -4.7      0.000      0.000
REMARK  1 active torsions:
REMARK  status: ('A' for Active; 'I' for Inactive)
REMARK    1  A    between atoms: N_7  and  O_11 
ROOT
HETATM    1  N   UNL     1      63.452   7.450   3.718  1.00  0.00    -0.066 N 
HETATM    2  C   UNL     1      62.089   7.925   4.149  1.00  0.00     0.193 C 
HETATM    3  C   UNL     1      64.274   7.752   4.852  1.00  0.00     0.193 C 
HETATM    4  C   UNL     1      63.374  10.066   5.047  1.00  0.00     0.013 C 
HETATM    5  C   UNL     1      62.154   9.487   4.265  1.00  0.00     0.087 C 
HETATM    6  C   UNL     1      64.613   9.210   5.123  1.00  0.00     0.087 C 
HETATM    7  N   UNL     1      63.352  11.120   5.762  1.00  0.00    -0.277 N 
ATOM      8  HN  UNL     1      62.526  11.717   5.778  1.00  0.00     0.193 HD
HETATM    9  C   UNL     1      61.891   7.260   5.501  1.00  0.00     0.036 C 
HETATM   10  C   UNL     1      63.308   7.306   6.081  1.00  0.00     0.036 C 
HETATM   11  C   UNL     1      64.023   6.143   3.185  1.00  0.00     0.270 C 
HETATM   12  H   UNL     1      63.397   7.876   2.792  1.00  0.00     0.280 HD
ENDROOT
BRANCH   7  13
HETATM   13  O   UNL     1      64.424  11.428   6.486  1.00  0.00    -0.290 OA
HETATM   14  H   UNL     1      64.758  12.304   6.480  1.00  0.00     0.244 HD
ENDBRANCH   7  13
TORSDOF 1
ENDMDL
MODEL 2
REMARK VINA RESULT:      -4.2      2.298      2.894
REMARK  1 active torsions:
REMARK  status: ('A' for Active; 'I' for Inactive)
REMARK    1  A    between atoms: N_7  and  O_11 
ROOT
HETATM    1  N   UNL     1      62.645   7.428   2.513  1.00  0.00    -0.066 N 
HETATM    2  C   UNL     1      61.684   7.956   1.479  1.00  0.00     0.193 C 
HETATM    3  C   UNL     1      62.199   8.057   3.721  1.00  0.00     0.193 C 
HETATM    4  C   UNL     1      62.074  10.303   2.653  1.00  0.00     0.013 C 
HETATM    5  C   UNL     1      61.962   9.491   1.325  1.00  0.00     0.087 C 
HETATM    6  C   UNL     1      62.467   9.545   3.895  1.00  0.00     0.087 C 
HETATM    7  N   UNL     1      61.700  11.512   2.805  1.00  0.00    -0.277 N 
ATOM      8  HN  UNL     1      61.388  12.062   2.006  1.00  0.00     0.193 HD
HETATM    9  C   UNL     1      60.320   7.680   2.088  1.00  0.00     0.036 C 
HETATM   10  C   UNL     1      60.585   7.932   3.575  1.00  0.00     0.036 C 
HETATM   11  C   UNL     1      63.098   6.045   2.962  1.00  0.00     0.270 C 
HETATM   12  H   UNL     1      63.474   7.582   1.939  1.00  0.00     0.280 HD
ENDROOT
BRANCH   7  13
HETATM   13  O   UNL     1      61.724  12.044   4.024  1.00  0.00    -0.290 OA
HETATM   14  H   UNL     1      62.349  11.743   4.654  1.00  0.00     0.244 HD
ENDBRANCH   7  13
TORSDOF 1
ENDMDL
MODEL 3
REMARK VINA RESULT:      -4.2      2.152      2.984
REMARK  1 active torsions:
REMARK  status: ('A' for Active; 'I' for Inactive)
REMARK    1  A    between atoms: N_7  and  O_11 
ROOT
HETATM    1  N   UNL     1      62.210   7.639   5.274  1.00  0.00    -0.066 N 
HETATM    2  C   UNL     1      63.414   8.535   5.402  1.00  0.00     0.193 C 
HETATM    3  C   UNL     1      61.863   7.759   3.888  1.00  0.00     0.193 C 
HETATM    4  C   UNL     1      62.009  10.244   3.938  1.00  0.00     0.013 C 
HETATM    5  C   UNL     1      62.926  10.008   5.178  1.00  0.00     0.087 C 
HETATM    6  C   UNL     1      61.233   9.062   3.418  1.00  0.00     0.087 C 
HETATM    7  N   UNL     1      61.993  11.305   3.232  1.00  0.00    -0.277 N 
ATOM      8  HN  UNL     1      62.530  12.125   3.515  1.00  0.00     0.193 HD
HETATM    9  C   UNL     1      64.331   8.061   4.287  1.00  0.00     0.036 C 
HETATM   10  C   UNL     1      63.326   7.718   3.183  1.00  0.00     0.036 C 
HETATM   11  C   UNL     1      61.903   6.185   5.606  1.00  0.00     0.270 C 
HETATM   12  H   UNL     1      61.755   7.993   6.116  1.00  0.00     0.280 HD
ENDROOT
BRANCH   7  13
HETATM   13  O   UNL     1      61.264  11.326   2.120  1.00  0.00    -0.290 OA
HETATM   14  H   UNL     1      60.996  12.144   1.750  1.00  0.00     0.244 HD
ENDBRANCH   7  13
TORSDOF 1
ENDMDL
MODEL 4
REMARK VINA RESULT:      -4.2     11.963     13.110
REMARK  1 active torsions:
REMARK  status: ('A' for Active; 'I' for Inactive)
REMARK    1  A    between atoms: N_7  and  O_11 
ROOT
HETATM    1  N   UNL     1      57.691   0.522  12.167  1.00  0.00    -0.066 N 
HETATM    2  C   UNL     1      57.472  -0.223  13.458  1.00  0.00     0.193 C 
HETATM    3  C   UNL     1      57.767   1.889  12.591  1.00  0.00     0.193 C 
HETATM    4  C   UNL     1      55.722   1.697  13.999  1.00  0.00     0.013 C 
HETATM    5  C   UNL     1      56.051   0.171  13.989  1.00  0.00     0.087 C 
HETATM    6  C   UNL     1      56.483   2.573  13.037  1.00  0.00     0.087 C 
HETATM    7  N   UNL     1      54.992   2.282  14.864  1.00  0.00    -0.277 N 
ATOM      8  HN  UNL     1      54.483   1.742  15.564  1.00  0.00     0.193 HD
HETATM    9  C   UNL     1      58.582   0.292  14.359  1.00  0.00     0.036 C 
HETATM   10  C   UNL     1      58.668   1.762  13.937  1.00  0.00     0.036 C 
HETATM   11  C   UNL     1      58.693   0.434  11.024  1.00  0.00     0.270 C 
HETATM   12  H   UNL     1      56.969   0.014  11.656  1.00  0.00     0.280 HD
ENDROOT
BRANCH   7  13
HETATM   13  O   UNL     1      54.903   3.609  14.838  1.00  0.00    -0.290 OA
HETATM   14  H   UNL     1      54.706   4.081  15.623  1.00  0.00     0.244 HD
ENDBRANCH   7  13
TORSDOF 1
ENDMDL
MODEL 5
REMARK VINA RESULT:      -4.0      5.476      6.511
REMARK  1 active torsions:
REMARK  status: ('A' for Active; 'I' for Inactive)
REMARK    1  A    between atoms: N_7  and  O_11 
ROOT
HETATM    1  N   UNL     1      67.736   6.912   6.602  1.00  0.00    -0.066 N 
HETATM    2  C   UNL     1      66.803   7.035   7.778  1.00  0.00     0.193 C 
HETATM    3  C   UNL     1      67.463   5.595   6.108  1.00  0.00     0.193 C 
HETATM    4  C   UNL     1      67.607   4.577   8.376  1.00  0.00     0.013 C 
HETATM    5  C   UNL     1      67.294   6.025   8.871  1.00  0.00     0.087 C 
HETATM    6  C   UNL     1      67.959   4.407   6.920  1.00  0.00     0.087 C 
HETATM    7  N   UNL     1      67.426   3.516   9.057  1.00  0.00    -0.277 N 
ATOM      8  HN  UNL     1      67.150   3.570  10.038  1.00  0.00     0.193 HD
HETATM    9  C   UNL     1      65.452   6.642   7.204  1.00  0.00     0.036 C 
HETATM   10  C   UNL     1      65.843   5.536   6.218  1.00  0.00     0.036 C 
HETATM   11  C   UNL     1      68.005   7.729   5.346  1.00  0.00     0.270 C 
HETATM   12  H   UNL     1      68.542   7.292   7.098  1.00  0.00     0.280 HD
ENDROOT
BRANCH   7  13
HETATM   13  O   UNL     1      67.603   2.337   8.469  1.00  0.00    -0.290 OA
HETATM   14  H   UNL     1      68.292   1.770   8.753  1.00  0.00     0.244 HD
ENDBRANCH   7  13
TORSDOF 1
ENDMDL
MODEL 6
REMARK VINA RESULT:      -3.7      3.643      4.612
REMARK  1 active torsions:
REMARK  status: ('A' for Active; 'I' for Inactive)
REMARK    1  A    between atoms: N_7  and  O_11 
ROOT
HETATM    1  N   UNL     1      67.525   5.850   7.040  1.00  0.00    -0.066 N 
HETATM    2  C   UNL     1      67.833   6.470   5.703  1.00  0.00     0.193 C 
HETATM    3  C   UNL     1      66.119   5.586   6.958  1.00  0.00     0.193 C 
HETATM    4  C   UNL     1      65.613   7.868   6.100  1.00  0.00     0.013 C 
HETATM    5  C   UNL     1      67.109   7.860   5.655  1.00  0.00     0.087 C 
HETATM    6  C   UNL     1      65.163   6.768   7.027  1.00  0.00     0.087 C 
HETATM    7  N   UNL     1      64.710   8.624   5.615  1.00  0.00    -0.277 N 
ATOM      8  HN  UNL     1      64.951   9.362   4.954  1.00  0.00     0.193 HD
HETATM    9  C   UNL     1      67.244   5.484   4.708  1.00  0.00     0.036 C 
HETATM   10  C   UNL     1      65.982   5.019   5.441  1.00  0.00     0.036 C 
HETATM   11  C   UNL     1      68.075   4.676   7.840  1.00  0.00     0.270 C 
HETATM   12  H   UNL     1      68.051   6.541   7.574  1.00  0.00     0.280 HD
ENDROOT
BRANCH   7  13
HETATM   13  O   UNL     1      63.446   8.436   5.985  1.00  0.00    -0.290 OA
HETATM   14  H   UNL     1      62.840   8.035   5.395  1.00  0.00     0.244 HD
ENDBRANCH   7  13
TORSDOF 1
ENDMDL
MODEL 7
REMARK VINA RESULT:      -3.7      2.600      3.638
REMARK  1 active torsions:
REMARK  status: ('A' for Active; 'I' for Inactive)
REMARK    1  A    between atoms: N_7  and  O_11 
ROOT
HETATM    1  N   UNL     1      65.320   7.471   6.762  1.00  0.00    -0.066 N 
HETATM    2  C   UNL     1      65.573   8.184   5.460  1.00  0.00     0.193 C 
HETATM    3  C   UNL     1      64.383   6.450   6.397  1.00  0.00     0.193 C 
HETATM    4  C   UNL     1      62.942   8.047   5.142  1.00  0.00     0.013 C 
HETATM    5  C   UNL     1      64.242   8.908   5.058  1.00  0.00     0.087 C 
HETATM    6  C   UNL     1      62.954   6.869   6.082  1.00  0.00     0.087 C 
HETATM    7  N   UNL     1      61.939   8.158   4.364  1.00  0.00    -0.277 N 
ATOM      8  HN  UNL     1      61.894   8.915   3.682  1.00  0.00     0.193 HD
HETATM    9  C   UNL     1      65.924   7.060   4.500  1.00  0.00     0.036 C 
HETATM   10  C   UNL     1      64.996   5.940   4.981  1.00  0.00     0.036 C 
HETATM   11  C   UNL     1      66.194   6.809   7.819  1.00  0.00     0.270 C 
HETATM   12  H   UNL     1      65.207   8.328   7.303  1.00  0.00     0.280 HD
ENDROOT
BRANCH   7  13
HETATM   13  O   UNL     1      60.952   7.271   4.457  1.00  0.00    -0.290 OA
HETATM   14  H   UNL     1      60.937   6.526   3.890  1.00  0.00     0.244 HD
ENDBRANCH   7  13
TORSDOF 1
ENDMDL
MODEL 8
REMARK VINA RESULT:      -3.6      1.816      2.795
REMARK  1 active torsions:
REMARK  status: ('A' for Active; 'I' for Inactive)
REMARK    1  A    between atoms: N_7  and  O_11 
ROOT
HETATM    1  N   UNL     1      61.568   7.564   4.141  1.00  0.00    -0.066 N 
HETATM    2  C   UNL     1      62.178   6.263   4.592  1.00  0.00     0.193 C 
HETATM    3  C   UNL     1      62.706   8.330   3.727  1.00  0.00     0.193 C 
HETATM    4  C   UNL     1      63.978   7.794   5.800  1.00  0.00     0.013 C 
HETATM    5  C   UNL     1      63.020   6.564   5.880  1.00  0.00     0.087 C 
HETATM    6  C   UNL     1      63.635   8.872   4.804  1.00  0.00     0.087 C 
HETATM    7  N   UNL     1      65.107   7.880   6.383  1.00  0.00    -0.277 N 
ATOM      8  HN  UNL     1      65.408   7.160   7.040  1.00  0.00     0.193 HD
HETATM    9  C   UNL     1      63.054   5.855   3.419  1.00  0.00     0.036 C 
HETATM   10  C   UNL     1      63.581   7.210   2.938  1.00  0.00     0.036 C 
HETATM   11  C   UNL     1      60.477   7.963   3.156  1.00  0.00     0.270 C 
HETATM   12  H   UNL     1      60.955   7.652   4.952  1.00  0.00     0.280 HD
ENDROOT
BRANCH   7  13
HETATM   13  O   UNL     1      65.887   8.926   6.122  1.00  0.00    -0.290 OA
HETATM   14  H   UNL     1      65.882   9.668   6.693  1.00  0.00     0.244 HD
ENDBRANCH   7  13
TORSDOF 1
ENDMDL
MODEL 9
REMARK VINA RESULT:      -3.6      3.724      4.557
REMARK  1 active torsions:
REMARK  status: ('A' for Active; 'I' for Inactive)
REMARK    1  A    between atoms: N_7  and  O_11 
ROOT
HETATM    1  N   UNL     1      66.638   4.337   5.591  1.00  0.00    -0.066 N 
HETATM    2  C   UNL     1      65.907   4.467   6.902  1.00  0.00     0.193 C 
HETATM    3  C   UNL     1      67.339   5.583   5.486  1.00  0.00     0.193 C 
HETATM    4  C   UNL     1      65.315   6.914   6.064  1.00  0.00     0.013 C 
HETATM    5  C   UNL     1      64.825   5.587   6.724  1.00  0.00     0.087 C 
HETATM    6  C   UNL     1      66.531   6.835   5.178  1.00  0.00     0.087 C 
HETATM    7  N   UNL     1      64.875   8.077   6.345  1.00  0.00    -0.277 N 
ATOM      8  HN  UNL     1      64.078   8.192   6.969  1.00  0.00     0.193 HD
HETATM    9  C   UNL     1      66.997   4.875   7.879  1.00  0.00     0.036 C 
HETATM   10  C   UNL     1      67.868   5.786   7.009  1.00  0.00     0.036 C 
HETATM   11  C   UNL     1      67.597   3.322   4.983  1.00  0.00     0.270 C 
HETATM   12  H   UNL     1      65.831   3.973   5.084  1.00  0.00     0.280 HD
ENDROOT
BRANCH   7  13
HETATM   13  O   UNL     1      65.474   9.137   5.809  1.00  0.00    -0.290 OA
HETATM   14  H   UNL     1      64.961   9.850   5.485  1.00  0.00     0.244 HD
ENDBRANCH   7  13
TORSDOF 1
ENDMDL
