MODEL 1
REMARK VINA RESULT:      -5.2      0.000      0.000
REMARK  2 active torsions:
REMARK  status: ('A' for Active; 'I' for Inactive)
REMARK    1  A    between atoms: C_1  and  C_4 
REMARK    2  A    between atoms: C_3  and  O_5 
ROOT
HETATM    1  C   UNL     1      62.530   9.064   3.362  1.00  0.00    -0.021 A 
HETATM    2  C   UNL     1      62.270   9.380   2.006  1.00  0.00     0.074 A 
HETATM    3  C   UNL     1      62.366  10.112   4.296  1.00  0.00     0.010 A 
HETATM    4  C   UNL     1      61.874  10.684   1.643  1.00  0.00     0.037 A 
HETATM    5  C   UNL     1      61.982  11.406   3.920  1.00  0.00     0.001 A 
HETATM    6  C   UNL     1      61.742  11.693   2.589  1.00  0.00     0.003 A 
ENDROOT
BRANCH   1   7
HETATM    7  C   UNL     1      63.017   7.696   3.848  1.00  0.00     0.024 C 
HETATM    8  C   UNL     1      62.155   7.052   4.951  1.00  0.00     0.037 C 
HETATM    9  C   UNL     1      62.604   7.348   6.379  1.00  0.00     0.233 C 
HETATM   10  N   UNL     1      64.032   7.119   6.587  1.00  0.00    -0.075 N 
HETATM   11  C   UNL     1      64.837   7.903   5.661  1.00  0.00     0.233 C 
HETATM   12  H   UNL     1      64.275   7.381   7.542  1.00  0.00     0.277 HD
HETATM   13  H   UNL     1      64.225   6.130   6.423  1.00  0.00     0.277 HD
HETATM   14  C   UNL     1      64.514   7.555   4.210  1.00  0.00     0.037 C 
ENDBRANCH   1   7
BRANCH   2  15
HETATM   15  O   UNL     1      62.246   8.542   0.923  1.00  0.00    -0.355 OA
HETATM   16  C   UNL     1      61.026   7.935   0.530  1.00  0.00     0.210 C 
ENDBRANCH   2  15
TORSDOF 2
ENDMDL
MODEL 2
REMARK VINA RESULT:      -5.2      1.418      2.871
REMARK  2 active torsions:
REMARK  status: ('A' for Active; 'I' for Inactive)
REMARK    1  A    between atoms: C_1  and  C_4 
REMARK    2  A    between atoms: C_3  and  O_5 
ROOT
HETATM    1  C   UNL     1      62.785   8.597   3.528  1.00  0.00    -0.021 A 
HETATM    2  C   UNL     1      62.146   9.562   2.713  1.00  0.00     0.074 A 
HETATM    3  C   UNL     1      63.126   7.374   2.907  1.00  0.00     0.010 A 
HETATM    4  C   UNL     1      61.875   9.283   1.357  1.00  0.00     0.037 A 
HETATM    5  C   UNL     1      62.842   7.105   1.561  1.00  0.00     0.001 A 
HETATM    6  C   UNL     1      62.210   8.060   0.787  1.00  0.00     0.003 A 
ENDROOT
BRANCH   1   7
HETATM    7  C   UNL     1      63.071   8.785   5.021  1.00  0.00     0.024 C 
HETATM    8  C   UNL     1      64.516   9.200   5.360  1.00  0.00     0.037 C 
HETATM    9  C   UNL     1      65.467   8.046   5.663  1.00  0.00     0.233 C 
HETATM   10  N   UNL     1      64.921   7.097   6.631  1.00  0.00    -0.075 N 
HETATM   11  C   UNL     1      63.643   6.558   6.186  1.00  0.00     0.233 C 
HETATM   12  H   UNL     1      65.581   6.329   6.752  1.00  0.00     0.277 HD
HETATM   13  H   UNL     1      64.773   7.588   7.513  1.00  0.00     0.277 HD
HETATM   14  C   UNL     1      62.612   7.666   5.984  1.00  0.00     0.037 C 
ENDBRANCH   1   7
BRANCH   2  15
HETATM   15  O   UNL     1      61.807  10.853   3.022  1.00  0.00    -0.355 OA
HETATM   16  C   UNL     1      61.764  11.834   1.999  1.00  0.00     0.210 C 
ENDBRANCH   2  15
TORSDOF 2
ENDMDL
MODEL 3
REMARK VINA RESULT:      -5.1      1.478      2.558
REMARK  2 active torsions:
REMARK  status: ('A' for Active; 'I' for Inactive)
REMARK    1  A    between atoms: C_1  and  C_4 
REMARK    2  A    between atoms: C_3  and  O_5 
ROOT
HETATM    1  C   UNL     1      62.893   8.453   3.210  1.00  0.00    -0.021 A 
HETATM    2  C   UNL     1      62.594   9.643   3.916  1.00  0.00     0.074 A 
HETATM    3  C   UNL     1      62.588   8.446   1.830  1.00  0.00     0.010 A 
HETATM    4  C   UNL     1      62.019  10.743   3.247  1.00  0.00     0.037 A 
HETATM    5  C   UNL     1      62.007   9.543   1.179  1.00  0.00     0.001 A 
HETATM    6  C   UNL     1      61.717  10.692   1.892  1.00  0.00     0.003 A 
ENDROOT
BRANCH   1   7
HETATM    7  C   UNL     1      63.465   7.189   3.857  1.00  0.00     0.024 C 
HETATM    8  C   UNL     1      62.594   6.576   4.971  1.00  0.00     0.037 C 
HETATM    9  C   UNL     1      62.924   7.047   6.384  1.00  0.00     0.233 C 
HETATM   10  N   UNL     1      64.350   6.972   6.692  1.00  0.00    -0.075 N 
HETATM   11  C   UNL     1      65.142   7.735   5.737  1.00  0.00     0.233 C 
HETATM   12  H   UNL     1      64.508   7.345   7.628  1.00  0.00     0.277 HD
HETATM   13  H   UNL     1      64.639   5.994   6.639  1.00  0.00     0.277 HD
HETATM   14  C   UNL     1      64.943   7.223   4.313  1.00  0.00     0.037 C 
ENDBRANCH   1   7
BRANCH   2  15
HETATM   15  O   UNL     1      62.880   9.958   5.219  1.00  0.00    -0.355 OA
HETATM   16  C   UNL     1      62.825  11.310   5.644  1.00  0.00     0.210 C 
ENDBRANCH   2  15
TORSDOF 2
ENDMDL
MODEL 4
REMARK VINA RESULT:      -4.9      2.673      4.332
REMARK  2 active torsions:
REMARK  status: ('A' for Active; 'I' for Inactive)
REMARK    1  A    between atoms: C_1  and  C_4 
REMARK    2  A    between atoms: C_3  and  O_5 
ROOT
HETATM    1  C   UNL     1      65.131   7.919   4.670  1.00  0.00    -0.021 A 
HETATM    2  C   UNL     1      64.143   8.912   4.872  1.00  0.00     0.074 A 
HETATM    3  C   UNL     1      64.843   6.931   3.701  1.00  0.00     0.010 A 
HETATM    4  C   UNL     1      62.943   8.885   4.130  1.00  0.00     0.037 A 
HETATM    5  C   UNL     1      63.641   6.909   2.979  1.00  0.00     0.001 A 
HETATM    6  C   UNL     1      62.688   7.885   3.199  1.00  0.00     0.003 A 
ENDROOT
BRANCH   1   7
HETATM    7  C   UNL     1      66.438   7.832   5.463  1.00  0.00     0.024 C 
HETATM    8  C   UNL     1      67.515   6.920   4.845  1.00  0.00     0.037 C 
HETATM    9  C   UNL     1      67.506   5.478   5.343  1.00  0.00     0.233 C 
HETATM   10  N   UNL     1      67.465   5.377   6.800  1.00  0.00    -0.075 N 
HETATM   11  C   UNL     1      66.313   6.080   7.349  1.00  0.00     0.233 C 
HETATM   12  H   UNL     1      67.411   4.394   7.064  1.00  0.00     0.277 HD
HETATM   13  H   UNL     1      68.312   5.807   7.174  1.00  0.00     0.277 HD
HETATM   14  C   UNL     1      66.338   7.562   6.982  1.00  0.00     0.037 C 
ENDBRANCH   1   7
BRANCH   2  15
HETATM   15  O   UNL     1      64.205  10.033   5.658  1.00  0.00    -0.355 OA
HETATM   16  C   UNL     1      63.125  10.951   5.661  1.00  0.00     0.210 C 
ENDBRANCH   2  15
TORSDOF 2
ENDMDL
MODEL 5
REMARK VINA RESULT:      -4.9      2.520      4.173
REMARK  2 active torsions:
REMARK  status: ('A' for Active; 'I' for Inactive)
REMARK    1  A    between atoms: C_1  and  C_4 
REMARK    2  A    between atoms: C_3  and  O_5 
ROOT
HETATM    1  C   UNL     1      62.609   9.033   2.996  1.00  0.00    -0.021 A 
HETATM    2  C   UNL     1      63.259   8.899   4.246  1.00  0.00     0.074 A 
HETATM    3  C   UNL     1      61.943  10.258   2.760  1.00  0.00     0.010 A 
HETATM    4  C   UNL     1      63.222   9.951   5.185  1.00  0.00     0.037 A 
HETATM    5  C   UNL     1      61.904  11.291   3.706  1.00  0.00     0.001 A 
HETATM    6  C   UNL     1      62.541  11.134   4.924  1.00  0.00     0.003 A 
ENDROOT
BRANCH   1   7
HETATM    7  C   UNL     1      62.546   7.930   1.936  1.00  0.00     0.024 C 
HETATM    8  C   UNL     1      61.861   8.334   0.616  1.00  0.00     0.037 C 
HETATM    9  C   UNL     1      60.368   8.030   0.541  1.00  0.00     0.233 C 
HETATM   10  N   UNL     1      60.043   6.661   0.937  1.00  0.00    -0.075 N 
HETATM   11  C   UNL     1      60.525   6.368   2.281  1.00  0.00     0.233 C 
HETATM   12  H   UNL     1      59.031   6.539   0.913  1.00  0.00     0.277 HD
HETATM   13  H   UNL     1      60.501   6.022   0.286  1.00  0.00     0.277 HD
HETATM   14  C   UNL     1      62.038   6.538   2.379  1.00  0.00     0.037 C 
ENDBRANCH   1   7
BRANCH   2  15
HETATM   15  O   UNL     1      64.058   7.878   4.688  1.00  0.00    -0.355 OA
HETATM   16  C   UNL     1      65.339   8.167   5.222  1.00  0.00     0.210 C 
ENDBRANCH   2  15
TORSDOF 2
ENDMDL
MODEL 6
REMARK VINA RESULT:      -4.8      1.189      1.943
REMARK  2 active torsions:
REMARK  status: ('A' for Active; 'I' for Inactive)
REMARK    1  A    between atoms: C_1  and  C_4 
REMARK    2  A    between atoms: C_3  and  O_5 
ROOT
HETATM    1  C   UNL     1      62.810   9.345   4.105  1.00  0.00    -0.021 A 
HETATM    2  C   UNL     1      62.699   8.745   2.827  1.00  0.00     0.074 A 
HETATM    3  C   UNL     1      62.354  10.678   4.216  1.00  0.00     0.010 A 
HETATM    4  C   UNL     1      62.160   9.470   1.744  1.00  0.00     0.037 A 
HETATM    5  C   UNL     1      61.831  11.391   3.129  1.00  0.00     0.001 A 
HETATM    6  C   UNL     1      61.740  10.786   1.889  1.00  0.00     0.003 A 
ENDROOT
BRANCH   1   7
HETATM    7  C   UNL     1      63.430   8.660   5.326  1.00  0.00     0.024 C 
HETATM    8  C   UNL     1      64.929   8.330   5.196  1.00  0.00     0.037 C 
HETATM    9  C   UNL     1      65.241   6.932   4.670  1.00  0.00     0.233 C 
HETATM   10  N   UNL     1      64.501   5.882   5.367  1.00  0.00    -0.075 N 
HETATM   11  C   UNL     1      63.064   6.108   5.297  1.00  0.00     0.233 C 
HETATM   12  H   UNL     1      64.717   4.983   4.937  1.00  0.00     0.277 HD
HETATM   13  H   UNL     1      64.781   5.890   6.348  1.00  0.00     0.277 HD
HETATM   14  C   UNL     1      62.680   7.446   5.925  1.00  0.00     0.037 C 
ENDBRANCH   1   7
BRANCH   2  15
HETATM   15  O   UNL     1      62.959   7.449   2.467  1.00  0.00    -0.355 OA
HETATM   16  C   UNL     1      62.769   7.041   1.122  1.00  0.00     0.210 C 
ENDBRANCH   2  15
TORSDOF 2
ENDMDL
MODEL 7
REMARK VINA RESULT:      -4.6      2.092      3.335
REMARK  2 active torsions:
REMARK  status: ('A' for Active; 'I' for Inactive)
REMARK    1  A    between atoms: C_1  and  C_4 
REMARK    2  A    between atoms: C_3  and  O_5 
ROOT
HETATM    1  C   UNL     1      62.742   8.456   3.435  1.00  0.00    -0.021 A 
HETATM    2  C   UNL     1      62.554   9.649   4.173  1.00  0.00     0.074 A 
HETATM    3  C   UNL     1      62.457   8.519   2.052  1.00  0.00     0.010 A 
HETATM    4  C   UNL     1      62.102  10.821   3.530  1.00  0.00     0.037 A 
HETATM    5  C   UNL     1      61.999   9.687   1.428  1.00  0.00     0.001 A 
HETATM    6  C   UNL     1      61.815  10.838   2.171  1.00  0.00     0.003 A 
ENDROOT
BRANCH   1   7
HETATM    7  C   UNL     1      63.175   7.122   4.051  1.00  0.00     0.024 C 
HETATM    8  C   UNL     1      64.544   7.145   4.757  1.00  0.00     0.037 C 
HETATM    9  C   UNL     1      65.730   6.746   3.884  1.00  0.00     0.233 C 
HETATM   10  N   UNL     1      65.506   5.502   3.152  1.00  0.00    -0.075 N 
HETATM   11  C   UNL     1      64.309   5.580   2.325  1.00  0.00     0.233 C 
HETATM   12  H   UNL     1      66.311   5.319   2.554  1.00  0.00     0.277 HD
HETATM   13  H   UNL     1      65.380   4.749   3.829  1.00  0.00     0.277 HD
HETATM   14  C   UNL     1      63.067   5.857   3.169  1.00  0.00     0.037 C 
ENDBRANCH   1   7
BRANCH   2  15
HETATM   15  O   UNL     1      62.852   9.897   5.488  1.00  0.00    -0.355 OA
HETATM   16  C   UNL     1      63.087  11.228   5.917  1.00  0.00     0.210 C 
ENDBRANCH   2  15
TORSDOF 2
ENDMDL
MODEL 8
REMARK VINA RESULT:      -4.4      1.352      2.132
REMARK  2 active torsions:
REMARK  status: ('A' for Active; 'I' for Inactive)
REMARK    1  A    between atoms: C_1  and  C_4 
REMARK    2  A    between atoms: C_3  and  O_5 
ROOT
HETATM    1  C   UNL     1      62.558   8.960   3.580  1.00  0.00    -0.021 A 
HETATM    2  C   UNL     1      62.431   8.912   2.171  1.00  0.00     0.074 A 
HETATM    3  C   UNL     1      62.268  10.199   4.197  1.00  0.00     0.010 A 
HETATM    4  C   UNL     1      62.036  10.059   1.452  1.00  0.00     0.037 A 
HETATM    5  C   UNL     1      61.887  11.334   3.469  1.00  0.00     0.001 A 
HETATM    6  C   UNL     1      61.777  11.264   2.092  1.00  0.00     0.003 A 
ENDROOT
BRANCH   1   7
HETATM    7  C   UNL     1      63.033   7.787   4.442  1.00  0.00     0.024 C 
HETATM    8  C   UNL     1      64.434   7.248   4.095  1.00  0.00     0.037 C 
HETATM    9  C   UNL     1      64.455   6.092   3.099  1.00  0.00     0.233 C 
HETATM   10  N   UNL     1      63.521   5.023   3.445  1.00  0.00    -0.075 N 
HETATM   11  C   UNL     1      62.159   5.525   3.566  1.00  0.00     0.233 C 
HETATM   12  H   UNL     1      63.549   4.309   2.718  1.00  0.00     0.277 HD
HETATM   13  H   UNL     1      63.801   4.633   4.346  1.00  0.00     0.277 HD
HETATM   14  C   UNL     1      62.056   6.604   4.642  1.00  0.00     0.037 C 
ENDBRANCH   1   7
BRANCH   2  15
HETATM   15  O   UNL     1      62.543   7.828   1.340  1.00  0.00    -0.355 OA
HETATM   16  C   UNL     1      61.426   7.411   0.573  1.00  0.00     0.210 C 
ENDBRANCH   2  15
TORSDOF 2
ENDMDL
MODEL 9
REMARK VINA RESULT:      -4.2     11.173     13.653
REMARK  2 active torsions:
REMARK  status: ('A' for Active; 'I' for Inactive)
REMARK    1  A    between atoms: C_1  and  C_4 
REMARK    2  A    between atoms: C_3  and  O_5 
ROOT
HETATM    1  C   UNL     1      56.620   1.788  12.888  1.00  0.00    -0.021 A 
HETATM    2  C   UNL     1      57.575   2.342  12.002  1.00  0.00     0.074 A 
HETATM    3  C   UNL     1      57.127   1.153  14.045  1.00  0.00     0.010 A 
HETATM    4  C   UNL     1      58.953   2.245  12.289  1.00  0.00     0.037 A 
HETATM    5  C   UNL     1      58.499   1.054  14.312  1.00  0.00     0.001 A 
HETATM    6  C   UNL     1      59.413   1.596  13.428  1.00  0.00     0.003 A 
ENDROOT
BRANCH   1   7
HETATM    7  C   UNL     1      55.109   1.794  12.638  1.00  0.00     0.024 C 
HETATM    8  C   UNL     1      54.463   3.192  12.587  1.00  0.00     0.037 C 
HETATM    9  C   UNL     1      53.909   3.699  13.915  1.00  0.00     0.233 C 
HETATM   10  N   UNL     1      53.058   2.721  14.589  1.00  0.00    -0.075 N 
HETATM   11  C   UNL     1      53.765   1.467  14.814  1.00  0.00     0.233 C 
HETATM   12  H   UNL     1      52.763   3.101  15.488  1.00  0.00     0.277 HD
HETATM   13  H   UNL     1      52.252   2.533  13.993  1.00  0.00     0.277 HD
HETATM   14  C   UNL     1      54.236   0.850  13.499  1.00  0.00     0.037 C 
ENDBRANCH   1   7
BRANCH   2  15
HETATM   15  O   UNL     1      57.361   3.096  10.879  1.00  0.00    -0.355 OA
HETATM   16  C   UNL     1      58.465   3.517  10.094  1.00  0.00     0.210 C 
ENDBRANCH   2  15
TORSDOF 2
ENDMDL
