MODEL 1
REMARK VINA RESULT:      -5.3      0.000      0.000
REMARK  2 active torsions:
REMARK  status: ('A' for Active; 'I' for Inactive)
REMARK    1  A    between atoms: C_1  and  C_3 
REMARK    2  A    between atoms: C_3  and  O_10 
ROOT
HETATM    1  C   UNL     1      63.368   9.271   4.636  1.00  0.00     0.067 A 
HETATM    2  C   UNL     1      62.896   8.945   3.351  1.00  0.00     0.058 A 
HETATM    3  N   UNL     1      63.084   7.807   2.592  1.00  0.00    -0.364 N 
HETATM    4  C   UNL     1      62.424   7.918   1.399  1.00  0.00     0.089 A 
HETATM    5  C   UNL     1      62.096   9.806   2.599  1.00  0.00    -0.007 A 
HETATM    6  C   UNL     1      61.808   9.148   1.372  1.00  0.00     0.030 A 
HETATM    7  C   UNL     1      62.995  10.522   5.158  1.00  0.00     0.020 A 
HETATM    8  C   UNL     1      62.199  11.401   4.423  1.00  0.00     0.002 A 
HETATM    9  C   UNL     1      61.748  11.056   3.144  1.00  0.00     0.014 A 
HETATM   10  H   UNL     1      63.619   7.027   2.870  1.00  0.00     0.165 HD
ENDROOT
BRANCH   1  11
HETATM   11  C   UNL     1      64.221   8.304   5.375  1.00  0.00     0.295 C 
HETATM   12  O   UNL     1      63.959   7.113   5.465  1.00  0.00    -0.259 OA
BRANCH  11  13
HETATM   13  O   UNL     1      65.297   8.926   5.913  1.00  0.00    -0.322 OA
HETATM   14  C   UNL     1      66.386   8.052   6.219  1.00  0.00     0.213 C 
ENDBRANCH  11  13
ENDBRANCH   1  11
TORSDOF 2
ENDMDL
MODEL 2
REMARK VINA RESULT:      -5.2      1.514      2.790
REMARK  2 active torsions:
REMARK  status: ('A' for Active; 'I' for Inactive)
REMARK    1  A    between atoms: C_1  and  C_3 
REMARK    2  A    between atoms: C_3  and  O_10 
ROOT
HETATM    1  C   UNL     1      64.110   8.045   4.862  1.00  0.00     0.067 A 
HETATM    2  C   UNL     1      63.381   9.240   4.717  1.00  0.00     0.058 A 
HETATM    3  N   UNL     1      63.276  10.331   5.556  1.00  0.00    -0.364 N 
HETATM    4  C   UNL     1      62.461  11.280   5.001  1.00  0.00     0.089 A 
HETATM    5  C   UNL     1      62.592   9.513   3.599  1.00  0.00    -0.007 A 
HETATM    6  C   UNL     1      62.017  10.798   3.792  1.00  0.00     0.030 A 
HETATM    7  C   UNL     1      64.023   7.110   3.816  1.00  0.00     0.020 A 
HETATM    8  C   UNL     1      63.238   7.359   2.689  1.00  0.00     0.002 A 
HETATM    9  C   UNL     1      62.516   8.553   2.572  1.00  0.00     0.014 A 
HETATM   10  H   UNL     1      63.723  10.414   6.430  1.00  0.00     0.165 HD
ENDROOT
BRANCH   1  11
HETATM   11  C   UNL     1      64.925   7.825   6.085  1.00  0.00     0.295 C 
HETATM   12  O   UNL     1      64.637   7.003   6.942  1.00  0.00    -0.259 OA
BRANCH  11  13
HETATM   13  O   UNL     1      66.002   8.648   6.099  1.00  0.00    -0.322 OA
HETATM   14  C   UNL     1      67.250   7.982   5.902  1.00  0.00     0.213 C 
ENDBRANCH  11  13
ENDBRANCH   1  11
TORSDOF 2
ENDMDL
MODEL 3
REMARK VINA RESULT:      -5.1      1.370      2.582
REMARK  2 active torsions:
REMARK  status: ('A' for Active; 'I' for Inactive)
REMARK    1  A    between atoms: C_1  and  C_3 
REMARK    2  A    between atoms: C_3  and  O_10 
ROOT
HETATM    1  C   UNL     1      63.068   8.262   4.206  1.00  0.00     0.067 A 
HETATM    2  C   UNL     1      62.566   9.435   3.613  1.00  0.00     0.058 A 
HETATM    3  N   UNL     1      62.358  10.690   4.151  1.00  0.00    -0.364 N 
HETATM    4  C   UNL     1      61.863  11.538   3.198  1.00  0.00     0.089 A 
HETATM    5  C   UNL     1      62.175   9.498   2.275  1.00  0.00    -0.007 A 
HETATM    6  C   UNL     1      61.732  10.826   2.028  1.00  0.00     0.030 A 
HETATM    7  C   UNL     1      63.173   7.125   3.387  1.00  0.00     0.020 A 
HETATM    8  C   UNL     1      62.786   7.163   2.047  1.00  0.00     0.002 A 
HETATM    9  C   UNL     1      62.283   8.340   1.482  1.00  0.00     0.014 A 
HETATM   10  H   UNL     1      62.539  10.938   5.087  1.00  0.00     0.165 HD
ENDROOT
BRANCH   1  11
HETATM   11  C   UNL     1      63.459   8.271   5.639  1.00  0.00     0.295 C 
HETATM   12  O   UNL     1      62.816   7.708   6.513  1.00  0.00    -0.259 OA
BRANCH  11  13
HETATM   13  O   UNL     1      64.602   8.977   5.821  1.00  0.00    -0.322 OA
HETATM   14  C   UNL     1      65.792   8.187   5.770  1.00  0.00     0.213 C 
ENDBRANCH  11  13
ENDBRANCH   1  11
TORSDOF 2
ENDMDL
MODEL 4
REMARK VINA RESULT:      -4.6      2.487      4.151
REMARK  2 active torsions:
REMARK  status: ('A' for Active; 'I' for Inactive)
REMARK    1  A    between atoms: C_1  and  C_3 
REMARK    2  A    between atoms: C_3  and  O_10 
ROOT
HETATM    1  C   UNL     1      62.179   9.527   2.509  1.00  0.00     0.067 A 
HETATM    2  C   UNL     1      62.990   8.722   3.330  1.00  0.00     0.058 A 
HETATM    3  N   UNL     1      63.534   7.474   3.101  1.00  0.00    -0.364 N 
HETATM    4  C   UNL     1      64.274   7.074   4.179  1.00  0.00     0.089 A 
HETATM    5  C   UNL     1      63.398   9.113   4.606  1.00  0.00    -0.007 A 
HETATM    6  C   UNL     1      64.203   8.065   5.130  1.00  0.00     0.030 A 
HETATM    7  C   UNL     1      61.784  10.774   3.024  1.00  0.00     0.020 A 
HETATM    8  C   UNL     1      62.176  11.185   4.298  1.00  0.00     0.002 A 
HETATM    9  C   UNL     1      62.978  10.363   5.098  1.00  0.00     0.014 A 
HETATM   10  H   UNL     1      63.405   6.947   2.279  1.00  0.00     0.165 HD
ENDROOT
BRANCH   1  11
HETATM   11  C   UNL     1      61.781   9.040   1.163  1.00  0.00     0.295 C 
HETATM   12  O   UNL     1      62.578   8.863   0.252  1.00  0.00    -0.259 OA
BRANCH  11  13
HETATM   13  O   UNL     1      60.444   8.830   1.104  1.00  0.00    -0.322 OA
HETATM   14  C   UNL     1      60.044   7.504   1.453  1.00  0.00     0.213 C 
ENDBRANCH  11  13
ENDBRANCH   1  11
TORSDOF 2
ENDMDL
MODEL 5
REMARK VINA RESULT:      -4.2      2.628      4.655
REMARK  2 active torsions:
REMARK  status: ('A' for Active; 'I' for Inactive)
REMARK    1  A    between atoms: C_1  and  C_3 
REMARK    2  A    between atoms: C_3  and  O_10 
ROOT
HETATM    1  C   UNL     1      62.477   8.221   2.658  1.00  0.00     0.067 A 
HETATM    2  C   UNL     1      62.457   9.371   3.470  1.00  0.00     0.058 A 
HETATM    3  N   UNL     1      61.761  10.555   3.325  1.00  0.00    -0.364 N 
HETATM    4  C   UNL     1      62.036  11.397   4.368  1.00  0.00     0.089 A 
HETATM    5  C   UNL     1      63.206   9.482   4.641  1.00  0.00    -0.007 A 
HETATM    6  C   UNL     1      62.934  10.763   5.195  1.00  0.00     0.030 A 
HETATM    7  C   UNL     1      63.292   7.155   3.078  1.00  0.00     0.020 A 
HETATM    8  C   UNL     1      64.052   7.245   4.245  1.00  0.00     0.002 A 
HETATM    9  C   UNL     1      64.020   8.402   5.031  1.00  0.00     0.014 A 
HETATM   10  H   UNL     1      61.153  10.763   2.578  1.00  0.00     0.165 HD
ENDROOT
BRANCH   1  11
HETATM   11  C   UNL     1      61.656   8.179   1.421  1.00  0.00     0.295 C 
HETATM   12  O   UNL     1      61.729   9.022   0.539  1.00  0.00    -0.259 OA
BRANCH  11  13
HETATM   13  O   UNL     1      60.840   7.097   1.423  1.00  0.00    -0.322 OA
HETATM   14  C   UNL     1      60.846   6.357   0.200  1.00  0.00     0.213 C 
ENDBRANCH  11  13
ENDBRANCH   1  11
TORSDOF 2
ENDMDL
MODEL 6
REMARK VINA RESULT:      -4.2      3.136      6.234
REMARK  2 active torsions:
REMARK  status: ('A' for Active; 'I' for Inactive)
REMARK    1  A    between atoms: C_1  and  C_3 
REMARK    2  A    between atoms: C_3  and  O_10 
ROOT
HETATM    1  C   UNL     1      65.121   6.899   6.189  1.00  0.00     0.067 A 
HETATM    2  C   UNL     1      65.985   6.504   7.227  1.00  0.00     0.058 A 
HETATM    3  N   UNL     1      66.935   7.226   7.923  1.00  0.00    -0.364 N 
HETATM    4  C   UNL     1      67.535   6.435   8.865  1.00  0.00     0.089 A 
HETATM    5  C   UNL     1      66.000   5.209   7.746  1.00  0.00    -0.007 A 
HETATM    6  C   UNL     1      66.982   5.179   8.774  1.00  0.00     0.030 A 
HETATM    7  C   UNL     1      64.245   5.925   5.679  1.00  0.00     0.020 A 
HETATM    8  C   UNL     1      64.244   4.623   6.180  1.00  0.00     0.002 A 
HETATM    9  C   UNL     1      65.118   4.253   7.209  1.00  0.00     0.014 A 
HETATM   10  H   UNL     1      67.150   8.174   7.763  1.00  0.00     0.165 HD
ENDROOT
BRANCH   1  11
HETATM   11  C   UNL     1      65.167   8.296   5.685  1.00  0.00     0.295 C 
HETATM   12  O   UNL     1      65.867   9.166   6.183  1.00  0.00    -0.259 OA
BRANCH  11  13
HETATM   13  O   UNL     1      64.340   8.450   4.622  1.00  0.00    -0.322 OA
HETATM   14  C   UNL     1      63.298   9.407   4.825  1.00  0.00     0.213 C 
ENDBRANCH  11  13
ENDBRANCH   1  11
TORSDOF 2
ENDMDL
MODEL 7
REMARK VINA RESULT:      -4.1      2.377      3.185
REMARK  2 active torsions:
REMARK  status: ('A' for Active; 'I' for Inactive)
REMARK    1  A    between atoms: C_1  and  C_3 
REMARK    2  A    between atoms: C_3  and  O_10 
ROOT
HETATM    1  C   UNL     1      63.104   8.468   4.535  1.00  0.00     0.067 A 
HETATM    2  C   UNL     1      62.283   7.471   5.095  1.00  0.00     0.058 A 
HETATM    3  N   UNL     1      62.417   6.759   6.270  1.00  0.00    -0.364 N 
HETATM    4  C   UNL     1      61.368   5.894   6.423  1.00  0.00     0.089 A 
HETATM    5  C   UNL     1      61.110   7.026   4.484  1.00  0.00    -0.007 A 
HETATM    6  C   UNL     1      60.546   6.032   5.329  1.00  0.00     0.030 A 
HETATM    7  C   UNL     1      62.693   9.022   3.310  1.00  0.00     0.020 A 
HETATM    8  C   UNL     1      61.526   8.591   2.678  1.00  0.00     0.002 A 
HETATM    9  C   UNL     1      60.730   7.593   3.253  1.00  0.00     0.014 A 
HETATM   10  H   UNL     1      63.162   6.859   6.907  1.00  0.00     0.165 HD
ENDROOT
BRANCH   1  11
HETATM   11  C   UNL     1      64.341   8.886   5.243  1.00  0.00     0.295 C 
HETATM   12  O   UNL     1      64.510  10.011   5.690  1.00  0.00    -0.259 OA
BRANCH  11  13
HETATM   13  O   UNL     1      65.223   7.859   5.315  1.00  0.00    -0.322 OA
HETATM   14  C   UNL     1      66.350   8.114   6.156  1.00  0.00     0.213 C 
ENDBRANCH  11  13
ENDBRANCH   1  11
TORSDOF 2
ENDMDL
MODEL 8
REMARK VINA RESULT:      -4.1      2.110      3.449
REMARK  2 active torsions:
REMARK  status: ('A' for Active; 'I' for Inactive)
REMARK    1  A    between atoms: C_1  and  C_3 
REMARK    2  A    between atoms: C_3  and  O_10 
ROOT
HETATM    1  C   UNL     1      62.282   7.580   4.513  1.00  0.00     0.067 A 
HETATM    2  C   UNL     1      62.177   8.908   4.060  1.00  0.00     0.058 A 
HETATM    3  N   UNL     1      62.230  10.098   4.759  1.00  0.00    -0.364 N 
HETATM    4  C   UNL     1      62.095  11.157   3.904  1.00  0.00     0.089 A 
HETATM    5  C   UNL     1      61.991   9.237   2.717  1.00  0.00    -0.007 A 
HETATM    6  C   UNL     1      61.939  10.655   2.633  1.00  0.00     0.030 A 
HETATM    7  C   UNL     1      62.197   6.564   3.544  1.00  0.00     0.020 A 
HETATM    8  C   UNL     1      62.009   6.868   2.195  1.00  0.00     0.002 A 
HETATM    9  C   UNL     1      61.900   8.198   1.771  1.00  0.00     0.014 A 
HETATM   10  H   UNL     1      62.346  10.173   5.734  1.00  0.00     0.165 HD
ENDROOT
BRANCH   1  11
HETATM   11  C   UNL     1      62.474   7.309   5.961  1.00  0.00     0.295 C 
HETATM   12  O   UNL     1      62.895   8.144   6.749  1.00  0.00    -0.259 OA
BRANCH  11  13
HETATM   13  O   UNL     1      62.122   6.036   6.262  1.00  0.00    -0.322 OA
HETATM   14  C   UNL     1      60.768   5.890   6.696  1.00  0.00     0.213 C 
ENDBRANCH  11  13
ENDBRANCH   1  11
TORSDOF 2
ENDMDL
MODEL 9
REMARK VINA RESULT:      -4.0      2.213      2.707
REMARK  2 active torsions:
REMARK  status: ('A' for Active; 'I' for Inactive)
REMARK    1  A    between atoms: C_1  and  C_3 
REMARK    2  A    between atoms: C_3  and  O_10 
ROOT
HETATM    1  C   UNL     1      62.422   8.606   4.015  1.00  0.00     0.067 A 
HETATM    2  C   UNL     1      61.395   7.646   3.961  1.00  0.00     0.058 A 
HETATM    3  N   UNL     1      61.000   6.706   4.892  1.00  0.00    -0.364 N 
HETATM    4  C   UNL     1      59.938   5.986   4.417  1.00  0.00     0.089 A 
HETATM    5  C   UNL     1      60.555   7.500   2.857  1.00  0.00    -0.007 A 
HETATM    6  C   UNL     1      59.644   6.450   3.156  1.00  0.00     0.030 A 
HETATM    7  C   UNL     1      62.578   9.442   2.896  1.00  0.00     0.020 A 
HETATM    8  C   UNL     1      61.752   9.313   1.779  1.00  0.00     0.002 A 
HETATM    9  C   UNL     1      60.742   8.345   1.746  1.00  0.00     0.014 A 
HETATM   10  H   UNL     1      61.423   6.573   5.771  1.00  0.00     0.165 HD
ENDROOT
BRANCH   1  11
HETATM   11  C   UNL     1      63.280   8.698   5.225  1.00  0.00     0.295 C 
HETATM   12  O   UNL     1      62.884   8.430   6.350  1.00  0.00    -0.259 OA
BRANCH  11  13
HETATM   13  O   UNL     1      64.529   9.111   4.897  1.00  0.00    -0.322 OA
HETATM   14  C   UNL     1      65.556   8.165   5.201  1.00  0.00     0.213 C 
ENDBRANCH  11  13
ENDBRANCH   1  11
TORSDOF 2
ENDMDL
