MODEL 1
REMARK VINA RESULT:      -4.9      0.000      0.000
REMARK  1 active torsions:
REMARK  status: ('A' for Active; 'I' for Inactive)
REMARK    1  A    between atoms: C_7  and  N_8 
ROOT
HETATM    1  C   UNL     1      62.890   8.491   3.795  1.00  0.00     0.104 A 
HETATM    2  C   UNL     1      62.269   9.305   2.845  1.00  0.00     0.068 A 
HETATM    3  C   UNL     1      63.217   9.007   5.049  1.00  0.00     0.102 A 
HETATM    4  O   UNL     1      63.087   7.178   3.463  1.00  0.00    -0.348 OA
HETATM    5  O   UNL     1      63.781   8.250   6.038  1.00  0.00    -0.348 OA
HETATM    6  C   UNL     1      62.927  10.335   5.352  1.00  0.00     0.042 A 
HETATM    7  C   UNL     1      61.961  10.636   3.141  1.00  0.00     0.028 A 
HETATM    8  C   UNL     1      62.337  11.153   4.385  1.00  0.00     0.032 A 
HETATM    9  C   UNL     1      65.042   6.556   4.806  1.00  0.00     0.053 C 
HETATM   10  C   UNL     1      64.476   6.846   3.423  1.00  0.00     0.178 C 
HETATM   11  C   UNL     1      65.089   7.809   5.668  1.00  0.00     0.178 C 
ENDROOT
BRANCH   7  12
HETATM   12  N   UNL     1      61.498  11.493   2.135  1.00  0.00    -0.399 N 
HETATM   13  H   UNL     1      61.634  11.260   1.189  1.00  0.00     0.156 HD
HETATM   14  H   UNL     1      61.038  12.330   2.375  1.00  0.00     0.156 HD
ENDBRANCH   7  12
TORSDOF 1
ENDMDL
MODEL 2
REMARK VINA RESULT:      -4.8      2.224      3.526
REMARK  1 active torsions:
REMARK  status: ('A' for Active; 'I' for Inactive)
REMARK    1  A    between atoms: C_7  and  N_8 
ROOT
HETATM    1  C   UNL     1      62.754   8.899   3.236  1.00  0.00     0.104 A 
HETATM    2  C   UNL     1      63.081   9.297   4.534  1.00  0.00     0.068 A 
HETATM    3  C   UNL     1      62.111   9.788   2.374  1.00  0.00     0.102 A 
HETATM    4  O   UNL     1      63.154   7.650   2.844  1.00  0.00    -0.348 OA
HETATM    5  O   UNL     1      61.809   9.476   1.078  1.00  0.00    -0.348 OA
HETATM    6  C   UNL     1      61.793  11.071   2.810  1.00  0.00     0.042 A 
HETATM    7  C   UNL     1      62.778  10.587   4.979  1.00  0.00     0.028 A 
HETATM    8  C   UNL     1      62.092  11.452   4.121  1.00  0.00     0.032 A 
HETATM    9  C   UNL     1      61.499   7.051   1.136  1.00  0.00     0.053 C 
HETATM   10  C   UNL     1      62.039   6.810   2.539  1.00  0.00     0.178 C 
HETATM   11  C   UNL     1      60.847   8.420   1.013  1.00  0.00     0.178 C 
ENDROOT
BRANCH   7  12
HETATM   12  N   UNL     1      62.950  10.926   6.327  1.00  0.00    -0.399 N 
HETATM   13  H   UNL     1      62.855  11.863   6.615  1.00  0.00     0.156 HD
HETATM   14  H   UNL     1      63.168  10.228   6.986  1.00  0.00     0.156 HD
ENDBRANCH   7  12
TORSDOF 1
ENDMDL
MODEL 3
REMARK VINA RESULT:      -4.5      2.456      3.033
REMARK  1 active torsions:
REMARK  status: ('A' for Active; 'I' for Inactive)
REMARK    1  A    between atoms: C_7  and  N_8 
ROOT
HETATM    1  C   UNL     1      63.343   7.518   5.961  1.00  0.00     0.104 A 
HETATM    2  C   UNL     1      62.117   6.961   5.587  1.00  0.00     0.068 A 
HETATM    3  C   UNL     1      63.938   8.494   5.163  1.00  0.00     0.102 A 
HETATM    4  O   UNL     1      63.875   7.115   7.156  1.00  0.00    -0.348 OA
HETATM    5  O   UNL     1      65.111   9.112   5.499  1.00  0.00    -0.348 OA
HETATM    6  C   UNL     1      63.312   8.914   3.993  1.00  0.00     0.042 A 
HETATM    7  C   UNL     1      61.472   7.383   4.420  1.00  0.00     0.028 A 
HETATM    8  C   UNL     1      62.103   8.329   3.606  1.00  0.00     0.032 A 
HETATM    9  C   UNL     1      66.285   7.421   6.819  1.00  0.00     0.053 C 
HETATM   10  C   UNL     1      65.125   6.447   6.979  1.00  0.00     0.178 C 
HETATM   11  C   UNL     1      66.198   8.184   5.505  1.00  0.00     0.178 C 
ENDROOT
BRANCH   7  12
HETATM   12  N   UNL     1      60.336   6.706   3.960  1.00  0.00    -0.399 N 
HETATM   13  H   UNL     1      60.206   5.756   4.180  1.00  0.00     0.156 HD
HETATM   14  H   UNL     1      59.667   7.181   3.415  1.00  0.00     0.156 HD
ENDBRANCH   7  12
TORSDOF 1
ENDMDL
MODEL 4
REMARK VINA RESULT:      -4.5      2.425      4.450
REMARK  1 active torsions:
REMARK  status: ('A' for Active; 'I' for Inactive)
REMARK    1  A    between atoms: C_7  and  N_8 
ROOT
HETATM    1  C   UNL     1      62.737   9.410   4.164  1.00  0.00     0.104 A 
HETATM    2  C   UNL     1      63.615   9.314   5.246  1.00  0.00     0.068 A 
HETATM    3  C   UNL     1      62.778   8.460   3.145  1.00  0.00     0.102 A 
HETATM    4  O   UNL     1      61.811  10.419   4.196  1.00  0.00    -0.348 OA
HETATM    5  O   UNL     1      61.914   8.470   2.085  1.00  0.00    -0.348 OA
HETATM    6  C   UNL     1      63.697   7.415   3.205  1.00  0.00     0.042 A 
HETATM    7  C   UNL     1      64.534   8.263   5.324  1.00  0.00     0.028 A 
HETATM    8  C   UNL     1      64.596   7.344   4.272  1.00  0.00     0.032 A 
HETATM    9  C   UNL     1      61.371  10.840   1.820  1.00  0.00     0.053 C 
HETATM   10  C   UNL     1      61.994  11.338   3.118  1.00  0.00     0.178 C 
HETATM   11  C   UNL     1      62.111   9.629   1.272  1.00  0.00     0.178 C 
ENDROOT
BRANCH   7  12
HETATM   12  N   UNL     1      65.523   8.264   6.315  1.00  0.00    -0.399 N 
HETATM   13  H   UNL     1      65.303   8.557   7.229  1.00  0.00     0.156 HD
HETATM   14  H   UNL     1      66.438   7.973   6.098  1.00  0.00     0.156 HD
ENDBRANCH   7  12
TORSDOF 1
ENDMDL
MODEL 5
REMARK VINA RESULT:      -4.4      2.102      3.449
REMARK  1 active torsions:
REMARK  status: ('A' for Active; 'I' for Inactive)
REMARK    1  A    between atoms: C_7  and  N_8 
ROOT
HETATM    1  C   UNL     1      62.037   9.276   3.035  1.00  0.00     0.104 A 
HETATM    2  C   UNL     1      62.289  10.360   3.880  1.00  0.00     0.068 A 
HETATM    3  C   UNL     1      62.366   7.983   3.441  1.00  0.00     0.102 A 
HETATM    4  O   UNL     1      61.400   9.540   1.852  1.00  0.00    -0.348 OA
HETATM    5  O   UNL     1      62.101   6.877   2.681  1.00  0.00    -0.348 OA
HETATM    6  C   UNL     1      62.949   7.773   4.688  1.00  0.00     0.042 A 
HETATM    7  C   UNL     1      62.862  10.160   5.140  1.00  0.00     0.028 A 
HETATM    8  C   UNL     1      63.230   8.864   5.514  1.00  0.00     0.032 A 
HETATM    9  C   UNL     1      62.180   7.731   0.391  1.00  0.00     0.053 C 
HETATM   10  C   UNL     1      62.219   9.216   0.728  1.00  0.00     0.178 C 
HETATM   11  C   UNL     1      62.855   6.893   1.467  1.00  0.00     0.178 C 
ENDROOT
BRANCH   7  12
HETATM   12  N   UNL     1      63.270  11.256   5.910  1.00  0.00    -0.399 N 
HETATM   13  H   UNL     1      63.652  12.050   5.472  1.00  0.00     0.156 HD
HETATM   14  H   UNL     1      63.175  11.232   6.890  1.00  0.00     0.156 HD
ENDBRANCH   7  12
TORSDOF 1
ENDMDL
MODEL 6
REMARK VINA RESULT:      -4.3      2.577      4.634
REMARK  1 active torsions:
REMARK  status: ('A' for Active; 'I' for Inactive)
REMARK    1  A    between atoms: C_7  and  N_8 
ROOT
HETATM    1  C   UNL     1      64.277   8.443   5.203  1.00  0.00     0.104 A 
HETATM    2  C   UNL     1      65.526   8.405   5.828  1.00  0.00     0.068 A 
HETATM    3  C   UNL     1      64.026   7.634   4.096  1.00  0.00     0.102 A 
HETATM    4  O   UNL     1      63.319   9.241   5.767  1.00  0.00    -0.348 OA
HETATM    5  O   UNL     1      62.810   7.589   3.471  1.00  0.00    -0.348 OA
HETATM    6  C   UNL     1      65.021   6.789   3.612  1.00  0.00     0.042 A 
HETATM    7  C   UNL     1      66.529   7.552   5.358  1.00  0.00     0.028 A 
HETATM    8  C   UNL     1      66.279   6.780   4.219  1.00  0.00     0.032 A 
HETATM    9  C   UNL     1      61.891   9.821   3.860  1.00  0.00     0.053 C 
HETATM   10  C   UNL     1      62.917  10.289   4.883  1.00  0.00     0.178 C 
HETATM   11  C   UNL     1      62.497   8.844   2.863  1.00  0.00     0.178 C 
ENDROOT
BRANCH   7  12
HETATM   12  N   UNL     1      67.828   7.639   5.876  1.00  0.00    -0.399 N 
HETATM   13  H   UNL     1      68.155   6.955   6.504  1.00  0.00     0.156 HD
HETATM   14  H   UNL     1      68.414   8.386   5.613  1.00  0.00     0.156 HD
ENDBRANCH   7  12
TORSDOF 1
ENDMDL
MODEL 7
REMARK VINA RESULT:      -4.2      1.419      2.598
REMARK  1 active torsions:
REMARK  status: ('A' for Active; 'I' for Inactive)
REMARK    1  A    between atoms: C_7  and  N_8 
ROOT
HETATM    1  C   UNL     1      62.888   8.845   4.031  1.00  0.00     0.104 A 
HETATM    2  C   UNL     1      62.415  10.125   3.735  1.00  0.00     0.068 A 
HETATM    3  C   UNL     1      62.938   7.871   3.035  1.00  0.00     0.102 A 
HETATM    4  O   UNL     1      63.355   8.628   5.300  1.00  0.00    -0.348 OA
HETATM    5  O   UNL     1      63.436   6.615   3.249  1.00  0.00    -0.348 OA
HETATM    6  C   UNL     1      62.513   8.174   1.744  1.00  0.00     0.042 A 
HETATM    7  C   UNL     1      61.997  10.445   2.439  1.00  0.00     0.028 A 
HETATM    8  C   UNL     1      62.008   9.446   1.462  1.00  0.00     0.032 A 
HETATM    9  C   UNL     1      62.986   6.225   5.621  1.00  0.00     0.053 C 
HETATM   10  C   UNL     1      62.579   7.646   5.988  1.00  0.00     0.178 C 
HETATM   11  C   UNL     1      62.627   5.893   4.180  1.00  0.00     0.178 C 
ENDROOT
BRANCH   7  12
HETATM   12  N   UNL     1      61.365  11.669   2.185  1.00  0.00    -0.399 N 
HETATM   13  H   UNL     1      60.953  12.173   2.924  1.00  0.00     0.156 HD
HETATM   14  H   UNL     1      61.333  12.026   1.268  1.00  0.00     0.156 HD
ENDBRANCH   7  12
TORSDOF 1
ENDMDL
MODEL 8
REMARK VINA RESULT:      -4.1      3.566      5.235
REMARK  1 active torsions:
REMARK  status: ('A' for Active; 'I' for Inactive)
REMARK    1  A    between atoms: C_7  and  N_8 
ROOT
HETATM    1  C   UNL     1      64.847   6.569   5.884  1.00  0.00     0.104 A 
HETATM    2  C   UNL     1      65.142   5.564   6.808  1.00  0.00     0.068 A 
HETATM    3  C   UNL     1      65.576   7.758   5.890  1.00  0.00     0.102 A 
HETATM    4  O   UNL     1      63.880   6.300   4.952  1.00  0.00    -0.348 OA
HETATM    5  O   UNL     1      65.369   8.759   4.981  1.00  0.00    -0.348 OA
HETATM    6  C   UNL     1      66.596   7.944   6.819  1.00  0.00     0.042 A 
HETATM    7  C   UNL     1      66.172   5.734   7.738  1.00  0.00     0.028 A 
HETATM    8  C   UNL     1      66.863   6.949   7.762  1.00  0.00     0.032 A 
HETATM    9  C   UNL     1      63.003   8.525   4.408  1.00  0.00     0.053 C 
HETATM   10  C   UNL     1      62.763   7.180   5.082  1.00  0.00     0.178 C 
HETATM   11  C   UNL     1      64.069   9.333   5.134  1.00  0.00     0.178 C 
ENDROOT
BRANCH   7  12
HETATM   12  N   UNL     1      66.351   4.802   8.768  1.00  0.00    -0.399 N 
HETATM   13  H   UNL     1      67.221   4.736   9.225  1.00  0.00     0.156 HD
HETATM   14  H   UNL     1      65.609   4.213   9.034  1.00  0.00     0.156 HD
ENDBRANCH   7  12
TORSDOF 1
ENDMDL
MODEL 9
REMARK VINA RESULT:      -4.1      1.926      2.649
REMARK  1 active torsions:
REMARK  status: ('A' for Active; 'I' for Inactive)
REMARK    1  A    between atoms: C_7  and  N_8 
ROOT
HETATM    1  C   UNL     1      64.898   6.887   4.384  1.00  0.00     0.104 A 
HETATM    2  C   UNL     1      64.109   6.876   3.232  1.00  0.00     0.068 A 
HETATM    3  C   UNL     1      64.775   7.928   5.304  1.00  0.00     0.102 A 
HETATM    4  O   UNL     1      65.721   5.812   4.590  1.00  0.00    -0.348 OA
HETATM    5  O   UNL     1      65.482   7.971   6.474  1.00  0.00    -0.348 OA
HETATM    6  C   UNL     1      63.868   8.958   5.072  1.00  0.00     0.042 A 
HETATM    7  C   UNL     1      63.186   7.899   2.993  1.00  0.00     0.028 A 
HETATM    8  C   UNL     1      63.107   8.959   3.901  1.00  0.00     0.032 A 
HETATM    9  C   UNL     1      67.538   6.759   5.939  1.00  0.00     0.053 C 
HETATM   10  C   UNL     1      67.097   6.195   4.595  1.00  0.00     0.178 C 
HETATM   11  C   UNL     1      66.883   8.103   6.224  1.00  0.00     0.178 C 
ENDROOT
BRANCH   7  12
HETATM   12  N   UNL     1      62.523   7.976   1.762  1.00  0.00    -0.399 N 
HETATM   13  H   UNL     1      62.206   7.155   1.321  1.00  0.00     0.156 HD
HETATM   14  H   UNL     1      62.376   8.852   1.336  1.00  0.00     0.156 HD
ENDBRANCH   7  12
TORSDOF 1
ENDMDL
