MODEL 1
REMARK VINA RESULT:      -5.0      0.000      0.000
REMARK  1 active torsions:
REMARK  status: ('A' for Active; 'I' for Inactive)
REMARK    1  A    between atoms: C_1  and  C_2 
ROOT
HETATM    1  C   UNL     1      61.906   9.316   2.902  1.00  0.00     0.094 C 
HETATM    2  C   UNL     1      63.260  10.418   5.251  1.00  0.00     0.127 C 
HETATM    3  O   UNL     1      64.049  10.941   6.035  1.00  0.00    -0.298 OA
HETATM    4  C   UNL     1      63.085   8.582   3.561  1.00  0.00     0.021 C 
HETATM    5  C   UNL     1      62.056  10.833   3.101  1.00  0.00     0.021 C 
HETATM    6  C   UNL     1      63.227   8.921   5.040  1.00  0.00     0.079 C 
HETATM    7  C   UNL     1      62.172  11.217   4.570  1.00  0.00     0.079 C 
ENDROOT
BRANCH   1   8
HETATM    8  C   UNL     1      61.767   8.950   1.419  1.00  0.00     0.391 C 
HETATM    9  F   UNL     1      60.477   8.919   1.020  1.00  0.00    -0.171 F 
HETATM   10  F   UNL     1      62.306   7.745   1.136  1.00  0.00    -0.171 F 
HETATM   11  F   UNL     1      62.403   9.865   0.652  1.00  0.00    -0.171 F 
ENDBRANCH   1   8
TORSDOF 1
ENDMDL
MODEL 2
REMARK VINA RESULT:      -4.8      1.423      2.196
REMARK  1 active torsions:
REMARK  status: ('A' for Active; 'I' for Inactive)
REMARK    1  A    between atoms: C_1  and  C_2 
ROOT
HETATM    1  C   UNL     1      62.669   9.221   2.826  1.00  0.00     0.094 C 
HETATM    2  C   UNL     1      62.906   8.271   5.584  1.00  0.00     0.127 C 
HETATM    3  O   UNL     1      62.702   7.857   6.723  1.00  0.00    -0.298 OA
HETATM    4  C   UNL     1      62.279  10.114   4.014  1.00  0.00     0.021 C 
HETATM    5  C   UNL     1      62.444   7.743   3.185  1.00  0.00     0.021 C 
HETATM    6  C   UNL     1      63.031   9.749   5.288  1.00  0.00     0.079 C 
HETATM    7  C   UNL     1      63.203   7.329   4.439  1.00  0.00     0.079 C 
ENDROOT
BRANCH   1   8
HETATM    8  C   UNL     1      61.917   9.614   1.548  1.00  0.00     0.391 C 
HETATM    9  F   UNL     1      60.688   9.057   1.487  1.00  0.00    -0.171 F 
HETATM   10  F   UNL     1      62.582   9.249   0.431  1.00  0.00    -0.171 F 
HETATM   11  F   UNL     1      61.752  10.955   1.499  1.00  0.00    -0.171 F 
ENDBRANCH   1   8
TORSDOF 1
ENDMDL
MODEL 3
REMARK VINA RESULT:      -4.6      3.007      4.017
REMARK  1 active torsions:
REMARK  status: ('A' for Active; 'I' for Inactive)
REMARK    1  A    between atoms: C_1  and  C_2 
ROOT
HETATM    1  C   UNL     1      62.950   8.907   4.776  1.00  0.00     0.094 C 
HETATM    2  C   UNL     1      62.000  11.048   3.022  1.00  0.00     0.127 C 
HETATM    3  O   UNL     1      61.897  11.968   2.213  1.00  0.00    -0.298 OA
HETATM    4  C   UNL     1      63.211  10.385   5.108  1.00  0.00     0.021 C 
HETATM    5  C   UNL     1      62.872   8.717   3.252  1.00  0.00     0.021 C 
HETATM    6  C   UNL     1      62.162  11.310   4.503  1.00  0.00     0.079 C 
HETATM    7  C   UNL     1      61.814   9.605   2.611  1.00  0.00     0.079 C 
ENDROOT
BRANCH   1   8
HETATM    8  C   UNL     1      64.003   7.988   5.408  1.00  0.00     0.391 C 
HETATM    9  F   UNL     1      63.557   7.400   6.538  1.00  0.00    -0.171 F 
HETATM   10  F   UNL     1      65.139   8.649   5.717  1.00  0.00    -0.171 F 
HETATM   11  F   UNL     1      64.336   7.000   4.546  1.00  0.00    -0.171 F 
ENDBRANCH   1   8
TORSDOF 1
ENDMDL
MODEL 4
REMARK VINA RESULT:      -4.2      3.481      4.268
REMARK  1 active torsions:
REMARK  status: ('A' for Active; 'I' for Inactive)
REMARK    1  A    between atoms: C_1  and  C_2 
ROOT
HETATM    1  C   UNL     1      63.008   9.151   3.663  1.00  0.00     0.094 C 
HETATM    2  C   UNL     1      61.347   8.596   1.318  1.00  0.00     0.127 C 
HETATM    3  O   UNL     1      60.428   8.347   0.542  1.00  0.00    -0.298 OA
HETATM    4  C   UNL     1      62.470   7.738   3.383  1.00  0.00     0.021 C 
HETATM    5  C   UNL     1      62.036  10.203   3.104  1.00  0.00     0.021 C 
HETATM    6  C   UNL     1      62.212   7.499   1.900  1.00  0.00     0.079 C 
HETATM    7  C   UNL     1      61.773  10.015   1.616  1.00  0.00     0.079 C 
ENDROOT
BRANCH   1   8
HETATM    8  C   UNL     1      63.280   9.369   5.157  1.00  0.00     0.391 C 
HETATM    9  F   UNL     1      64.599   9.343   5.445  1.00  0.00    -0.171 F 
HETATM   10  F   UNL     1      62.680   8.437   5.928  1.00  0.00    -0.171 F 
HETATM   11  F   UNL     1      62.808  10.576   5.544  1.00  0.00    -0.171 F 
ENDBRANCH   1   8
TORSDOF 1
ENDMDL
MODEL 5
REMARK VINA RESULT:      -4.0      1.798      2.793
REMARK  1 active torsions:
REMARK  status: ('A' for Active; 'I' for Inactive)
REMARK    1  A    between atoms: C_1  and  C_2 
ROOT
HETATM    1  C   UNL     1      62.282   8.248   2.414  1.00  0.00     0.094 C 
HETATM    2  C   UNL     1      62.107  10.926   3.581  1.00  0.00     0.127 C 
HETATM    3  O   UNL     1      61.743  11.969   4.120  1.00  0.00    -0.298 OA
HETATM    4  C   UNL     1      61.552   9.389   1.687  1.00  0.00     0.021 C 
HETATM    5  C   UNL     1      62.193   8.453   3.935  1.00  0.00     0.021 C 
HETATM    6  C   UNL     1      62.086  10.762   2.078  1.00  0.00     0.079 C 
HETATM    7  C   UNL     1      62.743   9.805   4.371  1.00  0.00     0.079 C 
ENDROOT
BRANCH   1   8
HETATM    8  C   UNL     1      61.746   6.873   1.996  1.00  0.00     0.391 C 
HETATM    9  F   UNL     1      62.626   6.192   1.231  1.00  0.00    -0.171 F 
HETATM   10  F   UNL     1      60.592   6.963   1.302  1.00  0.00    -0.171 F 
HETATM   11  F   UNL     1      61.497   6.118   3.091  1.00  0.00    -0.171 F 
ENDBRANCH   1   8
TORSDOF 1
ENDMDL
MODEL 6
REMARK VINA RESULT:      -3.9      2.600      3.511
REMARK  1 active torsions:
REMARK  status: ('A' for Active; 'I' for Inactive)
REMARK    1  A    between atoms: C_1  and  C_2 
ROOT
HETATM    1  C   UNL     1      63.128   9.138   3.632  1.00  0.00     0.094 C 
HETATM    2  C   UNL     1      64.710   6.838   4.510  1.00  0.00     0.127 C 
HETATM    3  O   UNL     1      65.129   5.817   5.050  1.00  0.00    -0.298 OA
HETATM    4  C   UNL     1      63.772   9.099   5.027  1.00  0.00     0.021 C 
HETATM    5  C   UNL     1      62.790   7.711   3.170  1.00  0.00     0.021 C 
HETATM    6  C   UNL     1      65.010   8.211   5.071  1.00  0.00     0.079 C 
HETATM    7  C   UNL     1      64.008   6.798   3.172  1.00  0.00     0.079 C 
ENDROOT
BRANCH   1   8
HETATM    8  C   UNL     1      61.895  10.050   3.601  1.00  0.00     0.391 C 
HETATM    9  F   UNL     1      61.733  10.650   2.402  1.00  0.00    -0.171 F 
HETATM   10  F   UNL     1      61.954  11.023   4.535  1.00  0.00    -0.171 F 
HETATM   11  F   UNL     1      60.777   9.329   3.843  1.00  0.00    -0.171 F 
ENDBRANCH   1   8
TORSDOF 1
ENDMDL
MODEL 7
REMARK VINA RESULT:      -3.8      2.670      3.366
REMARK  1 active torsions:
REMARK  status: ('A' for Active; 'I' for Inactive)
REMARK    1  A    between atoms: C_1  and  C_2 
ROOT
HETATM    1  C   UNL     1      61.473   8.189   3.079  1.00  0.00     0.094 C 
HETATM    2  C   UNL     1      61.915  10.953   2.226  1.00  0.00     0.127 C 
HETATM    3  O   UNL     1      61.796  12.125   1.876  1.00  0.00    -0.298 OA
HETATM    4  C   UNL     1      61.177   8.636   1.639  1.00  0.00     0.021 C 
HETATM    5  C   UNL     1      61.269   9.367   4.046  1.00  0.00     0.021 C 
HETATM    6  C   UNL     1      62.022   9.832   1.216  1.00  0.00     0.079 C 
HETATM    7  C   UNL     1      62.120  10.574   3.675  1.00  0.00     0.079 C 
ENDROOT
BRANCH   1   8
HETATM    8  C   UNL     1      60.627   6.974   3.482  1.00  0.00     0.391 C 
HETATM    9  F   UNL     1      60.495   6.864   4.821  1.00  0.00    -0.171 F 
HETATM   10  F   UNL     1      61.152   5.814   3.031  1.00  0.00    -0.171 F 
HETATM   11  F   UNL     1      59.383   7.080   2.963  1.00  0.00    -0.171 F 
ENDBRANCH   1   8
TORSDOF 1
ENDMDL
MODEL 8
REMARK VINA RESULT:      -3.8      4.502      5.673
REMARK  1 active torsions:
REMARK  status: ('A' for Active; 'I' for Inactive)
REMARK    1  A    between atoms: C_1  and  C_2 
ROOT
HETATM    1  C   UNL     1      65.445   7.518   5.264  1.00  0.00     0.094 C 
HETATM    2  C   UNL     1      63.421   7.702   3.159  1.00  0.00     0.127 C 
HETATM    3  O   UNL     1      62.777   7.962   2.145  1.00  0.00    -0.298 OA
HETATM    4  C   UNL     1      64.606   8.791   5.074  1.00  0.00     0.021 C 
HETATM    5  C   UNL     1      65.626   6.802   3.915  1.00  0.00     0.021 C 
HETATM    6  C   UNL     1      63.255   8.506   4.430  1.00  0.00     0.079 C 
HETATM    7  C   UNL     1      64.296   6.473   3.251  1.00  0.00     0.079 C 
ENDROOT
BRANCH   1   8
HETATM    8  C   UNL     1      66.794   7.820   5.930  1.00  0.00     0.391 C 
HETATM    9  F   UNL     1      67.302   6.743   6.567  1.00  0.00    -0.171 F 
HETATM   10  F   UNL     1      66.706   8.820   6.833  1.00  0.00    -0.171 F 
HETATM   11  F   UNL     1      67.698   8.198   4.998  1.00  0.00    -0.171 F 
ENDBRANCH   1   8
TORSDOF 1
ENDMDL
MODEL 9
REMARK VINA RESULT:      -3.8      4.351      5.393
REMARK  1 active torsions:
REMARK  status: ('A' for Active; 'I' for Inactive)
REMARK    1  A    between atoms: C_1  and  C_2 
ROOT
HETATM    1  C   UNL     1      65.497   8.002   4.980  1.00  0.00     0.094 C 
HETATM    2  C   UNL     1      67.293   5.729   5.392  1.00  0.00     0.127 C 
HETATM    3  O   UNL     1      67.789   4.632   5.641  1.00  0.00    -0.298 OA
HETATM    4  C   UNL     1      65.857   7.515   6.393  1.00  0.00     0.021 C 
HETATM    5  C   UNL     1      65.535   6.822   3.994  1.00  0.00     0.021 C 
HETATM    6  C   UNL     1      67.211   6.816   6.440  1.00  0.00     0.079 C 
HETATM    7  C   UNL     1      66.882   6.114   3.989  1.00  0.00     0.079 C 
ENDROOT
BRANCH   1   8
HETATM    8  C   UNL     1      64.141   8.718   4.954  1.00  0.00     0.391 C 
HETATM    9  F   UNL     1      63.617   8.776   3.711  1.00  0.00    -0.171 F 
HETATM   10  F   UNL     1      64.223   9.984   5.417  1.00  0.00    -0.171 F 
HETATM   11  F   UNL     1      63.253   8.062   5.734  1.00  0.00    -0.171 F 
ENDBRANCH   1   8
TORSDOF 1
ENDMDL
