MODEL 1
REMARK VINA RESULT:      -4.8      0.000      0.000
REMARK  0 active torsions:
REMARK  status: ('A' for Active; 'I' for Inactive)
ROOT
HETATM    1  C   UNL     1      61.710   8.050   2.171  1.00  0.00     0.056 C 
HETATM    2  C   UNL     1      61.699   9.576   4.112  1.00  0.00     0.056 C 
HETATM    3  C   UNL     1      63.039   7.457   2.598  1.00  0.00     0.131 C 
HETATM    4  C   UNL     1      61.883  10.786   3.221  1.00  0.00     0.131 C 
HETATM    5  C   UNL     1      60.923   8.495   3.388  1.00  0.00     0.024 C 
HETATM    6  C   UNL     1      62.118  10.589   1.739  1.00  0.00     0.079 C 
HETATM    7  C   UNL     1      63.833   8.150   3.684  1.00  0.00     0.079 C 
HETATM    8  O   UNL     1      63.520   6.498   1.992  1.00  0.00    -0.298 OA
HETATM    9  O   UNL     1      61.932  11.917   3.709  1.00  0.00    -0.298 OA
HETATM   10  C   UNL     1      63.048   9.064   4.627  1.00  0.00     0.019 C 
HETATM   11  C   UNL     1      61.905   9.186   1.168  1.00  0.00     0.019 C 
ENDROOT
TORSDOF 0
ENDMDL
MODEL 2
REMARK VINA RESULT:      -4.8      0.136      3.807
REMARK  0 active torsions:
REMARK  status: ('A' for Active; 'I' for Inactive)
ROOT
HETATM    1  C   UNL     1      61.789   9.557   4.115  1.00  0.00     0.056 C 
HETATM    2  C   UNL     1      61.608   8.022   2.190  1.00  0.00     0.056 C 
HETATM    3  C   UNL     1      61.899  10.757   3.195  1.00  0.00     0.131 C 
HETATM    4  C   UNL     1      62.963   7.414   2.487  1.00  0.00     0.131 C 
HETATM    5  C   UNL     1      60.938   8.482   3.468  1.00  0.00     0.024 C 
HETATM    6  C   UNL     1      63.818   8.008   3.586  1.00  0.00     0.079 C 
HETATM    7  C   UNL     1      62.133  10.526   1.718  1.00  0.00     0.079 C 
HETATM    8  O   UNL     1      61.917  11.900   3.657  1.00  0.00    -0.298 OA
HETATM    9  O   UNL     1      63.404   6.504   1.783  1.00  0.00    -0.298 OA
HETATM   10  C   UNL     1      61.729   9.157   1.168  1.00  0.00     0.019 C 
HETATM   11  C   UNL     1      63.167   9.034   4.515  1.00  0.00     0.019 C 
ENDROOT
TORSDOF 0
ENDMDL
MODEL 3
REMARK VINA RESULT:      -4.5      2.170      3.387
REMARK  0 active torsions:
REMARK  status: ('A' for Active; 'I' for Inactive)
ROOT
HETATM    1  C   UNL     1      62.694   8.175   2.931  1.00  0.00     0.056 C 
HETATM    2  C   UNL     1      63.573   8.723   5.172  1.00  0.00     0.056 C 
HETATM    3  C   UNL     1      62.114   9.567   2.778  1.00  0.00     0.131 C 
HETATM    4  C   UNL     1      62.597   7.776   5.838  1.00  0.00     0.131 C 
HETATM    5  C   UNL     1      63.942   8.223   3.791  1.00  0.00     0.024 C 
HETATM    6  C   UNL     1      61.536   7.095   5.002  1.00  0.00     0.079 C 
HETATM    7  C   UNL     1      62.049  10.470   3.991  1.00  0.00     0.079 C 
HETATM    8  O   UNL     1      61.596   9.916   1.715  1.00  0.00    -0.298 OA
HETATM    9  O   UNL     1      62.608   7.631   7.062  1.00  0.00    -0.298 OA
HETATM   10  C   UNL     1      63.014  10.149   5.134  1.00  0.00     0.019 C 
HETATM   11  C   UNL     1      61.658   7.198   3.481  1.00  0.00     0.019 C 
ENDROOT
TORSDOF 0
ENDMDL
MODEL 4
REMARK VINA RESULT:      -4.5      2.203      3.218
REMARK  0 active torsions:
REMARK  status: ('A' for Active; 'I' for Inactive)
ROOT
HETATM    1  C   UNL     1      63.515   8.782   5.153  1.00  0.00     0.056 C 
HETATM    2  C   UNL     1      62.803   8.054   2.903  1.00  0.00     0.056 C 
HETATM    3  C   UNL     1      62.580   7.785   5.811  1.00  0.00     0.131 C 
HETATM    4  C   UNL     1      62.118   9.379   2.640  1.00  0.00     0.131 C 
HETATM    5  C   UNL     1      63.995   8.243   3.819  1.00  0.00     0.024 C 
HETATM    6  C   UNL     1      62.028  10.402   3.751  1.00  0.00     0.079 C 
HETATM    7  C   UNL     1      61.538   7.090   4.962  1.00  0.00     0.079 C 
HETATM    8  O   UNL     1      62.590   7.632   7.034  1.00  0.00    -0.298 OA
HETATM    9  O   UNL     1      61.560   9.587   1.561  1.00  0.00    -0.298 OA
HETATM   10  C   UNL     1      61.813   7.026   3.458  1.00  0.00     0.019 C 
HETATM   11  C   UNL     1      62.856  10.153   5.013  1.00  0.00     0.019 C 
ENDROOT
TORSDOF 0
ENDMDL
MODEL 5
REMARK VINA RESULT:      -4.2      1.568      2.805
REMARK  0 active torsions:
REMARK  status: ('A' for Active; 'I' for Inactive)
ROOT
HETATM    1  C   UNL     1      62.426   7.867   3.676  1.00  0.00     0.056 C 
HETATM    2  C   UNL     1      62.024   9.149   1.604  1.00  0.00     0.056 C 
HETATM    3  C   UNL     1      61.055   7.225   3.588  1.00  0.00     0.131 C 
HETATM    4  C   UNL     1      61.984  10.458   2.365  1.00  0.00     0.131 C 
HETATM    5  C   UNL     1      62.952   8.165   2.285  1.00  0.00     0.024 C 
HETATM    6  C   UNL     1      62.045  10.439   3.877  1.00  0.00     0.079 C 
HETATM    7  C   UNL     1      60.049   7.780   2.603  1.00  0.00     0.079 C 
HETATM    8  O   UNL     1      60.725   6.344   4.384  1.00  0.00    -0.298 OA
HETATM    9  O   UNL     1      61.812  11.521   1.766  1.00  0.00    -0.298 OA
HETATM   10  C   UNL     1      60.614   8.576   1.425  1.00  0.00     0.019 C 
HETATM   11  C   UNL     1      62.399   9.115   4.556  1.00  0.00     0.019 C 
ENDROOT
TORSDOF 0
ENDMDL
MODEL 6
REMARK VINA RESULT:      -4.1      2.000      3.014
REMARK  0 active torsions:
REMARK  status: ('A' for Active; 'I' for Inactive)
ROOT
HETATM    1  C   UNL     1      61.998   7.168   4.681  1.00  0.00     0.056 C 
HETATM    2  C   UNL     1      61.456   9.016   3.135  1.00  0.00     0.056 C 
HETATM    3  C   UNL     1      62.722   8.116   5.618  1.00  0.00     0.131 C 
HETATM    4  C   UNL     1      62.380   8.460   2.072  1.00  0.00     0.131 C 
HETATM    5  C   UNL     1      60.872   7.896   3.973  1.00  0.00     0.024 C 
HETATM    6  C   UNL     1      63.248   7.263   2.395  1.00  0.00     0.079 C 
HETATM    7  C   UNL     1      63.035   9.518   5.142  1.00  0.00     0.079 C 
HETATM    8  O   UNL     1      63.152   7.716   6.702  1.00  0.00    -0.298 OA
HETATM    9  O   UNL     1      62.493   9.031   0.986  1.00  0.00    -0.298 OA
HETATM   10  C   UNL     1      62.176  10.059   3.997  1.00  0.00     0.019 C 
HETATM   11  C   UNL     1      62.965   6.513   3.698  1.00  0.00     0.019 C 
ENDROOT
TORSDOF 0
ENDMDL
MODEL 7
REMARK VINA RESULT:      -4.0      1.981      2.896
REMARK  0 active torsions:
REMARK  status: ('A' for Active; 'I' for Inactive)
ROOT
HETATM    1  C   UNL     1      61.483   9.028   3.110  1.00  0.00     0.056 C 
HETATM    2  C   UNL     1      61.954   7.191   4.691  1.00  0.00     0.056 C 
HETATM    3  C   UNL     1      62.391   8.409   2.064  1.00  0.00     0.131 C 
HETATM    4  C   UNL     1      62.713   8.119   5.616  1.00  0.00     0.131 C 
HETATM    5  C   UNL     1      60.858   7.943   3.964  1.00  0.00     0.024 C 
HETATM    6  C   UNL     1      62.969   9.548   5.188  1.00  0.00     0.079 C 
HETATM    7  C   UNL     1      63.306   7.274   2.470  1.00  0.00     0.079 C 
HETATM    8  O   UNL     1      62.468   8.898   0.935  1.00  0.00    -0.298 OA
HETATM    9  O   UNL     1      63.196   7.692   6.667  1.00  0.00    -0.298 OA
HETATM   10  C   UNL     1      62.906   6.487   3.719  1.00  0.00     0.019 C 
HETATM   11  C   UNL     1      62.230  10.061   3.951  1.00  0.00     0.019 C 
ENDROOT
TORSDOF 0
ENDMDL
MODEL 8
REMARK VINA RESULT:      -3.9      6.172      8.046
REMARK  0 active torsions:
REMARK  status: ('A' for Active; 'I' for Inactive)
ROOT
HETATM    1  C   UNL     1      66.726   6.057   6.133  1.00  0.00     0.056 C 
HETATM    2  C   UNL     1      67.965   4.704   7.786  1.00  0.00     0.056 C 
HETATM    3  C   UNL     1      66.591   7.202   7.118  1.00  0.00     0.131 C 
HETATM    4  C   UNL     1      66.821   3.719   7.908  1.00  0.00     0.131 C 
HETATM    5  C   UNL     1      68.012   5.296   6.393  1.00  0.00     0.024 C 
HETATM    6  C   UNL     1      65.518   4.003   7.191  1.00  0.00     0.079 C 
HETATM    7  C   UNL     1      66.938   6.962   8.571  1.00  0.00     0.079 C 
HETATM    8  O   UNL     1      66.097   8.275   6.765  1.00  0.00    -0.298 OA
HETATM    9  O   UNL     1      66.916   2.743   8.654  1.00  0.00    -0.298 OA
HETATM   10  C   UNL     1      67.873   5.787   8.866  1.00  0.00     0.019 C 
HETATM   11  C   UNL     1      65.503   5.144   6.172  1.00  0.00     0.019 C 
ENDROOT
TORSDOF 0
ENDMDL
MODEL 9
REMARK VINA RESULT:      -3.9      2.557      3.492
REMARK  0 active torsions:
REMARK  status: ('A' for Active; 'I' for Inactive)
ROOT
HETATM    1  C   UNL     1      63.270   7.044   3.220  1.00  0.00     0.056 C 
HETATM    2  C   UNL     1      63.523   8.752   4.984  1.00  0.00     0.056 C 
HETATM    3  C   UNL     1      62.366   6.210   4.106  1.00  0.00     0.131 C 
HETATM    4  C   UNL     1      64.983   8.401   5.181  1.00  0.00     0.131 C 
HETATM    5  C   UNL     1      63.106   8.516   3.548  1.00  0.00     0.024 C 
HETATM    6  C   UNL     1      65.569   7.221   4.436  1.00  0.00     0.079 C 
HETATM    7  C   UNL     1      62.263   6.554   5.576  1.00  0.00     0.079 C 
HETATM    8  O   UNL     1      61.817   5.198   3.664  1.00  0.00    -0.298 OA
HETATM    9  O   UNL     1      65.665   9.013   6.006  1.00  0.00    -0.298 OA
HETATM   10  C   UNL     1      62.637   7.984   5.971  1.00  0.00     0.019 C 
HETATM   11  C   UNL     1      64.725   6.592   3.327  1.00  0.00     0.019 C 
ENDROOT
TORSDOF 0
ENDMDL
