MODEL 1
REMARK VINA RESULT:      -5.3      0.000      0.000
REMARK  2 active torsions:
REMARK  status: ('A' for Active; 'I' for Inactive)
REMARK    1  A    between atoms: C_1  and  C_2 
REMARK    2  A    between atoms: C_3  and  O_9 
ROOT
HETATM    1  C   UNL     1      63.317   9.346   4.534  1.00  0.00     0.043 A 
HETATM    2  C   UNL     1      62.885  10.630   4.898  1.00  0.00     0.079 A 
HETATM    3  C   UNL     1      62.917   8.823   3.295  1.00  0.00     0.024 A 
HETATM    4  C   UNL     1      62.085  11.380   4.042  1.00  0.00     0.038 A 
HETATM    5  C   UNL     1      62.100   9.569   2.431  1.00  0.00    -0.061 A 
HETATM    6  C   UNL     1      61.694  10.853   2.811  1.00  0.00     0.009 A 
HETATM    7  C   UNL     1      61.647   9.001   1.117  1.00  0.00     0.048 C 
ENDROOT
BRANCH   1   8
HETATM    8  C   UNL     1      64.185   8.561   5.460  1.00  0.00     0.158 C 
HETATM    9  O   UNL     1      65.277   9.024   5.796  1.00  0.00    -0.293 OA
HETATM   10  C   UNL     1      63.711   7.226   5.969  1.00  0.00     0.097 C 
ENDBRANCH   1   8
BRANCH   2  11
HETATM   11  O   UNL     1      63.204  11.221   6.093  1.00  0.00    -0.360 OA
HETATM   12  H   UNL     1      64.026  11.658   6.195  1.00  0.00     0.217 HD
ENDBRANCH   2  11
TORSDOF 2
ENDMDL
MODEL 2
REMARK VINA RESULT:      -5.0      2.202      3.253
REMARK  2 active torsions:
REMARK  status: ('A' for Active; 'I' for Inactive)
REMARK    1  A    between atoms: C_1  and  C_2 
REMARK    2  A    between atoms: C_3  and  O_9 
ROOT
HETATM    1  C   UNL     1      62.145  10.168   3.505  1.00  0.00     0.043 A 
HETATM    2  C   UNL     1      62.039  10.561   2.161  1.00  0.00     0.079 A 
HETATM    3  C   UNL     1      62.065   8.803   3.821  1.00  0.00     0.024 A 
HETATM    4  C   UNL     1      61.871   9.613   1.156  1.00  0.00     0.038 A 
HETATM    5  C   UNL     1      61.883   7.844   2.813  1.00  0.00    -0.061 A 
HETATM    6  C   UNL     1      61.795   8.258   1.479  1.00  0.00     0.009 A 
HETATM    7  C   UNL     1      61.769   6.385   3.150  1.00  0.00     0.048 C 
ENDROOT
BRANCH   1   8
HETATM    8  C   UNL     1      62.337  11.198   4.568  1.00  0.00     0.158 C 
HETATM    9  O   UNL     1      61.811  12.305   4.435  1.00  0.00    -0.293 OA
HETATM   10  C   UNL     1      63.164  10.866   5.782  1.00  0.00     0.097 C 
ENDBRANCH   1   8
BRANCH   2  11
HETATM   11  O   UNL     1      62.084  11.868   1.753  1.00  0.00    -0.360 OA
HETATM   12  H   UNL     1      62.508  12.093   0.948  1.00  0.00     0.217 HD
ENDBRANCH   2  11
TORSDOF 2
ENDMDL
MODEL 3
REMARK VINA RESULT:      -4.9      1.351      3.406
REMARK  2 active torsions:
REMARK  status: ('A' for Active; 'I' for Inactive)
REMARK    1  A    between atoms: C_1  and  C_2 
REMARK    2  A    between atoms: C_3  and  O_9 
ROOT
HETATM    1  C   UNL     1      62.596   9.939   3.899  1.00  0.00     0.043 A 
HETATM    2  C   UNL     1      63.491   9.789   4.970  1.00  0.00     0.079 A 
HETATM    3  C   UNL     1      62.242   8.808   3.147  1.00  0.00     0.024 A 
HETATM    4  C   UNL     1      64.011   8.538   5.291  1.00  0.00     0.038 A 
HETATM    5  C   UNL     1      62.771   7.546   3.458  1.00  0.00    -0.061 A 
HETATM    6  C   UNL     1      63.651   7.419   4.539  1.00  0.00     0.009 A 
HETATM    7  C   UNL     1      62.417   6.339   2.638  1.00  0.00     0.048 C 
ENDROOT
BRANCH   1   8
HETATM    8  C   UNL     1      62.040  11.286   3.578  1.00  0.00     0.158 C 
HETATM    9  O   UNL     1      61.837  12.086   4.493  1.00  0.00    -0.293 OA
HETATM   10  C   UNL     1      61.742  11.643   2.145  1.00  0.00     0.097 C 
ENDBRANCH   1   8
BRANCH   2  11
HETATM   11  O   UNL     1      63.914  10.833   5.750  1.00  0.00    -0.360 OA
HETATM   12  H   UNL     1      64.031  10.711   6.672  1.00  0.00     0.217 HD
ENDBRANCH   2  11
TORSDOF 2
ENDMDL
MODEL 4
REMARK VINA RESULT:      -4.5      2.311      3.890
REMARK  2 active torsions:
REMARK  status: ('A' for Active; 'I' for Inactive)
REMARK    1  A    between atoms: C_1  and  C_2 
REMARK    2  A    between atoms: C_3  and  O_9 
ROOT
HETATM    1  C   UNL     1      62.263   9.302   2.661  1.00  0.00     0.043 A 
HETATM    2  C   UNL     1      61.943  10.553   3.211  1.00  0.00     0.079 A 
HETATM    3  C   UNL     1      63.032   8.405   3.418  1.00  0.00     0.024 A 
HETATM    4  C   UNL     1      62.369  10.896   4.491  1.00  0.00     0.038 A 
HETATM    5  C   UNL     1      63.475   8.749   4.704  1.00  0.00    -0.061 A 
HETATM    6  C   UNL     1      63.131   9.997   5.237  1.00  0.00     0.009 A 
HETATM    7  C   UNL     1      64.322   7.803   5.506  1.00  0.00     0.048 C 
ENDROOT
BRANCH   1   8
HETATM    8  C   UNL     1      61.787   8.948   1.291  1.00  0.00     0.158 C 
HETATM    9  O   UNL     1      62.537   9.129   0.329  1.00  0.00    -0.293 OA
HETATM   10  C   UNL     1      60.407   8.373   1.111  1.00  0.00     0.097 C 
ENDBRANCH   1   8
BRANCH   2  11
HETATM   11  O   UNL     1      61.216  11.504   2.545  1.00  0.00    -0.360 OA
HETATM   12  H   UNL     1      61.651  12.128   1.997  1.00  0.00     0.217 HD
ENDBRANCH   2  11
TORSDOF 2
ENDMDL
MODEL 5
REMARK VINA RESULT:      -4.3      2.174      3.794
REMARK  2 active torsions:
REMARK  status: ('A' for Active; 'I' for Inactive)
REMARK    1  A    between atoms: C_1  and  C_2 
REMARK    2  A    between atoms: C_3  and  O_9 
ROOT
HETATM    1  C   UNL     1      62.678   9.425   3.606  1.00  0.00     0.043 A 
HETATM    2  C   UNL     1      62.010   9.023   2.439  1.00  0.00     0.079 A 
HETATM    3  C   UNL     1      63.644   8.573   4.162  1.00  0.00     0.024 A 
HETATM    4  C   UNL     1      62.309   7.806   1.834  1.00  0.00     0.038 A 
HETATM    5  C   UNL     1      63.941   7.339   3.564  1.00  0.00    -0.061 A 
HETATM    6  C   UNL     1      63.273   6.966   2.392  1.00  0.00     0.009 A 
HETATM    7  C   UNL     1      64.954   6.412   4.173  1.00  0.00     0.048 C 
ENDROOT
BRANCH   1   8
HETATM    8  C   UNL     1      62.353  10.740   4.234  1.00  0.00     0.158 C 
HETATM    9  O   UNL     1      61.671  11.553   3.607  1.00  0.00    -0.293 OA
HETATM   10  C   UNL     1      62.860  11.047   5.618  1.00  0.00     0.097 C 
ENDBRANCH   1   8
BRANCH   2  11
HETATM   11  O   UNL     1      61.038   9.774   1.831  1.00  0.00    -0.360 OA
HETATM   12  H   UNL     1      60.202   9.395   1.644  1.00  0.00     0.217 HD
ENDBRANCH   2  11
TORSDOF 2
ENDMDL
MODEL 6
REMARK VINA RESULT:      -4.3      1.777      2.447
REMARK  2 active torsions:
REMARK  status: ('A' for Active; 'I' for Inactive)
REMARK    1  A    between atoms: C_1  and  C_2 
REMARK    2  A    between atoms: C_3  and  O_9 
ROOT
HETATM    1  C   UNL     1      62.519   8.457   3.881  1.00  0.00     0.043 A 
HETATM    2  C   UNL     1      62.825   8.992   5.142  1.00  0.00     0.079 A 
HETATM    3  C   UNL     1      62.140   9.329   2.849  1.00  0.00     0.024 A 
HETATM    4  C   UNL     1      62.767  10.365   5.364  1.00  0.00     0.038 A 
HETATM    5  C   UNL     1      62.069  10.713   3.069  1.00  0.00    -0.061 A 
HETATM    6  C   UNL     1      62.392  11.224   4.331  1.00  0.00     0.009 A 
HETATM    7  C   UNL     1      61.636  11.646   1.975  1.00  0.00     0.048 C 
ENDROOT
BRANCH   1   8
HETATM    8  C   UNL     1      62.598   6.983   3.659  1.00  0.00     0.158 C 
HETATM    9  O   UNL     1      63.664   6.401   3.869  1.00  0.00    -0.293 OA
HETATM   10  C   UNL     1      61.378   6.237   3.189  1.00  0.00     0.097 C 
ENDBRANCH   1   8
BRANCH   2  11
HETATM   11  O   UNL     1      63.185   8.224   6.219  1.00  0.00    -0.360 OA
HETATM   12  H   UNL     1      63.863   7.584   6.131  1.00  0.00     0.217 HD
ENDBRANCH   2  11
TORSDOF 2
ENDMDL
MODEL 7
REMARK VINA RESULT:      -4.2      1.758      3.474
REMARK  2 active torsions:
REMARK  status: ('A' for Active; 'I' for Inactive)
REMARK    1  A    between atoms: C_1  and  C_2 
REMARK    2  A    between atoms: C_3  and  O_9 
ROOT
HETATM    1  C   UNL     1      62.944   8.620   4.718  1.00  0.00     0.043 A 
HETATM    2  C   UNL     1      62.789   7.722   5.784  1.00  0.00     0.079 A 
HETATM    3  C   UNL     1      63.210   8.112   3.437  1.00  0.00     0.024 A 
HETATM    4  C   UNL     1      62.882   6.349   5.576  1.00  0.00     0.038 A 
HETATM    5  C   UNL     1      63.317   6.730   3.222  1.00  0.00    -0.061 A 
HETATM    6  C   UNL     1      63.143   5.853   4.299  1.00  0.00     0.009 A 
HETATM    7  C   UNL     1      63.629   6.184   1.858  1.00  0.00     0.048 C 
ENDROOT
BRANCH   1   8
HETATM    8  C   UNL     1      62.829  10.089   4.958  1.00  0.00     0.158 C 
HETATM    9  O   UNL     1      63.363  10.578   5.956  1.00  0.00    -0.293 OA
HETATM   10  C   UNL     1      62.068  10.943   3.980  1.00  0.00     0.097 C 
ENDBRANCH   1   8
BRANCH   2  11
HETATM   11  O   UNL     1      62.548   8.119   7.074  1.00  0.00    -0.360 OA
HETATM   12  H   UNL     1      63.261   8.224   7.672  1.00  0.00     0.217 HD
ENDBRANCH   2  11
TORSDOF 2
ENDMDL
MODEL 8
REMARK VINA RESULT:      -4.1      3.717      5.359
REMARK  2 active torsions:
REMARK  status: ('A' for Active; 'I' for Inactive)
REMARK    1  A    between atoms: C_1  and  C_2 
REMARK    2  A    between atoms: C_3  and  O_9 
ROOT
HETATM    1  C   UNL     1      64.934   6.850   6.078  1.00  0.00     0.043 A 
HETATM    2  C   UNL     1      65.699   8.005   5.849  1.00  0.00     0.079 A 
HETATM    3  C   UNL     1      65.588   5.613   6.175  1.00  0.00     0.024 A 
HETATM    4  C   UNL     1      67.084   7.928   5.733  1.00  0.00     0.038 A 
HETATM    5  C   UNL     1      66.983   5.526   6.048  1.00  0.00    -0.061 A 
HETATM    6  C   UNL     1      67.725   6.693   5.834  1.00  0.00     0.009 A 
HETATM    7  C   UNL     1      67.683   4.200   6.123  1.00  0.00     0.048 C 
ENDROOT
BRANCH   1   8
HETATM    8  C   UNL     1      63.451   6.954   6.211  1.00  0.00     0.158 C 
HETATM    9  O   UNL     1      62.975   7.775   6.998  1.00  0.00    -0.293 OA
HETATM   10  C   UNL     1      62.568   6.060   5.382  1.00  0.00     0.097 C 
ENDBRANCH   1   8
BRANCH   2  11
HETATM   11  O   UNL     1      65.153   9.255   5.718  1.00  0.00    -0.360 OA
HETATM   12  H   UNL     1      64.327   9.363   5.289  1.00  0.00     0.217 HD
ENDBRANCH   2  11
TORSDOF 2
ENDMDL
MODEL 9
REMARK VINA RESULT:      -4.1      1.866      3.005
REMARK  2 active torsions:
REMARK  status: ('A' for Active; 'I' for Inactive)
REMARK    1  A    between atoms: C_1  and  C_2 
REMARK    2  A    between atoms: C_3  and  O_9 
ROOT
HETATM    1  C   UNL     1      63.001   8.273   3.525  1.00  0.00     0.043 A 
HETATM    2  C   UNL     1      62.883   7.473   2.378  1.00  0.00     0.079 A 
HETATM    3  C   UNL     1      62.601   9.616   3.459  1.00  0.00     0.024 A 
HETATM    4  C   UNL     1      62.367   7.997   1.197  1.00  0.00     0.038 A 
HETATM    5  C   UNL     1      62.090  10.154   2.268  1.00  0.00    -0.061 A 
HETATM    6  C   UNL     1      61.969   9.333   1.141  1.00  0.00     0.009 A 
HETATM    7  C   UNL     1      61.688  11.599   2.185  1.00  0.00     0.048 C 
ENDROOT
BRANCH   1   8
HETATM    8  C   UNL     1      63.545   7.690   4.787  1.00  0.00     0.158 C 
HETATM    9  O   UNL     1      64.709   7.283   4.807  1.00  0.00    -0.293 OA
HETATM   10  C   UNL     1      62.668   7.614   6.008  1.00  0.00     0.097 C 
ENDBRANCH   1   8
BRANCH   2  11
HETATM   11  O   UNL     1      63.265   6.158   2.336  1.00  0.00    -0.360 OA
HETATM   12  H   UNL     1      62.643   5.484   2.529  1.00  0.00     0.217 HD
ENDBRANCH   2  11
TORSDOF 2
ENDMDL
