MODEL 1
REMARK VINA RESULT:      -4.6      0.000      0.000
REMARK  4 active torsions:
REMARK  status: ('A' for Active; 'I' for Inactive)
REMARK    1  A    between atoms: C_1  and  C_3 
REMARK    2  A    between atoms: C_3  and  C_10 
REMARK    3  A    between atoms: C_4  and  C_11 
REMARK    4  A    between atoms: C_10  and  C_11 
ROOT
HETATM    1  C   UNL     1      64.442   8.937   4.987  1.00  0.00     0.166 C 
HETATM    2  O   UNL     1      64.359   9.904   5.745  1.00  0.00    -0.292 OA
ENDROOT
BRANCH   1   3
HETATM    3  C   UNL     1      65.530   7.967   5.079  1.00  0.00     0.050 A 
HETATM    4  S   UNL     1      66.671   8.004   6.359  1.00  0.00    -0.098 SA
HETATM    5  C   UNL     1      67.595   6.746   5.671  1.00  0.00     0.050 A 
HETATM    6  C   UNL     1      67.031   6.269   4.509  1.00  0.00     0.009 A 
HETATM    7  C   UNL     1      65.824   6.954   4.183  1.00  0.00     0.023 A 
ENDBRANCH   1   3
BRANCH   1   8
HETATM    8  C   UNL     1      63.363   8.706   3.928  1.00  0.00     0.095 C 
BRANCH   8   9
HETATM    9  C   UNL     1      62.098   9.512   4.187  1.00  0.00     0.121 C 
BRANCH   9  10
HETATM   10  C   UNL     1      61.992  10.703   3.271  1.00  0.00     0.172 C 
HETATM   11  O   UNL     1      61.884  10.694   2.061  1.00  0.00    -0.648 OA
HETATM   12  O   UNL     1      61.998  11.862   3.958  1.00  0.00    -0.648 OA
ENDBRANCH   9  10
ENDBRANCH   8   9
ENDBRANCH   1   8
TORSDOF 4
ENDMDL
MODEL 2
REMARK VINA RESULT:      -4.6      2.716      5.180
REMARK  4 active torsions:
REMARK  status: ('A' for Active; 'I' for Inactive)
REMARK    1  A    between atoms: C_1  and  C_3 
REMARK    2  A    between atoms: C_3  and  C_10 
REMARK    3  A    between atoms: C_4  and  C_11 
REMARK    4  A    between atoms: C_10  and  C_11 
ROOT
HETATM    1  C   UNL     1      62.099  10.439   3.914  1.00  0.00     0.166 C 
HETATM    2  O   UNL     1      61.807  11.635   3.904  1.00  0.00    -0.292 OA
ENDROOT
BRANCH   1   3
HETATM    3  C   UNL     1      61.726   9.538   2.826  1.00  0.00     0.050 A 
HETATM    4  S   UNL     1      60.784   8.131   3.097  1.00  0.00    -0.098 SA
HETATM    5  C   UNL     1      60.939   7.625   1.476  1.00  0.00     0.050 A 
HETATM    6  C   UNL     1      61.657   8.525   0.721  1.00  0.00     0.009 A 
HETATM    7  C   UNL     1      62.086   9.644   1.494  1.00  0.00     0.023 A 
ENDBRANCH   1   3
BRANCH   1   8
HETATM    8  C   UNL     1      62.908   9.862   5.077  1.00  0.00     0.095 C 
BRANCH   8   9
HETATM    9  C   UNL     1      63.974   8.875   4.623  1.00  0.00     0.121 C 
BRANCH   9  10
HETATM   10  C   UNL     1      64.862   8.442   5.760  1.00  0.00     0.172 C 
HETATM   11  O   UNL     1      65.943   8.902   6.067  1.00  0.00    -0.648 OA
HETATM   12  O   UNL     1      64.303   7.448   6.478  1.00  0.00    -0.648 OA
ENDBRANCH   9  10
ENDBRANCH   8   9
ENDBRANCH   1   8
TORSDOF 4
ENDMDL
MODEL 3
REMARK VINA RESULT:      -4.5      1.502      2.014
REMARK  4 active torsions:
REMARK  status: ('A' for Active; 'I' for Inactive)
REMARK    1  A    between atoms: C_1  and  C_3 
REMARK    2  A    between atoms: C_3  and  C_10 
REMARK    3  A    between atoms: C_4  and  C_11 
REMARK    4  A    between atoms: C_10  and  C_11 
ROOT
HETATM    1  C   UNL     1      64.217   7.849   5.882  1.00  0.00     0.166 C 
HETATM    2  O   UNL     1      63.301   7.616   6.671  1.00  0.00    -0.292 OA
ENDROOT
BRANCH   1   3
HETATM    3  C   UNL     1      65.542   7.254   6.032  1.00  0.00     0.050 A 
HETATM    4  S   UNL     1      65.922   6.200   7.331  1.00  0.00    -0.098 SA
HETATM    5  C   UNL     1      67.562   6.109   6.875  1.00  0.00     0.050 A 
HETATM    6  C   UNL     1      67.821   6.829   5.731  1.00  0.00     0.009 A 
HETATM    7  C   UNL     1      66.648   7.466   5.228  1.00  0.00     0.023 A 
ENDBRANCH   1   3
BRANCH   1   8
HETATM    8  C   UNL     1      63.972   8.760   4.679  1.00  0.00     0.095 C 
BRANCH   8   9
HETATM    9  C   UNL     1      62.633   9.482   4.747  1.00  0.00     0.121 C 
BRANCH   9  10
HETATM   10  C   UNL     1      62.773  10.878   5.295  1.00  0.00     0.172 C 
HETATM   11  O   UNL     1      63.429  11.230   6.255  1.00  0.00    -0.648 OA
HETATM   12  O   UNL     1      62.081  11.772   4.563  1.00  0.00    -0.648 OA
ENDBRANCH   9  10
ENDBRANCH   8   9
ENDBRANCH   1   8
TORSDOF 4
ENDMDL
MODEL 4
REMARK VINA RESULT:      -4.5      2.768      5.504
REMARK  4 active torsions:
REMARK  status: ('A' for Active; 'I' for Inactive)
REMARK    1  A    between atoms: C_1  and  C_3 
REMARK    2  A    between atoms: C_3  and  C_10 
REMARK    3  A    between atoms: C_4  and  C_11 
REMARK    4  A    between atoms: C_10  and  C_11 
ROOT
HETATM    1  C   UNL     1      63.389   8.806   5.158  1.00  0.00     0.166 C 
HETATM    2  O   UNL     1      62.811   8.553   6.216  1.00  0.00    -0.292 OA
ENDROOT
BRANCH   1   3
HETATM    3  C   UNL     1      62.722   9.489   4.053  1.00  0.00     0.050 A 
HETATM    4  S   UNL     1      62.479   8.732   2.534  1.00  0.00    -0.098 SA
HETATM    5  C   UNL     1      61.839  10.154   1.844  1.00  0.00     0.050 A 
HETATM    6  C   UNL     1      61.767  11.182   2.756  1.00  0.00     0.009 A 
HETATM    7  C   UNL     1      62.250  10.789   4.039  1.00  0.00     0.023 A 
ENDBRANCH   1   3
BRANCH   1   8
HETATM    8  C   UNL     1      64.862   8.432   4.987  1.00  0.00     0.095 C 
BRANCH   8   9
HETATM    9  C   UNL     1      65.276   7.251   5.854  1.00  0.00     0.121 C 
BRANCH   9  10
HETATM   10  C   UNL     1      66.439   7.590   6.749  1.00  0.00     0.172 C 
HETATM   11  O   UNL     1      67.178   6.815   7.323  1.00  0.00    -0.648 OA
HETATM   12  O   UNL     1      66.622   8.921   6.846  1.00  0.00    -0.648 OA
ENDBRANCH   9  10
ENDBRANCH   8   9
ENDBRANCH   1   8
TORSDOF 4
ENDMDL
MODEL 5
REMARK VINA RESULT:      -4.4      2.899      5.061
REMARK  4 active torsions:
REMARK  status: ('A' for Active; 'I' for Inactive)
REMARK    1  A    between atoms: C_1  and  C_3 
REMARK    2  A    between atoms: C_3  and  C_10 
REMARK    3  A    between atoms: C_4  and  C_11 
REMARK    4  A    between atoms: C_10  and  C_11 
ROOT
HETATM    1  C   UNL     1      63.152   7.756   5.797  1.00  0.00     0.166 C 
HETATM    2  O   UNL     1      62.693   7.700   6.939  1.00  0.00    -0.292 OA
ENDROOT
BRANCH   1   3
HETATM    3  C   UNL     1      62.768   8.803   4.855  1.00  0.00     0.050 A 
HETATM    4  S   UNL     1      62.882  10.467   5.253  1.00  0.00    -0.098 SA
HETATM    5  C   UNL     1      62.149  10.943   3.789  1.00  0.00     0.050 A 
HETATM    6  C   UNL     1      61.857   9.866   2.983  1.00  0.00     0.009 A 
HETATM    7  C   UNL     1      62.241   8.632   3.587  1.00  0.00     0.023 A 
ENDBRANCH   1   3
BRANCH   1   8
HETATM    8  C   UNL     1      64.186   6.725   5.342  1.00  0.00     0.095 C 
BRANCH   8   9
HETATM    9  C   UNL     1      65.568   7.327   5.129  1.00  0.00     0.121 C 
BRANCH   9  10
HETATM   10  C   UNL     1      66.191   7.779   6.424  1.00  0.00     0.172 C 
HETATM   11  O   UNL     1      66.633   7.078   7.312  1.00  0.00    -0.648 OA
HETATM   12  O   UNL     1      66.245   9.122   6.509  1.00  0.00    -0.648 OA
ENDBRANCH   9  10
ENDBRANCH   8   9
ENDBRANCH   1   8
TORSDOF 4
ENDMDL
MODEL 6
REMARK VINA RESULT:      -4.3      2.931      5.304
REMARK  4 active torsions:
REMARK  status: ('A' for Active; 'I' for Inactive)
REMARK    1  A    between atoms: C_1  and  C_3 
REMARK    2  A    between atoms: C_3  and  C_10 
REMARK    3  A    between atoms: C_4  and  C_11 
REMARK    4  A    between atoms: C_10  and  C_11 
ROOT
HETATM    1  C   UNL     1      62.534   7.951   3.691  1.00  0.00     0.166 C 
HETATM    2  O   UNL     1      61.701   7.194   4.191  1.00  0.00    -0.292 OA
ENDROOT
BRANCH   1   3
HETATM    3  C   UNL     1      62.199   9.307   3.268  1.00  0.00     0.050 A 
HETATM    4  S   UNL     1      61.993   9.718   1.616  1.00  0.00    -0.098 SA
HETATM    5  C   UNL     1      61.798  11.373   1.974  1.00  0.00     0.050 A 
HETATM    6  C   UNL     1      61.844  11.617   3.328  1.00  0.00     0.009 A 
HETATM    7  C   UNL     1      62.046  10.420   4.077  1.00  0.00     0.023 A 
ENDBRANCH   1   3
BRANCH   1   8
HETATM    8  C   UNL     1      63.983   7.486   3.529  1.00  0.00     0.095 C 
BRANCH   8   9
HETATM    9  C   UNL     1      64.669   7.218   4.861  1.00  0.00     0.121 C 
BRANCH   9  10
HETATM   10  C   UNL     1      65.459   8.409   5.338  1.00  0.00     0.172 C 
HETATM   11  O   UNL     1      65.026   9.485   5.697  1.00  0.00    -0.648 OA
HETATM   12  O   UNL     1      66.782   8.153   5.358  1.00  0.00    -0.648 OA
ENDBRANCH   9  10
ENDBRANCH   8   9
ENDBRANCH   1   8
TORSDOF 4
ENDMDL
MODEL 7
REMARK VINA RESULT:      -4.2      2.561      3.600
REMARK  4 active torsions:
REMARK  status: ('A' for Active; 'I' for Inactive)
REMARK    1  A    between atoms: C_1  and  C_3 
REMARK    2  A    between atoms: C_3  and  C_10 
REMARK    3  A    between atoms: C_4  and  C_11 
REMARK    4  A    between atoms: C_10  and  C_11 
ROOT
HETATM    1  C   UNL     1      66.130   7.849   6.190  1.00  0.00     0.166 C 
HETATM    2  O   UNL     1      66.116   9.054   6.442  1.00  0.00    -0.292 OA
ENDROOT
BRANCH   1   3
HETATM    3  C   UNL     1      66.837   6.887   7.031  1.00  0.00     0.050 A 
HETATM    4  S   UNL     1      67.631   5.517   6.372  1.00  0.00    -0.098 SA
HETATM    5  C   UNL     1      68.016   4.905   7.916  1.00  0.00     0.050 A 
HETATM    6  C   UNL     1      67.590   5.740   8.923  1.00  0.00     0.009 A 
HETATM    7  C   UNL     1      66.935   6.899   8.411  1.00  0.00     0.023 A 
ENDBRANCH   1   3
BRANCH   1   8
HETATM    8  C   UNL     1      65.361   7.316   4.980  1.00  0.00     0.095 C 
BRANCH   8   9
HETATM    9  C   UNL     1      64.049   6.647   5.362  1.00  0.00     0.121 C 
BRANCH   9  10
HETATM   10  C   UNL     1      63.039   7.639   5.877  1.00  0.00     0.172 C 
HETATM   11  O   UNL     1      62.613   7.735   7.010  1.00  0.00    -0.648 OA
HETATM   12  O   UNL     1      62.640   8.489   4.912  1.00  0.00    -0.648 OA
ENDBRANCH   9  10
ENDBRANCH   8   9
ENDBRANCH   1   8
TORSDOF 4
ENDMDL
MODEL 8
REMARK VINA RESULT:      -4.2      2.893      4.953
REMARK  4 active torsions:
REMARK  status: ('A' for Active; 'I' for Inactive)
REMARK    1  A    between atoms: C_1  and  C_3 
REMARK    2  A    between atoms: C_3  and  C_10 
REMARK    3  A    between atoms: C_4  and  C_11 
REMARK    4  A    between atoms: C_10  and  C_11 
ROOT
HETATM    1  C   UNL     1      62.189   7.570   4.444  1.00  0.00     0.166 C 
HETATM    2  O   UNL     1      61.601   6.495   4.322  1.00  0.00    -0.292 OA
ENDROOT
BRANCH   1   3
HETATM    3  C   UNL     1      62.158   8.595   3.405  1.00  0.00     0.050 A 
HETATM    4  S   UNL     1      61.962  10.258   3.777  1.00  0.00    -0.098 SA
HETATM    5  C   UNL     1      61.884  10.693   2.130  1.00  0.00     0.050 A 
HETATM    6  C   UNL     1      62.046   9.606   1.301  1.00  0.00     0.009 A 
HETATM    7  C   UNL     1      62.234   8.400   2.037  1.00  0.00     0.023 A 
ENDBRANCH   1   3
BRANCH   1   8
HETATM    8  C   UNL     1      62.954   7.877   5.733  1.00  0.00     0.095 C 
BRANCH   8   9
HETATM    9  C   UNL     1      64.376   7.335   5.719  1.00  0.00     0.121 C 
BRANCH   9  10
HETATM   10  C   UNL     1      65.391   8.424   5.485  1.00  0.00     0.172 C 
HETATM   11  O   UNL     1      66.509   8.302   5.025  1.00  0.00    -0.648 OA
HETATM   12  O   UNL     1      64.911   9.635   5.827  1.00  0.00    -0.648 OA
ENDBRANCH   9  10
ENDBRANCH   8   9
ENDBRANCH   1   8
TORSDOF 4
ENDMDL
MODEL 9
REMARK VINA RESULT:      -4.0      2.525      5.327
REMARK  4 active torsions:
REMARK  status: ('A' for Active; 'I' for Inactive)
REMARK    1  A    between atoms: C_1  and  C_3 
REMARK    2  A    between atoms: C_3  and  C_10 
REMARK    3  A    between atoms: C_4  and  C_11 
REMARK    4  A    between atoms: C_10  and  C_11 
ROOT
HETATM    1  C   UNL     1      64.299   9.030   5.153  1.00  0.00     0.166 C 
HETATM    2  O   UNL     1      64.445  10.087   5.768  1.00  0.00    -0.292 OA
ENDROOT
BRANCH   1   3
HETATM    3  C   UNL     1      63.059   8.702   4.455  1.00  0.00     0.050 A 
HETATM    4  S   UNL     1      62.114   7.335   4.879  1.00  0.00    -0.098 SA
HETATM    5  C   UNL     1      61.036   7.585   3.583  1.00  0.00     0.050 A 
HETATM    6  C   UNL     1      61.353   8.711   2.857  1.00  0.00     0.009 A 
HETATM    7  C   UNL     1      62.504   9.372   3.379  1.00  0.00     0.023 A 
ENDBRANCH   1   3
BRANCH   1   8
HETATM    8  C   UNL     1      65.453   8.030   5.074  1.00  0.00     0.095 C 
BRANCH   8   9
HETATM    9  C   UNL     1      66.429   8.162   6.235  1.00  0.00     0.121 C 
BRANCH   9  10
HETATM   10  C   UNL     1      66.269   7.047   7.235  1.00  0.00     0.172 C 
HETATM   11  O   UNL     1      67.140   6.328   7.683  1.00  0.00    -0.648 OA
HETATM   12  O   UNL     1      64.991   6.923   7.642  1.00  0.00    -0.648 OA
ENDBRANCH   9  10
ENDBRANCH   8   9
ENDBRANCH   1   8
TORSDOF 4
ENDMDL
