MODEL 1
REMARK VINA RESULT:      -5.6      0.000      0.000
REMARK  3 active torsions:
REMARK  status: ('A' for Active; 'I' for Inactive)
REMARK    1  A    between atoms: C_3  and  C_6 
REMARK    2  A    between atoms: C_6  and  C_10 
REMARK    3  A    between atoms: O_7  and  C_10 
ROOT
HETATM    1  N   UNL     1      61.534  10.760   2.060  1.00  0.00    -0.365 N 
HETATM    2  C   UNL     1      61.866  11.094   3.347  1.00  0.00     0.096 A 
HETATM    3  C   UNL     1      62.524  10.022   3.918  1.00  0.00    -0.028 A 
HETATM    4  C   UNL     1      62.572   8.989   2.924  1.00  0.00    -0.002 A 
HETATM    5  C   UNL     1      61.946   9.478   1.777  1.00  0.00     0.042 A 
HETATM    6  C   UNL     1      63.087   7.675   2.898  1.00  0.00     0.014 A 
HETATM    7  C   UNL     1      61.815   8.726   0.606  1.00  0.00     0.030 A 
HETATM    8  C   UNL     1      62.957   6.905   1.738  1.00  0.00     0.001 A 
HETATM    9  C   UNL     1      62.331   7.425   0.607  1.00  0.00     0.002 A 
HETATM   10  H   UNL     1      61.066  11.353   1.430  1.00  0.00     0.165 HD
ENDROOT
BRANCH   3  11
HETATM   11  C   UNL     1      63.083   9.949   5.306  1.00  0.00     0.067 C 
BRANCH  11  12
HETATM   12  C   UNL     1      63.152  11.309   6.001  1.00  0.00     0.168 C 
BRANCH  12  13
HETATM   13  O   UNL     1      64.444  11.571   6.539  1.00  0.00    -0.401 OA
HETATM   14  H   UNL     1      64.712  12.475   6.311  1.00  0.00     0.209 HD
ENDBRANCH  12  13
ENDBRANCH  11  12
ENDBRANCH   3  11
TORSDOF 3
ENDMDL
MODEL 2
REMARK VINA RESULT:      -5.0      1.443      2.196
REMARK  3 active torsions:
REMARK  status: ('A' for Active; 'I' for Inactive)
REMARK    1  A    between atoms: C_3  and  C_6 
REMARK    2  A    between atoms: C_6  and  C_10 
REMARK    3  A    between atoms: O_7  and  C_10 
ROOT
HETATM    1  N   UNL     1      63.616   7.455   4.203  1.00  0.00    -0.365 N 
HETATM    2  C   UNL     1      63.547   8.530   5.050  1.00  0.00     0.096 A 
HETATM    3  C   UNL     1      62.933   9.571   4.381  1.00  0.00    -0.028 A 
HETATM    4  C   UNL     1      62.634   9.097   3.061  1.00  0.00    -0.002 A 
HETATM    5  C   UNL     1      63.073   7.774   2.979  1.00  0.00     0.042 A 
HETATM    6  C   UNL     1      62.035   9.676   1.922  1.00  0.00     0.014 A 
HETATM    7  C   UNL     1      62.936   7.002   1.822  1.00  0.00     0.030 A 
HETATM    8  C   UNL     1      61.898   8.920   0.754  1.00  0.00     0.001 A 
HETATM    9  C   UNL     1      62.342   7.600   0.706  1.00  0.00     0.002 A 
HETATM   10  H   UNL     1      64.000   6.580   4.436  1.00  0.00     0.165 HD
ENDROOT
BRANCH   3  11
HETATM   11  C   UNL     1      62.632  10.934   4.927  1.00  0.00     0.067 C 
BRANCH  11  12
HETATM   12  C   UNL     1      63.120  11.129   6.363  1.00  0.00     0.168 C 
BRANCH  12  13
HETATM   13  O   UNL     1      64.470  11.583   6.412  1.00  0.00    -0.401 OA
HETATM   14  H   UNL     1      64.669  11.908   7.304  1.00  0.00     0.209 HD
ENDBRANCH  12  13
ENDBRANCH  11  12
ENDBRANCH   3  11
TORSDOF 3
ENDMDL
MODEL 3
REMARK VINA RESULT:      -5.0      1.807      3.174
REMARK  3 active torsions:
REMARK  status: ('A' for Active; 'I' for Inactive)
REMARK    1  A    between atoms: C_3  and  C_6 
REMARK    2  A    between atoms: C_6  and  C_10 
REMARK    3  A    between atoms: O_7  and  C_10 
ROOT
HETATM    1  N   UNL     1      62.837   7.724   1.952  1.00  0.00    -0.365 N 
HETATM    2  C   UNL     1      63.328   7.046   3.037  1.00  0.00     0.096 A 
HETATM    3  C   UNL     1      63.274   7.884   4.134  1.00  0.00    -0.028 A 
HETATM    4  C   UNL     1      62.738   9.133   3.675  1.00  0.00    -0.002 A 
HETATM    5  C   UNL     1      62.476   9.003   2.310  1.00  0.00     0.042 A 
HETATM    6  C   UNL     1      62.457  10.368   4.297  1.00  0.00     0.014 A 
HETATM    7  C   UNL     1      61.943  10.040   1.539  1.00  0.00     0.030 A 
HETATM    8  C   UNL     1      61.931  11.419   3.540  1.00  0.00     0.001 A 
HETATM    9  C   UNL     1      61.677  11.255   2.179  1.00  0.00     0.002 A 
HETATM   10  H   UNL     1      62.757   7.350   1.045  1.00  0.00     0.165 HD
ENDROOT
BRANCH   3  11
HETATM   11  C   UNL     1      63.691   7.555   5.535  1.00  0.00     0.067 C 
BRANCH  11  12
HETATM   12  C   UNL     1      65.186   7.758   5.783  1.00  0.00     0.168 C 
BRANCH  12  13
HETATM   13  O   UNL     1      65.507   9.124   6.024  1.00  0.00    -0.401 OA
HETATM   14  H   UNL     1      66.394   9.184   6.413  1.00  0.00     0.209 HD
ENDBRANCH  12  13
ENDBRANCH  11  12
ENDBRANCH   3  11
TORSDOF 3
ENDMDL
MODEL 4
REMARK VINA RESULT:      -5.0      1.731      2.252
REMARK  3 active torsions:
REMARK  status: ('A' for Active; 'I' for Inactive)
REMARK    1  A    between atoms: C_3  and  C_6 
REMARK    2  A    between atoms: C_6  and  C_10 
REMARK    3  A    between atoms: O_7  and  C_10 
ROOT
HETATM    1  N   UNL     1      62.271  10.926   4.378  1.00  0.00    -0.365 N 
HETATM    2  C   UNL     1      62.923  10.272   5.390  1.00  0.00     0.096 A 
HETATM    3  C   UNL     1      63.317   9.033   4.923  1.00  0.00    -0.028 A 
HETATM    4  C   UNL     1      62.861   8.938   3.566  1.00  0.00    -0.002 A 
HETATM    5  C   UNL     1      62.212  10.133   3.255  1.00  0.00     0.042 A 
HETATM    6  C   UNL     1      62.937   7.938   2.574  1.00  0.00     0.014 A 
HETATM    7  C   UNL     1      61.641  10.381   2.003  1.00  0.00     0.030 A 
HETATM    8  C   UNL     1      62.364   8.165   1.319  1.00  0.00     0.001 A 
HETATM    9  C   UNL     1      61.726   9.372   1.038  1.00  0.00     0.002 A 
HETATM   10  H   UNL     1      61.897  11.834   4.446  1.00  0.00     0.165 HD
ENDROOT
BRANCH   3  11
HETATM   11  C   UNL     1      64.077   7.989   5.683  1.00  0.00     0.067 C 
BRANCH  11  12
HETATM   12  C   UNL     1      65.591   8.085   5.490  1.00  0.00     0.168 C 
BRANCH  12  13
HETATM   13  O   UNL     1      66.205   8.905   6.480  1.00  0.00    -0.401 OA
HETATM   14  H   UNL     1      65.880   8.650   7.358  1.00  0.00     0.209 HD
ENDBRANCH  12  13
ENDBRANCH  11  12
ENDBRANCH   3  11
TORSDOF 3
ENDMDL
MODEL 5
REMARK VINA RESULT:      -4.9      2.562      3.751
REMARK  3 active torsions:
REMARK  status: ('A' for Active; 'I' for Inactive)
REMARK    1  A    between atoms: C_3  and  C_6 
REMARK    2  A    between atoms: C_6  and  C_10 
REMARK    3  A    between atoms: O_7  and  C_10 
ROOT
HETATM    1  N   UNL     1      63.932  10.011   5.758  1.00  0.00    -0.365 N 
HETATM    2  C   UNL     1      62.862  10.566   5.108  1.00  0.00     0.096 A 
HETATM    3  C   UNL     1      62.533   9.752   4.041  1.00  0.00    -0.028 A 
HETATM    4  C   UNL     1      63.466   8.663   4.047  1.00  0.00    -0.002 A 
HETATM    5  C   UNL     1      64.327   8.853   5.129  1.00  0.00     0.042 A 
HETATM    6  C   UNL     1      63.661   7.534   3.225  1.00  0.00     0.014 A 
HETATM    7  C   UNL     1      65.366   7.968   5.433  1.00  0.00     0.030 A 
HETATM    8  C   UNL     1      64.701   6.643   3.509  1.00  0.00     0.001 A 
HETATM    9  C   UNL     1      65.540   6.858   4.600  1.00  0.00     0.002 A 
HETATM   10  H   UNL     1      64.359  10.388   6.561  1.00  0.00     0.165 HD
ENDROOT
BRANCH   3  11
HETATM   11  C   UNL     1      61.414   9.962   3.065  1.00  0.00     0.067 C 
BRANCH  11  12
HETATM   12  C   UNL     1      61.870  10.608   1.756  1.00  0.00     0.168 C 
BRANCH  12  13
HETATM   13  O   UNL     1      62.098  12.007   1.901  1.00  0.00    -0.401 OA
HETATM   14  H   UNL     1      62.925  12.151   2.387  1.00  0.00     0.209 HD
ENDBRANCH  12  13
ENDBRANCH  11  12
ENDBRANCH   3  11
TORSDOF 3
ENDMDL
MODEL 6
REMARK VINA RESULT:      -4.9      2.812      4.889
REMARK  3 active torsions:
REMARK  status: ('A' for Active; 'I' for Inactive)
REMARK    1  A    between atoms: C_3  and  C_6 
REMARK    2  A    between atoms: C_6  and  C_10 
REMARK    3  A    between atoms: O_7  and  C_10 
ROOT
HETATM    1  N   UNL     1      63.566   7.545   3.513  1.00  0.00    -0.365 N 
HETATM    2  C   UNL     1      62.986   7.300   2.297  1.00  0.00     0.096 A 
HETATM    3  C   UNL     1      62.247   8.410   1.936  1.00  0.00    -0.028 A 
HETATM    4  C   UNL     1      62.380   9.360   3.002  1.00  0.00    -0.002 A 
HETATM    5  C   UNL     1      63.208   8.792   3.972  1.00  0.00     0.042 A 
HETATM    6  C   UNL     1      61.866  10.653   3.234  1.00  0.00     0.014 A 
HETATM    7  C   UNL     1      63.552   9.453   5.155  1.00  0.00     0.030 A 
HETATM    8  C   UNL     1      62.192  11.325   4.416  1.00  0.00     0.001 A 
HETATM    9  C   UNL     1      63.025  10.732   5.362  1.00  0.00     0.002 A 
HETATM   10  H   UNL     1      64.154   6.918   3.992  1.00  0.00     0.165 HD
ENDROOT
BRANCH   3  11
HETATM   11  C   UNL     1      61.458   8.591   0.675  1.00  0.00     0.067 C 
BRANCH  11  12
HETATM   12  C   UNL     1      60.120   7.852   0.689  1.00  0.00     0.168 C 
BRANCH  12  13
HETATM   13  O   UNL     1      59.029   8.725   0.968  1.00  0.00    -0.401 OA
HETATM   14  H   UNL     1      58.205   8.324   0.651  1.00  0.00     0.209 HD
ENDBRANCH  12  13
ENDBRANCH  11  12
ENDBRANCH   3  11
TORSDOF 3
ENDMDL
MODEL 7
REMARK VINA RESULT:      -4.4      2.701      4.136
REMARK  3 active torsions:
REMARK  status: ('A' for Active; 'I' for Inactive)
REMARK    1  A    between atoms: C_3  and  C_6 
REMARK    2  A    between atoms: C_6  and  C_10 
REMARK    3  A    between atoms: O_7  and  C_10 
ROOT
HETATM    1  N   UNL     1      63.019   9.502   5.549  1.00  0.00    -0.365 N 
HETATM    2  C   UNL     1      63.429   8.198   5.456  1.00  0.00     0.096 A 
HETATM    3  C   UNL     1      63.295   7.793   4.142  1.00  0.00    -0.028 A 
HETATM    4  C   UNL     1      62.763   8.910   3.417  1.00  0.00    -0.002 A 
HETATM    5  C   UNL     1      62.600   9.960   4.321  1.00  0.00     0.042 A 
HETATM    6  C   UNL     1      62.397   9.121   2.071  1.00  0.00     0.014 A 
HETATM    7  C   UNL     1      62.098  11.210   3.947  1.00  0.00     0.030 A 
HETATM    8  C   UNL     1      61.885  10.362   1.681  1.00  0.00     0.001 A 
HETATM    9  C   UNL     1      61.739  11.393   2.608  1.00  0.00     0.002 A 
HETATM   10  H   UNL     1      63.023  10.034   6.377  1.00  0.00     0.165 HD
ENDROOT
BRANCH   3  11
HETATM   11  C   UNL     1      63.642   6.448   3.579  1.00  0.00     0.067 C 
BRANCH  11  12
HETATM   12  C   UNL     1      62.414   5.603   3.237  1.00  0.00     0.168 C 
BRANCH  12  13
HETATM   13  O   UNL     1      61.555   5.430   4.360  1.00  0.00    -0.401 OA
HETATM   14  H   UNL     1      61.145   6.280   4.587  1.00  0.00     0.209 HD
ENDBRANCH  12  13
ENDBRANCH  11  12
ENDBRANCH   3  11
TORSDOF 3
ENDMDL
MODEL 8
REMARK VINA RESULT:      -4.4      2.983      4.106
REMARK  3 active torsions:
REMARK  status: ('A' for Active; 'I' for Inactive)
REMARK    1  A    between atoms: C_3  and  C_6 
REMARK    2  A    between atoms: C_6  and  C_10 
REMARK    3  A    between atoms: O_7  and  C_10 
ROOT
HETATM    1  N   UNL     1      64.137   7.017   3.315  1.00  0.00    -0.365 N 
HETATM    2  C   UNL     1      65.223   6.882   4.139  1.00  0.00     0.096 A 
HETATM    3  C   UNL     1      65.233   7.946   5.021  1.00  0.00    -0.028 A 
HETATM    4  C   UNL     1      64.102   8.765   4.694  1.00  0.00    -0.002 A 
HETATM    5  C   UNL     1      63.439   8.161   3.626  1.00  0.00     0.042 A 
HETATM    6  C   UNL     1      63.585   9.974   5.207  1.00  0.00     0.014 A 
HETATM    7  C   UNL     1      62.283   8.698   3.050  1.00  0.00     0.030 A 
HETATM    8  C   UNL     1      62.435  10.530   4.639  1.00  0.00     0.001 A 
HETATM    9  C   UNL     1      61.793   9.899   3.575  1.00  0.00     0.002 A 
HETATM   10  H   UNL     1      63.893   6.385   2.601  1.00  0.00     0.165 HD
ENDROOT
BRANCH   3  11
HETATM   11  C   UNL     1      66.229   8.197   6.112  1.00  0.00     0.067 C 
BRANCH  11  12
HETATM   12  C   UNL     1      66.242   7.103   7.180  1.00  0.00     0.168 C 
BRANCH  12  13
HETATM   13  O   UNL     1      67.209   7.357   8.195  1.00  0.00    -0.401 OA
HETATM   14  H   UNL     1      67.028   6.792   8.963  1.00  0.00     0.209 HD
ENDBRANCH  12  13
ENDBRANCH  11  12
ENDBRANCH   3  11
TORSDOF 3
ENDMDL
MODEL 9
REMARK VINA RESULT:      -4.3      2.334      3.417
REMARK  3 active torsions:
REMARK  status: ('A' for Active; 'I' for Inactive)
REMARK    1  A    between atoms: C_3  and  C_6 
REMARK    2  A    between atoms: C_6  and  C_10 
REMARK    3  A    between atoms: O_7  and  C_10 
ROOT
HETATM    1  N   UNL     1      61.738   7.058   1.859  1.00  0.00    -0.365 N 
HETATM    2  C   UNL     1      61.636   6.352   3.028  1.00  0.00     0.096 A 
HETATM    3  C   UNL     1      61.634   7.249   4.078  1.00  0.00    -0.028 A 
HETATM    4  C   UNL     1      61.757   8.558   3.505  1.00  0.00    -0.002 A 
HETATM    5  C   UNL     1      61.821   8.407   2.119  1.00  0.00     0.042 A 
HETATM    6  C   UNL     1      61.826   9.861   4.041  1.00  0.00     0.014 A 
HETATM    7  C   UNL     1      61.944   9.490   1.244  1.00  0.00     0.030 A 
HETATM    8  C   UNL     1      61.958  10.956   3.181  1.00  0.00     0.001 A 
HETATM    9  C   UNL     1      62.014  10.771   1.801  1.00  0.00     0.002 A 
HETATM   10  H   UNL     1      61.752   6.657   0.960  1.00  0.00     0.165 HD
ENDROOT
BRANCH   3  11
HETATM   11  C   UNL     1      61.521   6.922   5.537  1.00  0.00     0.067 C 
BRANCH  11  12
HETATM   12  C   UNL     1      62.854   6.521   6.169  1.00  0.00     0.168 C 
BRANCH  12  13
HETATM   13  O   UNL     1      63.425   7.580   6.932  1.00  0.00    -0.401 OA
HETATM   14  H   UNL     1      62.747   7.964   7.510  1.00  0.00     0.209 HD
ENDBRANCH  12  13
ENDBRANCH  11  12
ENDBRANCH   3  11
TORSDOF 3
ENDMDL
