MODEL 1
REMARK VINA RESULT:      -4.6      0.000      0.000
REMARK  2 active torsions:
REMARK  status: ('A' for Active; 'I' for Inactive)
REMARK    1  A    between atoms: C_3  and  C_7 
REMARK    2  A    between atoms: O_6  and  C_7 
ROOT
HETATM    1  N   UNL     1      62.714   8.760   2.703  1.00  0.00    -0.066 N 
HETATM    2  C   UNL     1      62.408   9.150   4.095  1.00  0.00     0.194 C 
HETATM    3  C   UNL     1      63.271   8.342   5.092  1.00  0.00     0.040 C 
HETATM    4  C   UNL     1      62.527   7.313   2.467  1.00  0.00     0.235 C 
HETATM    5  C   UNL     1      61.877   9.510   1.745  1.00  0.00     0.235 C 
HETATM    6  C   UNL     1      63.108   6.372   3.530  1.00  0.00     0.028 C 
HETATM    7  C   UNL     1      62.878   6.863   4.954  1.00  0.00     0.010 C 
HETATM    8  C   UNL     1      62.569  10.660   4.313  1.00  0.00     0.034 C 
HETATM    9  C   UNL     1      62.016  11.023   1.905  1.00  0.00     0.028 C 
HETATM   10  C   UNL     1      61.716  11.460   3.334  1.00  0.00     0.004 C 
HETATM   11  H   UNL     1      63.697   8.988   2.557  1.00  0.00     0.280 HD
ENDROOT
BRANCH   3  12
HETATM   12  C   UNL     1      64.786   8.550   4.915  1.00  0.00     0.170 C 
BRANCH  12  13
HETATM   13  O   UNL     1      65.279   9.329   6.003  1.00  0.00    -0.400 OA
HETATM   14  H   UNL     1      66.164   9.661   5.786  1.00  0.00     0.209 HD
ENDBRANCH  12  13
ENDBRANCH   3  12
TORSDOF 2
ENDMDL
MODEL 2
REMARK VINA RESULT:      -4.5      1.364      2.995
REMARK  2 active torsions:
REMARK  status: ('A' for Active; 'I' for Inactive)
REMARK    1  A    between atoms: C_3  and  C_7 
REMARK    2  A    between atoms: O_6  and  C_7 
ROOT
HETATM    1  N   UNL     1      61.958   9.556   3.185  1.00  0.00    -0.066 N 
HETATM    2  C   UNL     1      63.093   8.612   3.222  1.00  0.00     0.194 C 
HETATM    3  C   UNL     1      63.481   8.278   4.681  1.00  0.00     0.040 C 
HETATM    4  C   UNL     1      62.236  10.805   3.926  1.00  0.00     0.235 C 
HETATM    5  C   UNL     1      61.596   9.899   1.795  1.00  0.00     0.235 C 
HETATM    6  C   UNL     1      62.881  10.643   5.309  1.00  0.00     0.028 C 
HETATM    7  C   UNL     1      63.970   9.577   5.340  1.00  0.00     0.010 C 
HETATM    8  C   UNL     1      62.802   7.339   2.416  1.00  0.00     0.034 C 
HETATM    9  C   UNL     1      61.275   8.666   0.953  1.00  0.00     0.028 C 
HETATM   10  C   UNL     1      62.423   7.665   0.975  1.00  0.00     0.004 C 
HETATM   11  H   UNL     1      61.179   9.078   3.638  1.00  0.00     0.280 HD
ENDROOT
BRANCH   3  12
HETATM   12  C   UNL     1      62.350   7.617   5.490  1.00  0.00     0.170 C 
BRANCH  12  13
HETATM   13  O   UNL     1      62.739   7.547   6.861  1.00  0.00    -0.400 OA
HETATM   14  H   UNL     1      62.439   6.704   7.238  1.00  0.00     0.209 HD
ENDBRANCH  12  13
ENDBRANCH   3  12
TORSDOF 2
ENDMDL
MODEL 3
REMARK VINA RESULT:      -4.5      2.126      3.893
REMARK  2 active torsions:
REMARK  status: ('A' for Active; 'I' for Inactive)
REMARK    1  A    between atoms: C_3  and  C_7 
REMARK    2  A    between atoms: O_6  and  C_7 
ROOT
HETATM    1  N   UNL     1      61.347   7.989   3.676  1.00  0.00    -0.066 N 
HETATM    2  C   UNL     1      62.659   8.459   3.184  1.00  0.00     0.194 C 
HETATM    3  C   UNL     1      62.480   9.561   2.114  1.00  0.00     0.040 C 
HETATM    4  C   UNL     1      60.479   7.493   2.587  1.00  0.00     0.235 C 
HETATM    5  C   UNL     1      61.509   6.919   4.681  1.00  0.00     0.235 C 
HETATM    6  C   UNL     1      60.408   8.365   1.327  1.00  0.00     0.028 C 
HETATM    7  C   UNL     1      61.761   8.930   0.912  1.00  0.00     0.010 C 
HETATM    8  C   UNL     1      63.561   8.933   4.330  1.00  0.00     0.034 C 
HETATM    9  C   UNL     1      62.384   7.348   5.857  1.00  0.00     0.028 C 
HETATM   10  C   UNL     1      63.743   7.847   5.385  1.00  0.00     0.004 C 
HETATM   11  H   UNL     1      60.900   8.801   4.102  1.00  0.00     0.280 HD
ENDROOT
BRANCH   3  12
HETATM   12  C   UNL     1      61.745  10.813   2.628  1.00  0.00     0.170 C 
BRANCH  12  13
HETATM   13  O   UNL     1      62.121  11.933   1.829  1.00  0.00    -0.400 OA
HETATM   14  H   UNL     1      63.088  11.971   1.761  1.00  0.00     0.209 HD
ENDBRANCH  12  13
ENDBRANCH   3  12
TORSDOF 2
ENDMDL
MODEL 4
REMARK VINA RESULT:      -4.3      2.669      3.898
REMARK  2 active torsions:
REMARK  status: ('A' for Active; 'I' for Inactive)
REMARK    1  A    between atoms: C_3  and  C_7 
REMARK    2  A    between atoms: O_6  and  C_7 
ROOT
HETATM    1  N   UNL     1      62.703   8.049   3.111  1.00  0.00    -0.066 N 
HETATM    2  C   UNL     1      62.278   9.219   2.315  1.00  0.00     0.194 C 
HETATM    3  C   UNL     1      61.393   8.779   1.125  1.00  0.00     0.040 C 
HETATM    4  C   UNL     1      63.420   7.043   2.299  1.00  0.00     0.235 C 
HETATM    5  C   UNL     1      63.569   8.458   4.235  1.00  0.00     0.235 C 
HETATM    6  C   UNL     1      62.791   6.692   0.945  1.00  0.00     0.028 C 
HETATM    7  C   UNL     1      62.256   7.909   0.200  1.00  0.00     0.010 C 
HETATM    8  C   UNL     1      61.571  10.271   3.179  1.00  0.00     0.034 C 
HETATM    9  C   UNL     1      62.903   9.491   5.142  1.00  0.00     0.028 C 
HETATM   10  C   UNL     1      62.444  10.709   4.350  1.00  0.00     0.004 C 
HETATM   11  H   UNL     1      61.847   7.626   3.469  1.00  0.00     0.280 HD
ENDROOT
BRANCH   3  12
HETATM   12  C   UNL     1      60.099   8.058   1.546  1.00  0.00     0.170 C 
BRANCH  12  13
HETATM   13  O   UNL     1      58.981   8.740   0.981  1.00  0.00    -0.400 OA
HETATM   14  H   UNL     1      58.165   8.422   1.398  1.00  0.00     0.209 HD
ENDBRANCH  12  13
ENDBRANCH   3  12
TORSDOF 2
ENDMDL
MODEL 5
REMARK VINA RESULT:      -4.3      2.095      4.010
REMARK  2 active torsions:
REMARK  status: ('A' for Active; 'I' for Inactive)
REMARK    1  A    between atoms: C_3  and  C_7 
REMARK    2  A    between atoms: O_6  and  C_7 
ROOT
HETATM    1  N   UNL     1      62.472   7.485   5.221  1.00  0.00    -0.066 N 
HETATM    2  C   UNL     1      63.400   8.084   4.240  1.00  0.00     0.194 C 
HETATM    3  C   UNL     1      62.703   9.213   3.446  1.00  0.00     0.040 C 
HETATM    4  C   UNL     1      61.240   6.967   4.592  1.00  0.00     0.235 C 
HETATM    5  C   UNL     1      63.122   6.389   5.967  1.00  0.00     0.235 C 
HETATM    6  C   UNL     1      60.567   7.884   3.562  1.00  0.00     0.028 C 
HETATM    7  C   UNL     1      61.561   8.578   2.639  1.00  0.00     0.010 C 
HETATM    8  C   UNL     1      64.690   8.581   4.904  1.00  0.00     0.034 C 
HETATM    9  C   UNL     1      64.404   6.837   6.668  1.00  0.00     0.028 C 
HETATM   10  C   UNL     1      65.382   7.468   5.684  1.00  0.00     0.004 C 
HETATM   11  H   UNL     1      62.217   8.237   5.862  1.00  0.00     0.280 HD
ENDROOT
BRANCH   3  12
HETATM   12  C   UNL     1      62.205  10.376   4.324  1.00  0.00     0.170 C 
BRANCH  12  13
HETATM   13  O   UNL     1      61.475  11.293   3.512  1.00  0.00    -0.400 OA
HETATM   14  H   UNL     1      61.282  12.094   4.025  1.00  0.00     0.209 HD
ENDBRANCH  12  13
ENDBRANCH   3  12
TORSDOF 2
ENDMDL
MODEL 6
REMARK VINA RESULT:      -4.3      4.233      6.475
REMARK  2 active torsions:
REMARK  status: ('A' for Active; 'I' for Inactive)
REMARK    1  A    between atoms: C_3  and  C_7 
REMARK    2  A    between atoms: O_6  and  C_7 
ROOT
HETATM    1  N   UNL     1      66.913   5.535   6.361  1.00  0.00    -0.066 N 
HETATM    2  C   UNL     1      66.663   6.803   7.076  1.00  0.00     0.194 C 
HETATM    3  C   UNL     1      65.461   7.553   6.457  1.00  0.00     0.040 C 
HETATM    4  C   UNL     1      67.141   5.737   4.914  1.00  0.00     0.235 C 
HETATM    5  C   UNL     1      68.075   4.823   6.930  1.00  0.00     0.235 C 
HETATM    6  C   UNL     1      66.169   6.686   4.201  1.00  0.00     0.028 C 
HETATM    7  C   UNL     1      65.840   7.930   5.017  1.00  0.00     0.010 C 
HETATM    8  C   UNL     1      66.468   6.579   8.581  1.00  0.00     0.034 C 
HETATM    9  C   UNL     1      67.922   4.556   8.427  1.00  0.00     0.028 C 
HETATM   10  C   UNL     1      67.653   5.843   9.195  1.00  0.00     0.004 C 
HETATM   11  H   UNL     1      66.070   4.974   6.480  1.00  0.00     0.280 HD
ENDROOT
BRANCH   3  12
HETATM   12  C   UNL     1      64.139   6.765   6.513  1.00  0.00     0.170 C 
BRANCH  12  13
HETATM   13  O   UNL     1      63.086   7.650   6.889  1.00  0.00    -0.400 OA
HETATM   14  H   UNL     1      63.462   8.437   7.314  1.00  0.00     0.209 HD
ENDBRANCH  12  13
ENDBRANCH   3  12
TORSDOF 2
ENDMDL
MODEL 7
REMARK VINA RESULT:      -4.2      1.091      1.665
REMARK  2 active torsions:
REMARK  status: ('A' for Active; 'I' for Inactive)
REMARK    1  A    between atoms: C_3  and  C_7 
REMARK    2  A    between atoms: O_6  and  C_7 
ROOT
HETATM    1  N   UNL     1      63.055   7.689   3.077  1.00  0.00    -0.066 N 
HETATM    2  C   UNL     1      62.244   8.684   3.809  1.00  0.00     0.194 C 
HETATM    3  C   UNL     1      62.805   8.906   5.233  1.00  0.00     0.040 C 
HETATM    4  C   UNL     1      63.142   6.396   3.788  1.00  0.00     0.235 C 
HETATM    5  C   UNL     1      62.512   7.452   1.724  1.00  0.00     0.235 C 
HETATM    6  C   UNL     1      63.434   6.468   5.293  1.00  0.00     0.028 C 
HETATM    7  C   UNL     1      62.670   7.582   5.998  1.00  0.00     0.010 C 
HETATM    8  C   UNL     1      62.132  10.006   3.039  1.00  0.00     0.034 C 
HETATM    9  C   UNL     1      62.400   8.737   0.905  1.00  0.00     0.028 C 
HETATM   10  C   UNL     1      61.576   9.790   1.636  1.00  0.00     0.004 C 
HETATM   11  H   UNL     1      63.993   8.085   3.010  1.00  0.00     0.280 HD
ENDROOT
BRANCH   3  12
HETATM   12  C   UNL     1      64.251   9.435   5.256  1.00  0.00     0.170 C 
BRANCH  12  13
HETATM   13  O   UNL     1      64.263  10.730   5.854  1.00  0.00    -0.400 OA
HETATM   14  H   UNL     1      64.930  11.282   5.416  1.00  0.00     0.209 HD
ENDBRANCH  12  13
ENDBRANCH   3  12
TORSDOF 2
ENDMDL
MODEL 8
REMARK VINA RESULT:      -3.8     12.559     14.256
REMARK  2 active torsions:
REMARK  status: ('A' for Active; 'I' for Inactive)
REMARK    1  A    between atoms: C_3  and  C_7 
REMARK    2  A    between atoms: O_6  and  C_7 
ROOT
HETATM    1  N   UNL     1      56.673   1.144  14.148  1.00  0.00    -0.066 N 
HETATM    2  C   UNL     1      56.342   1.641  12.796  1.00  0.00     0.194 C 
HETATM    3  C   UNL     1      54.910   2.224  12.762  1.00  0.00     0.040 C 
HETATM    4  C   UNL     1      55.710   0.132  14.630  1.00  0.00     0.235 C 
HETATM    5  C   UNL     1      58.030   0.564  14.183  1.00  0.00     0.235 C 
HETATM    6  C   UNL     1      54.225   0.455  14.420  1.00  0.00     0.028 C 
HETATM    7  C   UNL     1      53.934   1.075  13.059  1.00  0.00     0.010 C 
HETATM    8  C   UNL     1      57.373   2.661  12.295  1.00  0.00     0.034 C 
HETATM    9  C   UNL     1      59.100   1.549  13.713  1.00  0.00     0.028 C 
HETATM   10  C   UNL     1      58.785   2.088  12.324  1.00  0.00     0.004 C 
HETATM   11  H   UNL     1      56.626   1.956  14.765  1.00  0.00     0.280 HD
ENDROOT
BRANCH   3  12
HETATM   12  C   UNL     1      54.699   3.414  13.717  1.00  0.00     0.170 C 
BRANCH  12  13
HETATM   13  O   UNL     1      54.151   4.507  12.983  1.00  0.00    -0.400 OA
HETATM   14  H   UNL     1      53.741   5.135  13.598  1.00  0.00     0.209 HD
ENDBRANCH  12  13
ENDBRANCH   3  12
TORSDOF 2
ENDMDL
MODEL 9
REMARK VINA RESULT:      -3.6     12.316     14.183
REMARK  2 active torsions:
REMARK  status: ('A' for Active; 'I' for Inactive)
REMARK    1  A    between atoms: C_3  and  C_7 
REMARK    2  A    between atoms: O_6  and  C_7 
ROOT
HETATM    1  N   UNL     1      57.588  -0.499  13.149  1.00  0.00    -0.066 N 
HETATM    2  C   UNL     1      57.264   0.739  13.888  1.00  0.00     0.194 C 
HETATM    3  C   UNL     1      57.963   1.959  13.245  1.00  0.00     0.040 C 
HETATM    4  C   UNL     1      59.044  -0.743  13.065  1.00  0.00     0.235 C 
HETATM    5  C   UNL     1      56.944  -1.673  13.771  1.00  0.00     0.235 C 
HETATM    6  C   UNL     1      59.913   0.464  12.691  1.00  0.00     0.028 C 
HETATM    7  C   UNL     1      59.479   1.751  13.381  1.00  0.00     0.010 C 
HETATM    8  C   UNL     1      55.750   0.956  13.999  1.00  0.00     0.034 C 
HETATM    9  C   UNL     1      55.429  -1.517  13.887  1.00  0.00     0.028 C 
HETATM   10  C   UNL     1      55.058  -0.244  14.637  1.00  0.00     0.004 C 
HETATM   11  H   UNL     1      57.228  -0.365  12.204  1.00  0.00     0.280 HD
ENDROOT
BRANCH   3  12
HETATM   12  C   UNL     1      57.550   2.215  11.784  1.00  0.00     0.170 C 
BRANCH  12  13
HETATM   13  O   UNL     1      58.003   3.509  11.392  1.00  0.00    -0.400 OA
HETATM   14  H   UNL     1      57.737   3.679  10.474  1.00  0.00     0.209 HD
ENDBRANCH  12  13
ENDBRANCH   3  12
TORSDOF 2
ENDMDL
