MODEL 1
REMARK VINA RESULT:      -5.4      0.000      0.000
REMARK  1 active torsions:
REMARK  status: ('A' for Active; 'I' for Inactive)
REMARK    1  A    between atoms: C_3  and  N_7 
ROOT
HETATM    1  N   UNL     1      63.140   9.534   4.807  1.00  0.00    -0.342 N 
ATOM      2  HN  UNL     1      63.635   8.936   5.470  1.00  0.00     0.167 HD
HETATM    3  C   UNL     1      62.790  10.787   5.141  1.00  0.00     0.099 A 
HETATM    4  C   UNL     1      62.822   9.085   3.579  1.00  0.00     0.043 A 
HETATM    5  C   UNL     1      62.132   9.878   2.637  1.00  0.00    -0.009 A 
HETATM    6  C   UNL     1      61.774  11.174   3.016  1.00  0.00     0.017 A 
HETATM    7  C   UNL     1      62.114  11.637   4.282  1.00  0.00     0.049 A 
HETATM    8  C   UNL     1      63.184   7.796   3.204  1.00  0.00     0.030 A 
HETATM    9  C   UNL     1      61.831   9.369   1.362  1.00  0.00     0.013 A 
HETATM   10  C   UNL     1      62.891   7.288   1.934  1.00  0.00     0.002 A 
HETATM   11  C   UNL     1      62.214   8.076   1.012  1.00  0.00     0.001 A 
ENDROOT
BRANCH   3  12
HETATM   12  N   UNL     1      63.189  11.232   6.400  1.00  0.00    -0.385 N 
HETATM   13  H   UNL     1      62.911  12.121   6.720  1.00  0.00     0.157 HD
HETATM   14  H   UNL     1      63.750  10.657   6.970  1.00  0.00     0.157 HD
ENDBRANCH   3  12
TORSDOF 1
ENDMDL
MODEL 2
REMARK VINA RESULT:      -5.3      0.910      1.148
REMARK  1 active torsions:
REMARK  status: ('A' for Active; 'I' for Inactive)
REMARK    1  A    between atoms: C_3  and  N_7 
ROOT
HETATM    1  N   UNL     1      63.844   9.588   5.360  1.00  0.00    -0.342 N 
ATOM      2  HN  UNL     1      64.525   9.292   6.059  1.00  0.00     0.167 HD
HETATM    3  C   UNL     1      63.220  10.773   5.467  1.00  0.00     0.099 A 
HETATM    4  C   UNL     1      63.549   8.800   4.309  1.00  0.00     0.043 A 
HETATM    5  C   UNL     1      62.609   9.171   3.324  1.00  0.00    -0.009 A 
HETATM    6  C   UNL     1      61.970  10.405   3.467  1.00  0.00     0.017 A 
HETATM    7  C   UNL     1      62.286  11.220   4.549  1.00  0.00     0.049 A 
HETATM    8  C   UNL     1      64.191   7.575   4.168  1.00  0.00     0.030 A 
HETATM    9  C   UNL     1      62.341   8.320   2.238  1.00  0.00     0.013 A 
HETATM   10  C   UNL     1      63.932   6.727   3.086  1.00  0.00     0.002 A 
HETATM   11  C   UNL     1      63.006   7.101   2.119  1.00  0.00     0.001 A 
ENDROOT
BRANCH   3  12
HETATM   12  N   UNL     1      63.597  11.581   6.537  1.00  0.00    -0.385 N 
HETATM   13  H   UNL     1      64.389  11.350   7.074  1.00  0.00     0.157 HD
HETATM   14  H   UNL     1      63.071  12.385   6.756  1.00  0.00     0.157 HD
ENDBRANCH   3  12
TORSDOF 1
ENDMDL
MODEL 3
REMARK VINA RESULT:      -5.1      1.422      3.161
REMARK  1 active torsions:
REMARK  status: ('A' for Active; 'I' for Inactive)
REMARK    1  A    between atoms: C_3  and  N_7 
ROOT
HETATM    1  N   UNL     1      63.333   9.031   5.472  1.00  0.00    -0.342 N 
ATOM      2  HN  UNL     1      63.344   9.594   6.323  1.00  0.00     0.167 HD
HETATM    3  C   UNL     1      63.802   7.772   5.475  1.00  0.00     0.099 A 
HETATM    4  C   UNL     1      62.847   9.532   4.321  1.00  0.00     0.043 A 
HETATM    5  C   UNL     1      62.820   8.788   3.122  1.00  0.00    -0.009 A 
HETATM    6  C   UNL     1      63.323   7.484   3.154  1.00  0.00     0.017 A 
HETATM    7  C   UNL     1      63.813   6.968   4.348  1.00  0.00     0.049 A 
HETATM    8  C   UNL     1      62.343  10.827   4.294  1.00  0.00     0.030 A 
HETATM    9  C   UNL     1      62.293   9.349   1.947  1.00  0.00     0.013 A 
HETATM   10  C   UNL     1      61.813  11.389   3.128  1.00  0.00     0.002 A 
HETATM   11  C   UNL     1      61.787  10.648   1.952  1.00  0.00     0.001 A 
ENDROOT
BRANCH   3  12
HETATM   12  N   UNL     1      64.241   7.273   6.699  1.00  0.00    -0.385 N 
HETATM   13  H   UNL     1      64.978   7.719   7.177  1.00  0.00     0.157 HD
HETATM   14  H   UNL     1      63.815   6.475   7.087  1.00  0.00     0.157 HD
ENDBRANCH   3  12
TORSDOF 1
ENDMDL
MODEL 4
REMARK VINA RESULT:      -4.9      1.004      2.169
REMARK  1 active torsions:
REMARK  status: ('A' for Active; 'I' for Inactive)
REMARK    1  A    between atoms: C_3  and  N_7 
ROOT
HETATM    1  N   UNL     1      62.420  10.567   4.016  1.00  0.00    -0.342 N 
ATOM      2  HN  UNL     1      61.915  11.448   3.925  1.00  0.00     0.167 HD
HETATM    3  C   UNL     1      63.175  10.317   5.100  1.00  0.00     0.099 A 
HETATM    4  C   UNL     1      62.347   9.628   3.055  1.00  0.00     0.043 A 
HETATM    5  C   UNL     1      63.037   8.399   3.141  1.00  0.00    -0.009 A 
HETATM    6  C   UNL     1      63.821   8.171   4.275  1.00  0.00     0.017 A 
HETATM    7  C   UNL     1      63.884   9.140   5.271  1.00  0.00     0.049 A 
HETATM    8  C   UNL     1      61.563   9.856   1.930  1.00  0.00     0.030 A 
HETATM    9  C   UNL     1      62.922   7.444   2.117  1.00  0.00     0.013 A 
HETATM   10  C   UNL     1      61.441   8.907   0.911  1.00  0.00     0.002 A 
HETATM   11  C   UNL     1      62.121   7.698   1.005  1.00  0.00     0.001 A 
ENDROOT
BRANCH   3  12
HETATM   12  N   UNL     1      63.177  11.290   6.097  1.00  0.00    -0.385 N 
HETATM   13  H   UNL     1      62.336  11.535   6.547  1.00  0.00     0.157 HD
HETATM   14  H   UNL     1      64.019  11.732   6.351  1.00  0.00     0.157 HD
ENDBRANCH   3  12
TORSDOF 1
ENDMDL
MODEL 5
REMARK VINA RESULT:      -4.7      1.838      3.947
REMARK  1 active torsions:
REMARK  status: ('A' for Active; 'I' for Inactive)
REMARK    1  A    between atoms: C_3  and  N_7 
ROOT
HETATM    1  N   UNL     1      62.845   7.604   3.025  1.00  0.00    -0.342 N 
ATOM      2  HN  UNL     1      63.128   7.127   3.881  1.00  0.00     0.167 HD
HETATM    3  C   UNL     1      62.778   6.940   1.858  1.00  0.00     0.099 A 
HETATM    4  C   UNL     1      62.530   8.913   3.037  1.00  0.00     0.043 A 
HETATM    5  C   UNL     1      62.141   9.609   1.873  1.00  0.00    -0.009 A 
HETATM    6  C   UNL     1      62.089   8.894   0.673  1.00  0.00     0.017 A 
HETATM    7  C   UNL     1      62.404   7.540   0.668  1.00  0.00     0.049 A 
HETATM    8  C   UNL     1      62.578   9.619   4.232  1.00  0.00     0.030 A 
HETATM    9  C   UNL     1      61.811  10.974   1.936  1.00  0.00     0.013 A 
HETATM   10  C   UNL     1      62.246  10.976   4.301  1.00  0.00     0.002 A 
HETATM   11  C   UNL     1      61.861  11.654   3.151  1.00  0.00     0.001 A 
ENDROOT
BRANCH   3  12
HETATM   12  N   UNL     1      63.055   5.575   1.901  1.00  0.00    -0.385 N 
HETATM   13  H   UNL     1      63.154   5.119   2.769  1.00  0.00     0.157 HD
HETATM   14  H   UNL     1      63.152   5.066   1.064  1.00  0.00     0.157 HD
ENDBRANCH   3  12
TORSDOF 1
ENDMDL
MODEL 6
REMARK VINA RESULT:      -4.5      1.508      1.869
REMARK  1 active torsions:
REMARK  status: ('A' for Active; 'I' for Inactive)
REMARK    1  A    between atoms: C_3  and  N_7 
ROOT
HETATM    1  N   UNL     1      63.688   7.604   4.094  1.00  0.00    -0.342 N 
ATOM      2  HN  UNL     1      64.151   6.696   4.131  1.00  0.00     0.167 HD
HETATM    3  C   UNL     1      63.716   8.433   5.152  1.00  0.00     0.099 A 
HETATM    4  C   UNL     1      63.034   8.000   2.986  1.00  0.00     0.043 A 
HETATM    5  C   UNL     1      62.376   9.245   2.899  1.00  0.00    -0.009 A 
HETATM    6  C   UNL     1      62.415  10.082   4.017  1.00  0.00     0.017 A 
HETATM    7  C   UNL     1      63.101   9.673   5.156  1.00  0.00     0.049 A 
HETATM    8  C   UNL     1      63.002   7.167   1.874  1.00  0.00     0.030 A 
HETATM    9  C   UNL     1      61.716   9.621   1.716  1.00  0.00     0.013 A 
HETATM   10  C   UNL     1      62.350   7.538   0.694  1.00  0.00     0.002 A 
HETATM   11  C   UNL     1      61.707   8.767   0.615  1.00  0.00     0.001 A 
ENDROOT
BRANCH   3  12
HETATM   12  N   UNL     1      64.452   8.010   6.257  1.00  0.00    -0.385 N 
HETATM   13  H   UNL     1      65.411   8.225   6.322  1.00  0.00     0.157 HD
HETATM   14  H   UNL     1      64.013   7.495   6.972  1.00  0.00     0.157 HD
ENDBRANCH   3  12
TORSDOF 1
ENDMDL
MODEL 7
REMARK VINA RESULT:      -4.4      2.903      4.041
REMARK  1 active torsions:
REMARK  status: ('A' for Active; 'I' for Inactive)
REMARK    1  A    between atoms: C_3  and  N_7 
ROOT
HETATM    1  N   UNL     1      64.816   9.114   5.748  1.00  0.00    -0.342 N 
ATOM      2  HN  UNL     1      65.207   9.649   6.524  1.00  0.00     0.167 HD
HETATM    3  C   UNL     1      63.625   9.442   5.218  1.00  0.00     0.099 A 
HETATM    4  C   UNL     1      65.480   8.064   5.231  1.00  0.00     0.043 A 
HETATM    5  C   UNL     1      64.970   7.296   4.163  1.00  0.00    -0.009 A 
HETATM    6  C   UNL     1      63.726   7.655   3.638  1.00  0.00     0.017 A 
HETATM    7  C   UNL     1      63.048   8.748   4.168  1.00  0.00     0.049 A 
HETATM    8  C   UNL     1      66.720   7.712   5.752  1.00  0.00     0.030 A 
HETATM    9  C   UNL     1      65.705   6.214   3.649  1.00  0.00     0.013 A 
HETATM   10  C   UNL     1      67.457   6.639   5.241  1.00  0.00     0.002 A 
HETATM   11  C   UNL     1      66.949   5.889   4.187  1.00  0.00     0.001 A 
ENDROOT
BRANCH   3  12
HETATM   12  N   UNL     1      62.999  10.571   5.743  1.00  0.00    -0.385 N 
HETATM   13  H   UNL     1      63.539  11.315   6.096  1.00  0.00     0.157 HD
HETATM   14  H   UNL     1      62.015  10.624   5.762  1.00  0.00     0.157 HD
ENDBRANCH   3  12
TORSDOF 1
ENDMDL
MODEL 8
REMARK VINA RESULT:      -4.2      2.220      4.416
REMARK  1 active torsions:
REMARK  status: ('A' for Active; 'I' for Inactive)
REMARK    1  A    between atoms: C_3  and  N_7 
ROOT
HETATM    1  N   UNL     1      62.744   7.722   1.944  1.00  0.00    -0.342 N 
ATOM      2  HN  UNL     1      62.237   7.804   1.062  1.00  0.00     0.167 HD
HETATM    3  C   UNL     1      63.481   6.630   2.214  1.00  0.00     0.099 A 
HETATM    4  C   UNL     1      62.691   8.703   2.864  1.00  0.00     0.043 A 
HETATM    5  C   UNL     1      63.373   8.623   4.097  1.00  0.00    -0.009 A 
HETATM    6  C   UNL     1      64.123   7.473   4.353  1.00  0.00     0.017 A 
HETATM    7  C   UNL     1      64.184   6.467   3.395  1.00  0.00     0.049 A 
HETATM    8  C   UNL     1      61.947   9.848   2.604  1.00  0.00     0.030 A 
HETATM    9  C   UNL     1      63.296   9.678   5.022  1.00  0.00     0.013 A 
HETATM   10  C   UNL     1      61.872  10.902   3.519  1.00  0.00     0.002 A 
HETATM   11  C   UNL     1      62.549  10.817   4.730  1.00  0.00     0.001 A 
ENDROOT
BRANCH   3  12
HETATM   12  N   UNL     1      63.556   5.665   1.211  1.00  0.00    -0.385 N 
HETATM   13  H   UNL     1      63.275   5.886   0.293  1.00  0.00     0.157 HD
HETATM   14  H   UNL     1      63.890   4.763   1.421  1.00  0.00     0.157 HD
ENDBRANCH   3  12
TORSDOF 1
ENDMDL
MODEL 9
REMARK VINA RESULT:      -4.1      2.277      3.555
REMARK  1 active torsions:
REMARK  status: ('A' for Active; 'I' for Inactive)
REMARK    1  A    between atoms: C_3  and  N_7 
ROOT
HETATM    1  N   UNL     1      62.399   7.856   2.450  1.00  0.00    -0.342 N 
ATOM      2  HN  UNL     1      62.262   7.160   1.716  1.00  0.00     0.167 HD
HETATM    3  C   UNL     1      61.542   8.880   2.594  1.00  0.00     0.099 A 
HETATM    4  C   UNL     1      63.443   7.769   3.296  1.00  0.00     0.043 A 
HETATM    5  C   UNL     1      63.670   8.714   4.319  1.00  0.00    -0.009 A 
HETATM    6  C   UNL     1      62.766   9.773   4.439  1.00  0.00     0.017 A 
HETATM    7  C   UNL     1      61.684   9.853   3.570  1.00  0.00     0.049 A 
HETATM    8  C   UNL     1      64.337   6.711   3.177  1.00  0.00     0.030 A 
HETATM    9  C   UNL     1      64.767   8.576   5.186  1.00  0.00     0.013 A 
HETATM   10  C   UNL     1      65.428   6.567   4.040  1.00  0.00     0.002 A 
HETATM   11  C   UNL     1      65.643   7.500   5.047  1.00  0.00     0.001 A 
ENDROOT
BRANCH   3  12
HETATM   12  N   UNL     1      60.444   8.901   1.736  1.00  0.00    -0.385 N 
HETATM   13  H   UNL     1      60.205   8.094   1.223  1.00  0.00     0.157 HD
HETATM   14  H   UNL     1      59.908   9.721   1.642  1.00  0.00     0.157 HD
ENDBRANCH   3  12
TORSDOF 1
ENDMDL
