MODEL 1
REMARK VINA RESULT:      -6.3      0.000      0.000
REMARK  1 active torsions:
REMARK  status: ('A' for Active; 'I' for Inactive)
REMARK    1  A    between atoms: C_1  and  C_6 
ROOT
HETATM    1  C   UNL     1      63.238   8.751   4.858  1.00  0.00     0.128 A 
HETATM    2  C   UNL     1      62.805   8.680   3.418  1.00  0.00    -0.029 A 
HETATM    3  C   UNL     1      62.301  10.840   4.060  1.00  0.00     0.161 A 
HETATM    4  C   UNL     1      62.286   9.886   2.961  1.00  0.00     0.017 A 
HETATM    5  C   UNL     1      62.854  10.180   5.298  1.00  0.00     0.104 A 
HETATM    6  O   UNL     1      61.898  11.986   3.976  1.00  0.00    -0.292 OA
HETATM    7  C   UNL     1      62.877   7.595   2.558  1.00  0.00     0.009 A 
HETATM    8  C   UNL     1      61.837  10.069   1.666  1.00  0.00     0.016 A 
HETATM    9  C   UNL     1      62.429   7.750   1.242  1.00  0.00     0.001 A 
HETATM   10  C   UNL     1      61.914   8.980   0.798  1.00  0.00     0.001 A 
ENDROOT
BRANCH   1  11
HETATM   11  C   UNL     1      64.717   8.497   5.053  1.00  0.00     0.182 C 
HETATM   12  O   UNL     1      65.377   7.564   4.622  1.00  0.00    -0.647 OA
HETATM   13  O   UNL     1      65.308   9.423   5.837  1.00  0.00    -0.647 OA
ENDBRANCH   1  11
TORSDOF 1
ENDMDL
MODEL 2
REMARK VINA RESULT:      -5.6      2.126      3.243
REMARK  1 active torsions:
REMARK  status: ('A' for Active; 'I' for Inactive)
REMARK    1  A    between atoms: C_1  and  C_6 
ROOT
HETATM    1  C   UNL     1      63.322   7.915   4.576  1.00  0.00     0.128 A 
HETATM    2  C   UNL     1      62.761   9.123   3.874  1.00  0.00    -0.029 A 
HETATM    3  C   UNL     1      62.937   7.529   2.214  1.00  0.00     0.161 A 
HETATM    4  C   UNL     1      62.524   8.890   2.525  1.00  0.00     0.017 A 
HETATM    5  C   UNL     1      63.486   6.868   3.454  1.00  0.00     0.104 A 
HETATM    6  O   UNL     1      62.866   7.029   1.105  1.00  0.00    -0.292 OA
HETATM    7  C   UNL     1      62.470  10.366   4.417  1.00  0.00     0.009 A 
HETATM    8  C   UNL     1      61.996   9.846   1.677  1.00  0.00     0.016 A 
HETATM    9  C   UNL     1      61.934  11.353   3.583  1.00  0.00     0.001 A 
HETATM   10  C   UNL     1      61.697  11.095   2.222  1.00  0.00     0.001 A 
ENDROOT
BRANCH   1  11
HETATM   11  C   UNL     1      62.430   7.396   5.683  1.00  0.00     0.182 C 
HETATM   12  O   UNL     1      61.364   6.812   5.569  1.00  0.00    -0.647 OA
HETATM   13  O   UNL     1      62.904   7.682   6.914  1.00  0.00    -0.647 OA
ENDBRANCH   1  11
TORSDOF 1
ENDMDL
MODEL 3
REMARK VINA RESULT:      -5.5      2.034      4.130
REMARK  1 active torsions:
REMARK  status: ('A' for Active; 'I' for Inactive)
REMARK    1  A    between atoms: C_1  and  C_6 
ROOT
HETATM    1  C   UNL     1      61.652   9.680   3.429  1.00  0.00     0.128 A 
HETATM    2  C   UNL     1      62.883   8.962   3.914  1.00  0.00    -0.029 A 
HETATM    3  C   UNL     1      62.187   7.731   2.089  1.00  0.00     0.161 A 
HETATM    4  C   UNL     1      63.195   7.857   3.131  1.00  0.00     0.017 A 
HETATM    5  C   UNL     1      61.161   8.827   2.240  1.00  0.00     0.104 A 
HETATM    6  O   UNL     1      62.178   6.850   1.248  1.00  0.00    -0.292 OA
HETATM    7  C   UNL     1      63.687   9.284   4.997  1.00  0.00     0.009 A 
HETATM    8  C   UNL     1      64.292   7.050   3.372  1.00  0.00     0.016 A 
HETATM    9  C   UNL     1      64.804   8.485   5.265  1.00  0.00     0.001 A 
HETATM   10  C   UNL     1      65.106   7.376   4.457  1.00  0.00     0.001 A 
ENDROOT
BRANCH   1  11
HETATM   11  C   UNL     1      61.918  11.107   3.005  1.00  0.00     0.182 C 
HETATM   12  O   UNL     1      62.132  11.523   1.876  1.00  0.00    -0.647 OA
HETATM   13  O   UNL     1      61.954  11.965   4.047  1.00  0.00    -0.647 OA
ENDBRANCH   1  11
TORSDOF 1
ENDMDL
MODEL 4
REMARK VINA RESULT:      -5.2      2.282      3.861
REMARK  1 active torsions:
REMARK  status: ('A' for Active; 'I' for Inactive)
REMARK    1  A    between atoms: C_1  and  C_6 
ROOT
HETATM    1  C   UNL     1      62.118   9.011   1.588  1.00  0.00     0.128 A 
HETATM    2  C   UNL     1      62.825   8.588   2.849  1.00  0.00    -0.029 A 
HETATM    3  C   UNL     1      62.000  10.688   3.336  1.00  0.00     0.161 A 
HETATM    4  C   UNL     1      62.738   9.545   3.853  1.00  0.00     0.017 A 
HETATM    5  C   UNL     1      61.611  10.435   1.901  1.00  0.00     0.104 A 
HETATM    6  O   UNL     1      61.767  11.698   3.976  1.00  0.00    -0.292 OA
HETATM    7  C   UNL     1      63.507   7.404   3.088  1.00  0.00     0.009 A 
HETATM    8  C   UNL     1      63.297   9.374   5.106  1.00  0.00     0.016 A 
HETATM    9  C   UNL     1      64.083   7.204   4.347  1.00  0.00     0.001 A 
HETATM   10  C   UNL     1      63.978   8.182   5.350  1.00  0.00     0.001 A 
ENDROOT
BRANCH   1  11
HETATM   11  C   UNL     1      60.977   8.095   1.206  1.00  0.00     0.182 C 
HETATM   12  O   UNL     1      60.875   7.409   0.200  1.00  0.00    -0.647 OA
HETATM   13  O   UNL     1      59.966   8.117   2.100  1.00  0.00    -0.647 OA
ENDBRANCH   1  11
TORSDOF 1
ENDMDL
MODEL 5
REMARK VINA RESULT:      -5.1      1.778      3.048
REMARK  1 active torsions:
REMARK  status: ('A' for Active; 'I' for Inactive)
REMARK    1  A    between atoms: C_1  and  C_6 
ROOT
HETATM    1  C   UNL     1      63.094   9.437   4.407  1.00  0.00     0.128 A 
HETATM    2  C   UNL     1      62.324   8.989   3.193  1.00  0.00    -0.029 A 
HETATM    3  C   UNL     1      61.880   7.370   4.777  1.00  0.00     0.161 A 
HETATM    4  C   UNL     1      61.616   7.815   3.417  1.00  0.00     0.017 A 
HETATM    5  C   UNL     1      62.834   8.326   5.448  1.00  0.00     0.104 A 
HETATM    6  O   UNL     1      61.411   6.360   5.270  1.00  0.00    -0.292 OA
HETATM    7  C   UNL     1      62.256   9.605   1.952  1.00  0.00     0.009 A 
HETATM    8  C   UNL     1      60.823   7.219   2.453  1.00  0.00     0.016 A 
HETATM    9  C   UNL     1      61.462   9.024   0.957  1.00  0.00     0.001 A 
HETATM   10  C   UNL     1      60.748   7.839   1.206  1.00  0.00     0.001 A 
ENDROOT
BRANCH   1  11
HETATM   11  C   UNL     1      62.657  10.788   4.928  1.00  0.00     0.182 C 
HETATM   12  O   UNL     1      61.909  11.590   4.390  1.00  0.00    -0.647 OA
HETATM   13  O   UNL     1      63.230  11.103   6.109  1.00  0.00    -0.647 OA
ENDBRANCH   1  11
TORSDOF 1
ENDMDL
MODEL 6
REMARK VINA RESULT:      -5.1      2.213      3.355
REMARK  1 active torsions:
REMARK  status: ('A' for Active; 'I' for Inactive)
REMARK    1  A    between atoms: C_1  and  C_6 
ROOT
HETATM    1  C   UNL     1      64.640   7.648   4.841  1.00  0.00     0.128 A 
HETATM    2  C   UNL     1      63.670   8.693   4.359  1.00  0.00    -0.029 A 
HETATM    3  C   UNL     1      63.668   7.102   2.687  1.00  0.00     0.161 A 
HETATM    4  C   UNL     1      63.102   8.366   3.134  1.00  0.00     0.017 A 
HETATM    5  C   UNL     1      64.674   6.610   3.698  1.00  0.00     0.104 A 
HETATM    6  O   UNL     1      63.378   6.554   1.638  1.00  0.00    -0.292 OA
HETATM    7  C   UNL     1      63.309   9.876   4.988  1.00  0.00     0.009 A 
HETATM    8  C   UNL     1      62.170   9.166   2.498  1.00  0.00     0.016 A 
HETATM    9  C   UNL     1      62.368  10.706   4.368  1.00  0.00     0.001 A 
HETATM   10  C   UNL     1      61.801  10.353   3.132  1.00  0.00     0.001 A 
ENDROOT
BRANCH   1  11
HETATM   11  C   UNL     1      64.231   7.008   6.149  1.00  0.00     0.182 C 
HETATM   12  O   UNL     1      64.757   7.144   7.243  1.00  0.00    -0.647 OA
HETATM   13  O   UNL     1      63.183   6.168   6.015  1.00  0.00    -0.647 OA
ENDBRANCH   1  11
TORSDOF 1
ENDMDL
MODEL 7
REMARK VINA RESULT:      -5.0      1.845      3.129
REMARK  1 active torsions:
REMARK  status: ('A' for Active; 'I' for Inactive)
REMARK    1  A    between atoms: C_1  and  C_6 
ROOT
HETATM    1  C   UNL     1      62.423   7.041   3.092  1.00  0.00     0.128 A 
HETATM    2  C   UNL     1      62.216   8.524   2.944  1.00  0.00    -0.029 A 
HETATM    3  C   UNL     1      62.682   8.236   5.186  1.00  0.00     0.161 A 
HETATM    4  C   UNL     1      62.384   9.206   4.143  1.00  0.00     0.017 A 
HETATM    5  C   UNL     1      62.686   6.846   4.601  1.00  0.00     0.104 A 
HETATM    6  O   UNL     1      62.871   8.524   6.355  1.00  0.00    -0.292 OA
HETATM    7  C   UNL     1      61.898   9.230   1.793  1.00  0.00     0.009 A 
HETATM    8  C   UNL     1      62.258  10.579   4.252  1.00  0.00     0.016 A 
HETATM    9  C   UNL     1      61.764  10.621   1.873  1.00  0.00     0.001 A 
HETATM   10  C   UNL     1      61.945  11.291   3.095  1.00  0.00     0.001 A 
ENDROOT
BRANCH   1  11
HETATM   11  C   UNL     1      63.573   6.511   2.264  1.00  0.00     0.182 C 
HETATM   12  O   UNL     1      63.556   6.180   1.088  1.00  0.00    -0.647 OA
HETATM   13  O   UNL     1      64.711   6.372   2.976  1.00  0.00    -0.647 OA
ENDBRANCH   1  11
TORSDOF 1
ENDMDL
MODEL 8
REMARK VINA RESULT:      -5.0      2.215      3.878
REMARK  1 active torsions:
REMARK  status: ('A' for Active; 'I' for Inactive)
REMARK    1  A    between atoms: C_1  and  C_6 
ROOT
HETATM    1  C   UNL     1      62.669   9.149   3.517  1.00  0.00     0.128 A 
HETATM    2  C   UNL     1      61.644   8.059   3.688  1.00  0.00    -0.029 A 
HETATM    3  C   UNL     1      62.858   8.013   5.651  1.00  0.00     0.161 A 
HETATM    4  C   UNL     1      61.745   7.425   4.920  1.00  0.00     0.017 A 
HETATM    5  C   UNL     1      63.510   9.082   4.809  1.00  0.00     0.104 A 
HETATM    6  O   UNL     1      63.210   7.661   6.763  1.00  0.00    -0.292 OA
HETATM    7  C   UNL     1      60.666   7.660   2.790  1.00  0.00     0.009 A 
HETATM    8  C   UNL     1      60.901   6.402   5.312  1.00  0.00     0.016 A 
HETATM    9  C   UNL     1      59.798   6.627   3.158  1.00  0.00     0.001 A 
HETATM   10  C   UNL     1      59.913   6.002   4.412  1.00  0.00     0.001 A 
ENDROOT
BRANCH   1  11
HETATM   11  C   UNL     1      62.060  10.521   3.331  1.00  0.00     0.182 C 
HETATM   12  O   UNL     1      61.669  11.287   4.198  1.00  0.00    -0.647 OA
HETATM   13  O   UNL     1      61.920  10.860   2.032  1.00  0.00    -0.647 OA
ENDBRANCH   1  11
TORSDOF 1
ENDMDL
MODEL 9
REMARK VINA RESULT:      -4.5      2.413      4.353
REMARK  1 active torsions:
REMARK  status: ('A' for Active; 'I' for Inactive)
REMARK    1  A    between atoms: C_1  and  C_6 
ROOT
HETATM    1  C   UNL     1      63.589   7.454   3.461  1.00  0.00     0.128 A 
HETATM    2  C   UNL     1      64.961   7.116   3.982  1.00  0.00    -0.029 A 
HETATM    3  C   UNL     1      64.389   9.053   5.100  1.00  0.00     0.161 A 
HETATM    4  C   UNL     1      65.406   8.025   4.934  1.00  0.00     0.017 A 
HETATM    5  C   UNL     1      63.231   8.776   4.174  1.00  0.00     0.104 A 
HETATM    6  O   UNL     1      64.491  10.000   5.860  1.00  0.00    -0.292 OA
HETATM    7  C   UNL     1      65.768   6.046   3.626  1.00  0.00     0.009 A 
HETATM    8  C   UNL     1      66.631   7.913   5.566  1.00  0.00     0.016 A 
HETATM    9  C   UNL     1      67.013   5.907   4.249  1.00  0.00     0.001 A 
HETATM   10  C   UNL     1      67.442   6.834   5.214  1.00  0.00     0.001 A 
ENDROOT
BRANCH   1  11
HETATM   11  C   UNL     1      62.560   6.383   3.746  1.00  0.00     0.182 C 
HETATM   12  O   UNL     1      61.862   5.786   2.940  1.00  0.00    -0.647 OA
HETATM   13  O   UNL     1      62.413   6.135   5.064  1.00  0.00    -0.647 OA
ENDBRANCH   1  11
TORSDOF 1
ENDMDL
