MODEL 1
REMARK VINA RESULT:      -5.8      0.000      0.000
REMARK  3 active torsions:
REMARK  status: ('A' for Active; 'I' for Inactive)
REMARK    1  A    between atoms: C_1  and  C_4 
REMARK    2  A    between atoms: C_1  and  C_5 
REMARK    3  A    between atoms: C_1  and  N_6 
ROOT
HETATM    1  C   UNL     1      63.283   7.795   5.092  1.00  0.00     0.266 C 
ENDROOT
BRANCH   1   2
HETATM    2  C   UNL     1      64.798   7.675   5.148  1.00  0.00     0.044 A 
HETATM    3  N   UNL     1      65.476   8.235   6.191  1.00  0.00    -0.367 N 
HETATM    4  C   UNL     1      66.830   8.187   6.290  1.00  0.00     0.088 A 
ATOM      5  HN  UNL     1      64.947   8.707   6.924  1.00  0.00     0.165 HD
HETATM    6  C   UNL     1      67.574   7.528   5.313  1.00  0.00     0.017 A 
HETATM    7  C   UNL     1      66.913   6.926   4.243  1.00  0.00     0.003 A 
HETATM    8  C   UNL     1      65.518   7.000   4.151  1.00  0.00     0.027 A 
ENDBRANCH   1   2
BRANCH   1   9
HETATM    9  C   UNL     1      62.794   8.934   4.197  1.00  0.00    -0.022 A 
HETATM   10  C   UNL     1      62.548  10.246   4.681  1.00  0.00     0.009 A 
HETATM   11  C   UNL     1      62.074  11.240   3.822  1.00  0.00     0.001 A 
HETATM   12  C   UNL     1      61.836  10.956   2.480  1.00  0.00     0.000 A 
HETATM   13  C   UNL     1      62.080   9.676   1.983  1.00  0.00     0.001 A 
HETATM   14  C   UNL     1      62.563   8.674   2.831  1.00  0.00     0.009 A 
ENDBRANCH   1   9
BRANCH   1  15
HETATM   15  N   UNL     1      62.761   7.968   6.450  1.00  0.00    -0.066 N 
HETATM   16  H   UNL     1      63.361   8.611   6.965  1.00  0.00     0.275 HD
HETATM   17  H   UNL     1      62.742   7.065   6.924  1.00  0.00     0.275 HD
HETATM   18  H   UNL     1      61.815   8.348   6.404  1.00  0.00     0.275 HD
ENDBRANCH   1  15
TORSDOF 3
ENDMDL
MODEL 2
REMARK VINA RESULT:      -5.4      1.379      2.089
REMARK  3 active torsions:
REMARK  status: ('A' for Active; 'I' for Inactive)
REMARK    1  A    between atoms: C_1  and  C_4 
REMARK    2  A    between atoms: C_1  and  C_5 
REMARK    3  A    between atoms: C_1  and  N_6 
ROOT
HETATM    1  C   UNL     1      62.947   9.108   5.269  1.00  0.00     0.266 C 
ENDROOT
BRANCH   1   2
HETATM    2  C   UNL     1      64.130   8.221   5.628  1.00  0.00     0.044 A 
HETATM    3  N   UNL     1      63.973   7.243   6.566  1.00  0.00    -0.367 N 
HETATM    4  C   UNL     1      64.993   6.433   6.951  1.00  0.00     0.088 A 
ATOM      5  HN  UNL     1      63.056   7.115   6.994  1.00  0.00     0.165 HD
HETATM    6  C   UNL     1      66.249   6.571   6.364  1.00  0.00     0.017 A 
HETATM    7  C   UNL     1      66.441   7.547   5.386  1.00  0.00     0.003 A 
HETATM    8  C   UNL     1      65.381   8.383   5.014  1.00  0.00     0.027 A 
ENDBRANCH   1   2
BRANCH   1   9
HETATM    9  C   UNL     1      62.616   9.109   3.776  1.00  0.00    -0.022 A 
HETATM   10  C   UNL     1      62.775   7.967   2.948  1.00  0.00     0.009 A 
HETATM   11  C   UNL     1      62.483   8.035   1.585  1.00  0.00     0.001 A 
HETATM   12  C   UNL     1      62.033   9.225   1.019  1.00  0.00     0.000 A 
HETATM   13  C   UNL     1      61.862  10.356   1.817  1.00  0.00     0.001 A 
HETATM   14  C   UNL     1      62.142  10.298   3.186  1.00  0.00     0.009 A 
ENDBRANCH   1   9
BRANCH   1  15
HETATM   15  N   UNL     1      63.214  10.476   5.721  1.00  0.00    -0.066 N 
HETATM   16  H   UNL     1      64.219  10.612   5.817  1.00  0.00     0.275 HD
HETATM   17  H   UNL     1      62.761  10.629   6.622  1.00  0.00     0.275 HD
HETATM   18  H   UNL     1      62.845  11.137   5.037  1.00  0.00     0.275 HD
ENDBRANCH   1  15
TORSDOF 3
ENDMDL
MODEL 3
REMARK VINA RESULT:      -5.1      1.442      5.030
REMARK  3 active torsions:
REMARK  status: ('A' for Active; 'I' for Inactive)
REMARK    1  A    between atoms: C_1  and  C_4 
REMARK    2  A    between atoms: C_1  and  C_5 
REMARK    3  A    between atoms: C_1  and  N_6 
ROOT
HETATM    1  C   UNL     1      62.899   8.177   4.785  1.00  0.00     0.266 C 
ENDROOT
BRANCH   1   2
HETATM    2  C   UNL     1      62.500   9.281   3.818  1.00  0.00     0.044 A 
HETATM    3  N   UNL     1      62.279  10.541   4.295  1.00  0.00    -0.367 N 
HETATM    4  C   UNL     1      61.896  11.567   3.492  1.00  0.00     0.088 A 
ATOM      5  HN  UNL     1      62.407  10.719   5.291  1.00  0.00     0.165 HD
HETATM    6  C   UNL     1      61.738  11.355   2.123  1.00  0.00     0.017 A 
HETATM    7  C   UNL     1      61.975  10.085   1.598  1.00  0.00     0.003 A 
HETATM    8  C   UNL     1      62.354   9.037   2.445  1.00  0.00     0.027 A 
ENDBRANCH   1   2
BRANCH   1   9
HETATM    9  C   UNL     1      64.307   7.632   4.540  1.00  0.00    -0.022 A 
HETATM   10  C   UNL     1      64.565   6.495   3.732  1.00  0.00     0.009 A 
HETATM   11  C   UNL     1      65.870   6.025   3.567  1.00  0.00     0.001 A 
HETATM   12  C   UNL     1      66.934   6.666   4.195  1.00  0.00     0.000 A 
HETATM   13  C   UNL     1      66.702   7.791   4.986  1.00  0.00     0.001 A 
HETATM   14  C   UNL     1      65.401   8.277   5.152  1.00  0.00     0.009 A 
ENDBRANCH   1   9
BRANCH   1  15
HETATM   15  N   UNL     1      61.922   7.088   4.706  1.00  0.00    -0.066 N 
HETATM   16  H   UNL     1      62.024   6.481   5.519  1.00  0.00     0.275 HD
HETATM   17  H   UNL     1      62.083   6.549   3.855  1.00  0.00     0.275 HD
HETATM   18  H   UNL     1      60.980   7.478   4.689  1.00  0.00     0.275 HD
ENDBRANCH   1  15
TORSDOF 3
ENDMDL
MODEL 4
REMARK VINA RESULT:      -5.0      2.266      3.859
REMARK  3 active torsions:
REMARK  status: ('A' for Active; 'I' for Inactive)
REMARK    1  A    between atoms: C_1  and  C_4 
REMARK    2  A    between atoms: C_1  and  C_5 
REMARK    3  A    between atoms: C_1  and  N_6 
ROOT
HETATM    1  C   UNL     1      67.064   7.896   5.603  1.00  0.00     0.266 C 
ENDROOT
BRANCH   1   2
HETATM    2  C   UNL     1      67.281   6.902   6.733  1.00  0.00     0.044 A 
HETATM    3  N   UNL     1      67.066   7.295   8.022  1.00  0.00    -0.367 N 
HETATM    4  C   UNL     1      67.265   6.466   9.079  1.00  0.00     0.088 A 
ATOM      5  HN  UNL     1      66.745   8.246   8.198  1.00  0.00     0.165 HD
HETATM    6  C   UNL     1      67.681   5.154   8.864  1.00  0.00     0.017 A 
HETATM    7  C   UNL     1      67.891   4.711   7.558  1.00  0.00     0.003 A 
HETATM    8  C   UNL     1      67.696   5.585   6.483  1.00  0.00     0.027 A 
ENDBRANCH   1   2
BRANCH   1   9
HETATM    9  C   UNL     1      65.665   7.826   4.989  1.00  0.00    -0.022 A 
HETATM   10  C   UNL     1      65.289   6.847   4.032  1.00  0.00     0.009 A 
HETATM   11  C   UNL     1      64.005   6.849   3.485  1.00  0.00     0.001 A 
HETATM   12  C   UNL     1      63.076   7.814   3.869  1.00  0.00     0.000 A 
HETATM   13  C   UNL     1      63.423   8.778   4.815  1.00  0.00     0.001 A 
HETATM   14  C   UNL     1      64.703   8.781   5.378  1.00  0.00     0.009 A 
ENDBRANCH   1   9
BRANCH   1  15
HETATM   15  N   UNL     1      68.075   7.678   4.566  1.00  0.00    -0.066 N 
HETATM   16  H   UNL     1      67.848   8.241   3.747  1.00  0.00     0.275 HD
HETATM   17  H   UNL     1      68.089   6.692   4.308  1.00  0.00     0.275 HD
HETATM   18  H   UNL     1      68.991   7.951   4.922  1.00  0.00     0.275 HD
ENDBRANCH   1  15
TORSDOF 3
ENDMDL
MODEL 5
REMARK VINA RESULT:      -4.9      1.575      5.130
REMARK  3 active torsions:
REMARK  status: ('A' for Active; 'I' for Inactive)
REMARK    1  A    between atoms: C_1  and  C_4 
REMARK    2  A    between atoms: C_1  and  C_5 
REMARK    3  A    between atoms: C_1  and  N_6 
ROOT
HETATM    1  C   UNL     1      63.695   7.412   4.495  1.00  0.00     0.266 C 
ENDROOT
BRANCH   1   2
HETATM    2  C   UNL     1      63.149   8.829   4.421  1.00  0.00     0.044 A 
HETATM    3  N   UNL     1      63.338   9.676   5.474  1.00  0.00    -0.367 N 
HETATM    4  C   UNL     1      62.855  10.945   5.485  1.00  0.00     0.088 A 
ATOM      5  HN  UNL     1      63.861   9.343   6.284  1.00  0.00     0.165 HD
HETATM    6  C   UNL     1      62.158  11.432   4.380  1.00  0.00     0.017 A 
HETATM    7  C   UNL     1      61.964  10.601   3.277  1.00  0.00     0.003 A 
HETATM    8  C   UNL     1      62.455   9.291   3.292  1.00  0.00     0.027 A 
ENDBRANCH   1   2
BRANCH   1   9
HETATM    9  C   UNL     1      64.904   7.271   5.421  1.00  0.00    -0.022 A 
HETATM   10  C   UNL     1      66.208   7.700   5.060  1.00  0.00     0.009 A 
HETATM   11  C   UNL     1      67.280   7.520   5.936  1.00  0.00     0.001 A 
HETATM   12  C   UNL     1      67.084   6.916   7.175  1.00  0.00     0.000 A 
HETATM   13  C   UNL     1      65.809   6.497   7.552  1.00  0.00     0.001 A 
HETATM   14  C   UNL     1      64.725   6.679   6.688  1.00  0.00     0.009 A 
ENDBRANCH   1   9
BRANCH   1  15
HETATM   15  N   UNL     1      64.044   6.956   3.147  1.00  0.00    -0.066 N 
HETATM   16  H   UNL     1      63.217   6.992   2.552  1.00  0.00     0.275 HD
HETATM   17  H   UNL     1      64.391   5.999   3.192  1.00  0.00     0.275 HD
HETATM   18  H   UNL     1      64.767   7.564   2.760  1.00  0.00     0.275 HD
ENDBRANCH   1  15
TORSDOF 3
ENDMDL
MODEL 6
REMARK VINA RESULT:      -4.7      1.921      5.171
REMARK  3 active torsions:
REMARK  status: ('A' for Active; 'I' for Inactive)
REMARK    1  A    between atoms: C_1  and  C_4 
REMARK    2  A    between atoms: C_1  and  C_5 
REMARK    3  A    between atoms: C_1  and  N_6 
ROOT
HETATM    1  C   UNL     1      63.257   7.229   3.772  1.00  0.00     0.266 C 
ENDROOT
BRANCH   1   2
HETATM    2  C   UNL     1      62.743   8.618   3.427  1.00  0.00     0.044 A 
HETATM    3  N   UNL     1      62.435   8.916   2.131  1.00  0.00    -0.367 N 
HETATM    4  C   UNL     1      61.996  10.143   1.750  1.00  0.00     0.088 A 
ATOM      5  HN  UNL     1      62.538   8.190   1.423  1.00  0.00     0.165 HD
HETATM    6  C   UNL     1      61.824  11.145   2.703  1.00  0.00     0.017 A 
HETATM    7  C   UNL     1      62.109  10.871   4.040  1.00  0.00     0.003 A 
HETATM    8  C   UNL     1      62.576   9.604   4.411  1.00  0.00     0.027 A 
ENDBRANCH   1   2
BRANCH   1   9
HETATM    9  C   UNL     1      64.338   7.230   4.854  1.00  0.00    -0.022 A 
HETATM   10  C   UNL     1      64.127   6.713   6.158  1.00  0.00     0.009 A 
HETATM   11  C   UNL     1      65.143   6.767   7.114  1.00  0.00     0.001 A 
HETATM   12  C   UNL     1      66.377   7.329   6.799  1.00  0.00     0.000 A 
HETATM   13  C   UNL     1      66.608   7.834   5.520  1.00  0.00     0.001 A 
HETATM   14  C   UNL     1      65.602   7.778   4.551  1.00  0.00     0.009 A 
ENDBRANCH   1   9
BRANCH   1  15
HETATM   15  N   UNL     1      63.767   6.586   2.558  1.00  0.00    -0.066 N 
HETATM   16  H   UNL     1      64.151   7.294   1.935  1.00  0.00     0.275 HD
HETATM   17  H   UNL     1      63.006   6.095   2.089  1.00  0.00     0.275 HD
HETATM   18  H   UNL     1      64.498   5.920   2.809  1.00  0.00     0.275 HD
ENDBRANCH   1  15
TORSDOF 3
ENDMDL
MODEL 7
REMARK VINA RESULT:      -4.6      3.118      5.630
REMARK  3 active torsions:
REMARK  status: ('A' for Active; 'I' for Inactive)
REMARK    1  A    between atoms: C_1  and  C_4 
REMARK    2  A    between atoms: C_1  and  C_5 
REMARK    3  A    between atoms: C_1  and  N_6 
ROOT
HETATM    1  C   UNL     1      62.155   8.321   1.835  1.00  0.00     0.266 C 
ENDROOT
BRANCH   1   2
HETATM    2  C   UNL     1      60.757   7.721   1.821  1.00  0.00     0.044 A 
HETATM    3  N   UNL     1      60.393   6.851   2.807  1.00  0.00    -0.367 N 
HETATM    4  C   UNL     1      59.171   6.259   2.841  1.00  0.00     0.088 A 
ATOM      5  HN  UNL     1      61.062   6.637   3.546  1.00  0.00     0.165 HD
HETATM    6  C   UNL     1      58.229   6.553   1.856  1.00  0.00     0.017 A 
HETATM    7  C   UNL     1      58.560   7.453   0.844  1.00  0.00     0.003 A 
HETATM    8  C   UNL     1      59.831   8.040   0.818  1.00  0.00     0.027 A 
ENDBRANCH   1   2
BRANCH   1   9
HETATM    9  C   UNL     1      62.435   9.184   3.066  1.00  0.00    -0.022 A 
HETATM   10  C   UNL     1      61.874  10.475   3.249  1.00  0.00     0.009 A 
HETATM   11  C   UNL     1      62.189  11.229   4.381  1.00  0.00     0.001 A 
HETATM   12  C   UNL     1      63.060  10.725   5.344  1.00  0.00     0.000 A 
HETATM   13  C   UNL     1      63.614   9.455   5.187  1.00  0.00     0.001 A 
HETATM   14  C   UNL     1      63.300   8.686   4.062  1.00  0.00     0.009 A 
ENDBRANCH   1   9
BRANCH   1  15
HETATM   15  N   UNL     1      62.354   9.111   0.617  1.00  0.00    -0.066 N 
HETATM   16  H   UNL     1      62.130   8.540  -0.198  1.00  0.00     0.275 HD
HETATM   17  H   UNL     1      63.326   9.413   0.564  1.00  0.00     0.275 HD
HETATM   18  H   UNL     1      61.743   9.927   0.638  1.00  0.00     0.275 HD
ENDBRANCH   1  15
TORSDOF 3
ENDMDL
MODEL 8
REMARK VINA RESULT:      -4.5      2.506      6.202
REMARK  3 active torsions:
REMARK  status: ('A' for Active; 'I' for Inactive)
REMARK    1  A    between atoms: C_1  and  C_4 
REMARK    2  A    between atoms: C_1  and  C_5 
REMARK    3  A    between atoms: C_1  and  N_6 
ROOT
HETATM    1  C   UNL     1      66.946   7.050   6.603  1.00  0.00     0.266 C 
ENDROOT
BRANCH   1   2
HETATM    2  C   UNL     1      65.561   7.449   6.117  1.00  0.00     0.044 A 
HETATM    3  N   UNL     1      64.461   6.995   6.783  1.00  0.00    -0.367 N 
HETATM    4  C   UNL     1      63.196   7.291   6.388  1.00  0.00     0.088 A 
ATOM      5  HN  UNL     1      64.592   6.411   7.609  1.00  0.00     0.165 HD
HETATM    6  C   UNL     1      62.989   8.107   5.277  1.00  0.00     0.017 A 
HETATM    7  C   UNL     1      64.091   8.607   4.584  1.00  0.00     0.003 A 
HETATM    8  C   UNL     1      65.387   8.276   4.997  1.00  0.00     0.027 A 
ENDBRANCH   1   2
BRANCH   1   9
HETATM    9  C   UNL     1      67.319   5.607   6.264  1.00  0.00    -0.022 A 
HETATM   10  C   UNL     1      67.235   5.075   4.951  1.00  0.00     0.009 A 
HETATM   11  C   UNL     1      67.563   3.740   4.705  1.00  0.00     0.001 A 
HETATM   12  C   UNL     1      67.976   2.913   5.746  1.00  0.00     0.000 A 
HETATM   13  C   UNL     1      68.075   3.419   7.042  1.00  0.00     0.001 A 
HETATM   14  C   UNL     1      67.758   4.756   7.299  1.00  0.00     0.009 A 
ENDBRANCH   1   9
BRANCH   1  15
HETATM   15  N   UNL     1      67.029   7.259   8.051  1.00  0.00    -0.066 N 
HETATM   16  H   UNL     1      67.997   7.446   8.312  1.00  0.00     0.275 HD
HETATM   17  H   UNL     1      66.702   6.422   8.534  1.00  0.00     0.275 HD
HETATM   18  H   UNL     1      66.446   8.054   8.313  1.00  0.00     0.275 HD
ENDBRANCH   1  15
TORSDOF 3
ENDMDL
MODEL 9
REMARK VINA RESULT:      -4.5      3.515      5.659
REMARK  3 active torsions:
REMARK  status: ('A' for Active; 'I' for Inactive)
REMARK    1  A    between atoms: C_1  and  C_4 
REMARK    2  A    between atoms: C_1  and  C_5 
REMARK    3  A    between atoms: C_1  and  N_6 
ROOT
HETATM    1  C   UNL     1      61.028   8.064   2.705  1.00  0.00     0.266 C 
ENDROOT
BRANCH   1   2
HETATM    2  C   UNL     1      59.858   7.430   3.441  1.00  0.00     0.044 A 
HETATM    3  N   UNL     1      58.658   8.078   3.475  1.00  0.00    -0.367 N 
HETATM    4  C   UNL     1      57.581   7.581   4.136  1.00  0.00     0.088 A 
ATOM      5  HN  UNL     1      58.567   8.968   2.987  1.00  0.00     0.165 HD
HETATM    6  C   UNL     1      57.673   6.355   4.791  1.00  0.00     0.017 A 
HETATM    7  C   UNL     1      58.878   5.654   4.760  1.00  0.00     0.003 A 
HETATM    8  C   UNL     1      59.982   6.191   4.088  1.00  0.00     0.027 A 
ENDBRANCH   1   2
BRANCH   1   9
HETATM    9  C   UNL     1      61.946   8.886   3.611  1.00  0.00    -0.022 A 
HETATM   10  C   UNL     1      63.066   8.332   4.284  1.00  0.00     0.009 A 
HETATM   11  C   UNL     1      63.853   9.125   5.121  1.00  0.00     0.001 A 
HETATM   12  C   UNL     1      63.547  10.471   5.308  1.00  0.00     0.000 A 
HETATM   13  C   UNL     1      62.456  11.036   4.649  1.00  0.00     0.001 A 
HETATM   14  C   UNL     1      61.666  10.255   3.800  1.00  0.00     0.009 A 
ENDBRANCH   1   9
BRANCH   1  15
HETATM   15  N   UNL     1      60.519   8.904   1.618  1.00  0.00    -0.066 N 
HETATM   16  H   UNL     1      59.635   8.524   1.281  1.00  0.00     0.275 HD
HETATM   17  H   UNL     1      61.196   8.920   0.856  1.00  0.00     0.275 HD
HETATM   18  H   UNL     1      60.371   9.853   1.964  1.00  0.00     0.275 HD
ENDBRANCH   1  15
TORSDOF 3
ENDMDL
