MODEL 1
REMARK VINA RESULT:      -5.2      0.000      0.000
REMARK  3 active torsions:
REMARK  status: ('A' for Active; 'I' for Inactive)
REMARK    1  A    between atoms: N_1  and  C_9 
REMARK    2  A    between atoms: C_9  and  C_16 
REMARK    3  A    between atoms: O_14  and  C_16 
ROOT
HETATM    1  N   UNL     1      63.432   7.268   4.354  1.00  0.00    -0.370 N 
HETATM    2  C   UNL     1      62.929   7.911   3.211  1.00  0.00     0.038 A 
HETATM    3  C   UNL     1      63.312   5.788   4.415  1.00  0.00     0.026 C 
HETATM    4  C   UNL     1      62.739   7.207   1.994  1.00  0.00    -0.028 A 
HETATM    5  C   UNL     1      63.057   5.723   1.883  1.00  0.00     0.019 C 
HETATM    6  C   UNL     1      63.859   5.232   3.090  1.00  0.00     0.039 C 
HETATM    7  C   UNL     1      62.197   7.869   0.873  1.00  0.00     0.010 A 
HETATM    8  C   UNL     1      62.589   9.280   3.207  1.00  0.00     0.036 A 
HETATM    9  C   UNL     1      62.088   9.943   2.079  1.00  0.00    -0.060 A 
HETATM   10  C   UNL     1      61.887   9.229   0.907  1.00  0.00     0.007 A 
HETATM   11  C   UNL     1      61.838   5.393   4.659  1.00  0.00     0.038 C 
HETATM   12  C   UNL     1      64.139   5.141   5.547  1.00  0.00     0.038 C 
HETATM   13  C   UNL     1      63.817   5.343   0.605  1.00  0.00     0.015 C 
HETATM   14  C   UNL     1      61.788  11.413   2.153  1.00  0.00     0.048 C 
ENDROOT
BRANCH   1  15
HETATM   15  C   UNL     1      63.975   8.039   5.493  1.00  0.00     0.150 C 
BRANCH  15  16
HETATM   16  C   UNL     1      65.442   8.452   5.265  1.00  0.00     0.183 C 
BRANCH  16  17
HETATM   17  O   UNL     1      66.075   8.922   6.452  1.00  0.00    -0.399 OA
HETATM   18  H   UNL     1      66.478   9.787   6.282  1.00  0.00     0.209 HD
ENDBRANCH  16  17
ENDBRANCH  15  16
ENDBRANCH   1  15
TORSDOF 3
ENDMDL
MODEL 2
REMARK VINA RESULT:      -5.2      1.508      2.353
REMARK  3 active torsions:
REMARK  status: ('A' for Active; 'I' for Inactive)
REMARK    1  A    between atoms: N_1  and  C_9 
REMARK    2  A    between atoms: C_9  and  C_16 
REMARK    3  A    between atoms: O_14  and  C_16 
ROOT
HETATM    1  N   UNL     1      63.862   6.979   3.958  1.00  0.00    -0.370 N 
HETATM    2  C   UNL     1      63.250   8.240   3.875  1.00  0.00     0.038 A 
HETATM    3  C   UNL     1      63.314   5.894   3.103  1.00  0.00     0.026 C 
HETATM    4  C   UNL     1      62.478   8.609   2.743  1.00  0.00    -0.028 A 
HETATM    5  C   UNL     1      62.268   7.647   1.583  1.00  0.00     0.019 C 
HETATM    6  C   UNL     1      63.215   6.449   1.672  1.00  0.00     0.039 C 
HETATM    7  C   UNL     1      61.843   9.869   2.702  1.00  0.00     0.010 A 
HETATM    8  C   UNL     1      63.369   9.202   4.898  1.00  0.00     0.036 A 
HETATM    9  C   UNL     1      62.769  10.468   4.836  1.00  0.00    -0.060 A 
HETATM   10  C   UNL     1      61.998  10.798   3.731  1.00  0.00     0.007 A 
HETATM   11  C   UNL     1      61.947   5.432   3.655  1.00  0.00     0.038 C 
HETATM   12  C   UNL     1      64.212   4.640   3.034  1.00  0.00     0.038 C 
HETATM   13  C   UNL     1      62.429   8.294   0.201  1.00  0.00     0.015 C 
HETATM   14  C   UNL     1      62.979  11.445   5.956  1.00  0.00     0.048 C 
ENDROOT
BRANCH   1  15
HETATM   15  C   UNL     1      64.947   6.714   4.927  1.00  0.00     0.150 C 
BRANCH  15  16
HETATM   16  C   UNL     1      64.407   6.195   6.274  1.00  0.00     0.183 C 
BRANCH  16  17
HETATM   17  O   UNL     1      64.677   7.081   7.357  1.00  0.00    -0.399 OA
HETATM   18  H   UNL     1      64.087   6.875   8.098  1.00  0.00     0.209 HD
ENDBRANCH  16  17
ENDBRANCH  15  16
ENDBRANCH   1  15
TORSDOF 3
ENDMDL
MODEL 3
REMARK VINA RESULT:      -5.1      1.735      2.390
REMARK  3 active torsions:
REMARK  status: ('A' for Active; 'I' for Inactive)
REMARK    1  A    between atoms: N_1  and  C_9 
REMARK    2  A    between atoms: C_9  and  C_16 
REMARK    3  A    between atoms: O_14  and  C_16 
ROOT
HETATM    1  N   UNL     1      65.685   7.075   4.529  1.00  0.00    -0.370 N 
HETATM    2  C   UNL     1      64.498   7.792   4.304  1.00  0.00     0.038 A 
HETATM    3  C   UNL     1      65.691   5.632   4.175  1.00  0.00     0.026 C 
HETATM    4  C   UNL     1      63.521   7.327   3.387  1.00  0.00    -0.028 A 
HETATM    5  C   UNL     1      63.711   6.024   2.623  1.00  0.00     0.019 C 
HETATM    6  C   UNL     1      65.148   5.513   2.741  1.00  0.00     0.039 C 
HETATM    7  C   UNL     1      62.321   8.048   3.209  1.00  0.00     0.010 A 
HETATM    8  C   UNL     1      64.215   9.003   4.968  1.00  0.00     0.036 A 
HETATM    9  C   UNL     1      63.039   9.737   4.758  1.00  0.00    -0.060 A 
HETATM   10  C   UNL     1      62.085   9.250   3.876  1.00  0.00     0.007 A 
HETATM   11  C   UNL     1      64.844   4.840   5.196  1.00  0.00     0.038 C 
HETATM   12  C   UNL     1      67.097   4.995   4.174  1.00  0.00     0.038 C 
HETATM   13  C   UNL     1      63.346   6.116   1.136  1.00  0.00     0.015 C 
HETATM   14  C   UNL     1      62.835  11.037   5.481  1.00  0.00     0.048 C 
ENDROOT
BRANCH   1  15
HETATM   15  C   UNL     1      66.853   7.708   5.179  1.00  0.00     0.150 C 
BRANCH  15  16
HETATM   16  C   UNL     1      66.810   7.565   6.713  1.00  0.00     0.183 C 
BRANCH  16  17
HETATM   17  O   UNL     1      67.014   8.801   7.390  1.00  0.00    -0.399 OA
HETATM   18  H   UNL     1      67.955   8.905   7.597  1.00  0.00     0.209 HD
ENDBRANCH  16  17
ENDBRANCH  15  16
ENDBRANCH   1  15
TORSDOF 3
ENDMDL
MODEL 4
REMARK VINA RESULT:      -5.1      2.768      4.281
REMARK  3 active torsions:
REMARK  status: ('A' for Active; 'I' for Inactive)
REMARK    1  A    between atoms: N_1  and  C_9 
REMARK    2  A    between atoms: C_9  and  C_16 
REMARK    3  A    between atoms: O_14  and  C_16 
ROOT
HETATM    1  N   UNL     1      61.615   7.110   1.991  1.00  0.00    -0.370 N 
HETATM    2  C   UNL     1      61.877   8.303   2.685  1.00  0.00     0.038 A 
HETATM    3  C   UNL     1      62.284   5.875   2.476  1.00  0.00     0.026 C 
HETATM    4  C   UNL     1      62.360   8.287   4.018  1.00  0.00    -0.028 A 
HETATM    5  C   UNL     1      62.632   6.977   4.744  1.00  0.00     0.019 C 
HETATM    6  C   UNL     1      62.034   5.787   3.991  1.00  0.00     0.039 C 
HETATM    7  C   UNL     1      62.650   9.500   4.678  1.00  0.00     0.010 A 
HETATM    8  C   UNL     1      61.673   9.571   2.102  1.00  0.00     0.036 A 
HETATM    9  C   UNL     1      61.924  10.774   2.776  1.00  0.00    -0.060 A 
HETATM   10  C   UNL     1      62.421  10.735   4.070  1.00  0.00     0.007 A 
HETATM   11  C   UNL     1      63.788   5.924   2.126  1.00  0.00     0.038 C 
HETATM   12  C   UNL     1      61.724   4.577   1.855  1.00  0.00     0.038 C 
HETATM   13  C   UNL     1      62.117   6.949   6.189  1.00  0.00     0.015 C 
HETATM   14  C   UNL     1      61.644  12.081   2.092  1.00  0.00     0.048 C 
ENDROOT
BRANCH   1  15
HETATM   15  C   UNL     1      60.781   7.098   0.769  1.00  0.00     0.150 C 
BRANCH  15  16
HETATM   16  C   UNL     1      59.275   7.082   1.097  1.00  0.00     0.183 C 
BRANCH  16  17
HETATM   17  O   UNL     1      58.669   8.366   0.977  1.00  0.00    -0.399 OA
HETATM   18  H   UNL     1      58.385   8.672   1.852  1.00  0.00     0.209 HD
ENDBRANCH  16  17
ENDBRANCH  15  16
ENDBRANCH   1  15
TORSDOF 3
ENDMDL
MODEL 5
REMARK VINA RESULT:      -4.9      2.452      4.774
REMARK  3 active torsions:
REMARK  status: ('A' for Active; 'I' for Inactive)
REMARK    1  A    between atoms: N_1  and  C_9 
REMARK    2  A    between atoms: C_9  and  C_16 
REMARK    3  A    between atoms: O_14  and  C_16 
ROOT
HETATM    1  N   UNL     1      61.581   8.358   2.337  1.00  0.00    -0.370 N 
HETATM    2  C   UNL     1      62.179   7.871   3.511  1.00  0.00     0.038 A 
HETATM    3  C   UNL     1      60.490   7.546   1.737  1.00  0.00     0.026 C 
HETATM    4  C   UNL     1      61.513   6.933   4.341  1.00  0.00    -0.028 A 
HETATM    5  C   UNL     1      60.133   6.402   3.983  1.00  0.00     0.019 C 
HETATM    6  C   UNL     1      59.492   7.223   2.862  1.00  0.00     0.039 C 
HETATM    7  C   UNL     1      62.153   6.433   5.494  1.00  0.00     0.010 A 
HETATM    8  C   UNL     1      63.460   8.286   3.929  1.00  0.00     0.036 A 
HETATM    9  C   UNL     1      64.075   7.817   5.098  1.00  0.00    -0.060 A 
HETATM   10  C   UNL     1      63.417   6.880   5.881  1.00  0.00     0.007 A 
HETATM   11  C   UNL     1      61.082   6.275   1.087  1.00  0.00     0.038 C 
HETATM   12  C   UNL     1      59.698   8.281   0.635  1.00  0.00     0.038 C 
HETATM   13  C   UNL     1      59.160   6.351   5.168  1.00  0.00     0.015 C 
HETATM   14  C   UNL     1      65.427   8.341   5.487  1.00  0.00     0.048 C 
ENDROOT
BRANCH   1  15
HETATM   15  C   UNL     1      62.078   9.581   1.671  1.00  0.00     0.150 C 
BRANCH  15  16
HETATM   16  C   UNL     1      61.733  10.855   2.467  1.00  0.00     0.183 C 
BRANCH  16  17
HETATM   17  O   UNL     1      62.109  12.050   1.788  1.00  0.00    -0.399 OA
HETATM   18  H   UNL     1      61.375  12.349   1.230  1.00  0.00     0.209 HD
ENDBRANCH  16  17
ENDBRANCH  15  16
ENDBRANCH   1  15
TORSDOF 3
ENDMDL
MODEL 6
REMARK VINA RESULT:      -4.8      1.979      4.129
REMARK  3 active torsions:
REMARK  status: ('A' for Active; 'I' for Inactive)
REMARK    1  A    between atoms: N_1  and  C_9 
REMARK    2  A    between atoms: C_9  and  C_16 
REMARK    3  A    between atoms: O_14  and  C_16 
ROOT
HETATM    1  N   UNL     1      62.102   8.288   2.749  1.00  0.00    -0.370 N 
HETATM    2  C   UNL     1      63.287   7.684   3.201  1.00  0.00     0.038 A 
HETATM    3  C   UNL     1      61.642   7.949   1.377  1.00  0.00     0.026 C 
HETATM    4  C   UNL     1      63.778   6.492   2.609  1.00  0.00    -0.028 A 
HETATM    5  C   UNL     1      63.050   5.830   1.449  1.00  0.00     0.019 C 
HETATM    6  C   UNL     1      61.649   6.416   1.261  1.00  0.00     0.039 C 
HETATM    7  C   UNL     1      64.991   5.929   3.059  1.00  0.00     0.010 A 
HETATM    8  C   UNL     1      64.047   8.222   4.260  1.00  0.00     0.036 A 
HETATM    9  C   UNL     1      65.231   7.636   4.730  1.00  0.00    -0.060 A 
HETATM   10  C   UNL     1      65.706   6.485   4.120  1.00  0.00     0.007 A 
HETATM   11  C   UNL     1      62.561   8.627   0.336  1.00  0.00     0.038 C 
HETATM   12  C   UNL     1      60.202   8.414   1.069  1.00  0.00     0.038 C 
HETATM   13  C   UNL     1      62.927   4.306   1.580  1.00  0.00     0.015 C 
HETATM   14  C   UNL     1      65.958   8.256   5.889  1.00  0.00     0.048 C 
ENDROOT
BRANCH   1  15
HETATM   15  C   UNL     1      61.390   9.292   3.568  1.00  0.00     0.150 C 
BRANCH  15  16
HETATM   16  C   UNL     1      61.882  10.725   3.284  1.00  0.00     0.183 C 
BRANCH  16  17
HETATM   17  O   UNL     1      62.058  11.495   4.470  1.00  0.00    -0.399 OA
HETATM   18  H   UNL     1      62.996  11.717   4.575  1.00  0.00     0.209 HD
ENDBRANCH  16  17
ENDBRANCH  15  16
ENDBRANCH   1  15
TORSDOF 3
ENDMDL
MODEL 7
REMARK VINA RESULT:      -4.6      2.588      5.025
REMARK  3 active torsions:
REMARK  status: ('A' for Active; 'I' for Inactive)
REMARK    1  A    between atoms: N_1  and  C_9 
REMARK    2  A    between atoms: C_9  and  C_16 
REMARK    3  A    between atoms: O_14  and  C_16 
ROOT
HETATM    1  N   UNL     1      62.719   7.078   2.032  1.00  0.00    -0.370 N 
HETATM    2  C   UNL     1      63.492   7.516   3.120  1.00  0.00     0.038 A 
HETATM    3  C   UNL     1      61.296   7.504   1.988  1.00  0.00     0.026 C 
HETATM    4  C   UNL     1      63.113   8.650   3.883  1.00  0.00    -0.028 A 
HETATM    5  C   UNL     1      61.843   9.427   3.565  1.00  0.00     0.019 C 
HETATM    6  C   UNL     1      61.271   9.027   2.204  1.00  0.00     0.039 C 
HETATM    7  C   UNL     1      63.889   9.044   4.994  1.00  0.00     0.010 A 
HETATM    8  C   UNL     1      64.679   6.861   3.509  1.00  0.00     0.036 A 
HETATM    9  C   UNL     1      65.468   7.281   4.589  1.00  0.00    -0.060 A 
HETATM   10  C   UNL     1      65.065   8.377   5.337  1.00  0.00     0.007 A 
HETATM   11  C   UNL     1      60.489   6.741   3.061  1.00  0.00     0.038 C 
HETATM   12  C   UNL     1      60.605   7.234   0.635  1.00  0.00     0.038 C 
HETATM   13  C   UNL     1      62.024  10.950   3.590  1.00  0.00     0.015 C 
HETATM   14  C   UNL     1      66.738   6.547   4.911  1.00  0.00     0.048 C 
ENDROOT
BRANCH   1  15
HETATM   15  C   UNL     1      63.271   6.153   1.019  1.00  0.00     0.150 C 
BRANCH  15  16
HETATM   16  C   UNL     1      63.100   4.677   1.428  1.00  0.00     0.183 C 
BRANCH  16  17
HETATM   17  O   UNL     1      61.980   4.056   0.803  1.00  0.00    -0.399 OA
HETATM   18  H   UNL     1      62.183   3.887  -0.130  1.00  0.00     0.209 HD
ENDBRANCH  16  17
ENDBRANCH  15  16
ENDBRANCH   1  15
TORSDOF 3
ENDMDL
MODEL 8
REMARK VINA RESULT:      -4.4      5.091      6.451
REMARK  3 active torsions:
REMARK  status: ('A' for Active; 'I' for Inactive)
REMARK    1  A    between atoms: N_1  and  C_9 
REMARK    2  A    between atoms: C_9  and  C_16 
REMARK    3  A    between atoms: O_14  and  C_16 
ROOT
HETATM    1  N   UNL     1      57.968   5.679   6.362  1.00  0.00    -0.370 N 
HETATM    2  C   UNL     1      58.662   6.245   5.281  1.00  0.00     0.038 A 
HETATM    3  C   UNL     1      56.555   6.094   6.561  1.00  0.00     0.026 C 
HETATM    4  C   UNL     1      57.972   6.809   4.177  1.00  0.00    -0.028 A 
HETATM    5  C   UNL     1      56.451   6.838   4.129  1.00  0.00     0.019 C 
HETATM    6  C   UNL     1      55.841   5.941   5.207  1.00  0.00     0.039 C 
HETATM    7  C   UNL     1      58.695   7.404   3.122  1.00  0.00     0.010 A 
HETATM    8  C   UNL     1      60.071   6.283   5.230  1.00  0.00     0.036 A 
HETATM    9  C   UNL     1      60.786   6.840   4.161  1.00  0.00    -0.060 A 
HETATM   10  C   UNL     1      60.091   7.408   3.104  1.00  0.00     0.007 A 
HETATM   11  C   UNL     1      56.506   7.543   7.095  1.00  0.00     0.038 C 
HETATM   12  C   UNL     1      55.784   5.220   7.573  1.00  0.00     0.038 C 
HETATM   13  C   UNL     1      55.865   6.435   2.769  1.00  0.00     0.015 C 
HETATM   14  C   UNL     1      62.287   6.804   4.171  1.00  0.00     0.048 C 
ENDROOT
BRANCH   1  15
HETATM   15  C   UNL     1      58.642   4.777   7.321  1.00  0.00     0.150 C 
BRANCH  15  16
HETATM   16  C   UNL     1      59.313   5.552   8.472  1.00  0.00     0.183 C 
BRANCH  16  17
HETATM   17  O   UNL     1      58.679   5.335   9.729  1.00  0.00    -0.399 OA
HETATM   18  H   UNL     1      59.150   5.827  10.418  1.00  0.00     0.209 HD
ENDBRANCH  16  17
ENDBRANCH  15  16
ENDBRANCH   1  15
TORSDOF 3
ENDMDL
MODEL 9
REMARK VINA RESULT:      -4.3      8.815     11.851
REMARK  3 active torsions:
REMARK  status: ('A' for Active; 'I' for Inactive)
REMARK    1  A    between atoms: N_1  and  C_9 
REMARK    2  A    between atoms: C_9  and  C_16 
REMARK    3  A    between atoms: O_14  and  C_16 
ROOT
HETATM    1  N   UNL     1      58.069   1.711  10.341  1.00  0.00    -0.370 N 
HETATM    2  C   UNL     1      59.196   1.042  10.845  1.00  0.00     0.038 A 
HETATM    3  C   UNL     1      56.814   1.630  11.132  1.00  0.00     0.026 C 
HETATM    4  C   UNL     1      59.296   0.701  12.218  1.00  0.00    -0.028 A 
HETATM    5  C   UNL     1      58.177   1.029  13.196  1.00  0.00     0.019 C 
HETATM    6  C   UNL     1      57.166   2.000  12.583  1.00  0.00     0.039 C 
HETATM    7  C   UNL     1      60.423  -0.005  12.690  1.00  0.00     0.010 A 
HETATM    8  C   UNL     1      60.283   0.678  10.024  1.00  0.00     0.036 A 
HETATM    9  C   UNL     1      61.419   0.013  10.505  1.00  0.00    -0.060 A 
HETATM   10  C   UNL     1      61.484  -0.334  11.846  1.00  0.00     0.007 A 
HETATM   11  C   UNL     1      56.211   0.212  11.013  1.00  0.00     0.038 C 
HETATM   12  C   UNL     1      55.720   2.618  10.673  1.00  0.00     0.038 C 
HETATM   13  C   UNL     1      58.667   1.613  14.528  1.00  0.00     0.015 C 
HETATM   14  C   UNL     1      62.548  -0.303   9.566  1.00  0.00     0.048 C 
ENDROOT
BRANCH   1  15
HETATM   15  C   UNL     1      58.102   2.391   9.028  1.00  0.00     0.150 C 
BRANCH  15  16
HETATM   16  C   UNL     1      58.880   3.720   9.084  1.00  0.00     0.183 C 
BRANCH  16  17
HETATM   17  O   UNL     1      58.642   4.450  10.284  1.00  0.00    -0.399 OA
HETATM   18  H   UNL     1      59.486   4.758  10.648  1.00  0.00     0.209 HD
ENDBRANCH  16  17
ENDBRANCH  15  16
ENDBRANCH   1  15
TORSDOF 3
ENDMDL
