MODEL 1
REMARK VINA RESULT:      -4.1      0.000      0.000
REMARK  3 active torsions:
REMARK  status: ('A' for Active; 'I' for Inactive)
REMARK    1  A    between atoms: C_3  and  C_5 
REMARK    2  A    between atoms: N_4  and  C_7 
REMARK    3  A    between atoms: C_5  and  C_7 
ROOT
HETATM    1  N   UNL     1      63.570   9.881   5.593  1.00  0.00    -0.369 N 
ATOM      2  HN  UNL     1      64.127   9.753   6.438  1.00  0.00     0.165 HD
HETATM    3  C   UNL     1      63.511   8.921   4.638  1.00  0.00     0.010 A 
HETATM    4  C   UNL     1      62.866  11.015   5.385  1.00  0.00     0.088 A 
HETATM    5  C   UNL     1      62.763   9.075   3.474  1.00  0.00     0.025 A 
HETATM    6  C   UNL     1      62.095  11.245   4.259  1.00  0.00     0.017 A 
HETATM    7  C   UNL     1      62.045  10.255   3.287  1.00  0.00     0.003 A 
ENDROOT
BRANCH   3   8
HETATM    8  C   UNL     1      64.324   7.670   4.870  1.00  0.00     0.084 C 
BRANCH   8   9
HETATM    9  C   UNL     1      65.527   7.936   5.780  1.00  0.00     0.237 C 
BRANCH   9  10
HETATM   10  N   UNL     1      65.378   7.222   7.058  1.00  0.00    -0.079 N 
HETATM   11  C   UNL     1      66.670   7.055   7.712  1.00  0.00     0.267 C 
HETATM   12  H   UNL     1      64.972   6.303   6.883  1.00  0.00     0.276 HD
HETATM   13  H   UNL     1      64.772   7.768   7.670  1.00  0.00     0.276 HD
ENDBRANCH   9  10
ENDBRANCH   8   9
ENDBRANCH   3   8
TORSDOF 3
ENDMDL
MODEL 2
REMARK VINA RESULT:      -4.0      3.092      5.279
REMARK  3 active torsions:
REMARK  status: ('A' for Active; 'I' for Inactive)
REMARK    1  A    between atoms: C_3  and  C_5 
REMARK    2  A    between atoms: N_4  and  C_7 
REMARK    3  A    between atoms: C_5  and  C_7 
ROOT
HETATM    1  N   UNL     1      61.713  10.923   2.967  1.00  0.00    -0.369 N 
ATOM      2  HN  UNL     1      61.178  11.521   2.338  1.00  0.00     0.165 HD
HETATM    3  C   UNL     1      62.103   9.680   2.590  1.00  0.00     0.010 A 
HETATM    4  C   UNL     1      62.060  11.340   4.204  1.00  0.00     0.088 A 
HETATM    5  C   UNL     1      62.829   8.842   3.433  1.00  0.00     0.025 A 
HETATM    6  C   UNL     1      62.783  10.573   5.099  1.00  0.00     0.017 A 
HETATM    7  C   UNL     1      63.174   9.300   4.703  1.00  0.00     0.003 A 
ENDROOT
BRANCH   3   8
HETATM    8  C   UNL     1      61.686   9.215   1.217  1.00  0.00     0.084 C 
BRANCH   8   9
HETATM    9  C   UNL     1      60.693   8.050   1.289  1.00  0.00     0.237 C 
BRANCH   9  10
HETATM   10  N   UNL     1      59.325   8.517   1.017  1.00  0.00    -0.079 N 
HETATM   11  C   UNL     1      58.362   7.443   1.216  1.00  0.00     0.267 C 
HETATM   12  H   UNL     1      59.268   8.842   0.051  1.00  0.00     0.276 HD
HETATM   13  H   UNL     1      59.104   9.276   1.661  1.00  0.00     0.276 HD
ENDBRANCH   9  10
ENDBRANCH   8   9
ENDBRANCH   3   8
TORSDOF 3
ENDMDL
MODEL 3
REMARK VINA RESULT:      -3.9      1.473      2.061
REMARK  3 active torsions:
REMARK  status: ('A' for Active; 'I' for Inactive)
REMARK    1  A    between atoms: C_3  and  C_5 
REMARK    2  A    between atoms: N_4  and  C_7 
REMARK    3  A    between atoms: C_5  and  C_7 
ROOT
HETATM    1  N   UNL     1      62.790   8.666   2.863  1.00  0.00    -0.369 N 
ATOM      2  HN  UNL     1      63.129   7.713   2.734  1.00  0.00     0.165 HD
HETATM    3  C   UNL     1      62.830   9.267   4.077  1.00  0.00     0.010 A 
HETATM    4  C   UNL     1      62.285   9.375   1.830  1.00  0.00     0.088 A 
HETATM    5  C   UNL     1      62.367  10.566   4.279  1.00  0.00     0.025 A 
HETATM    6  C   UNL     1      61.811  10.669   1.944  1.00  0.00     0.017 A 
HETATM    7  C   UNL     1      61.854  11.274   3.195  1.00  0.00     0.003 A 
ENDROOT
BRANCH   3   8
HETATM    8  C   UNL     1      63.371   8.456   5.229  1.00  0.00     0.084 C 
BRANCH   8   9
HETATM    9  C   UNL     1      64.884   8.245   5.113  1.00  0.00     0.237 C 
BRANCH   9  10
HETATM   10  N   UNL     1      65.487   8.071   6.444  1.00  0.00    -0.079 N 
HETATM   11  C   UNL     1      65.224   6.734   6.960  1.00  0.00     0.267 C 
HETATM   12  H   UNL     1      65.091   8.759   7.084  1.00  0.00     0.276 HD
HETATM   13  H   UNL     1      66.496   8.197   6.365  1.00  0.00     0.276 HD
ENDBRANCH   9  10
ENDBRANCH   8   9
ENDBRANCH   3   8
TORSDOF 3
ENDMDL
MODEL 4
REMARK VINA RESULT:      -3.6      2.363      3.538
REMARK  3 active torsions:
REMARK  status: ('A' for Active; 'I' for Inactive)
REMARK    1  A    between atoms: C_3  and  C_5 
REMARK    2  A    between atoms: N_4  and  C_7 
REMARK    3  A    between atoms: C_5  and  C_7 
ROOT
HETATM    1  N   UNL     1      60.626   8.548   3.369  1.00  0.00    -0.369 N 
ATOM      2  HN  UNL     1      60.255   8.468   4.315  1.00  0.00     0.165 HD
HETATM    3  C   UNL     1      61.682   9.354   3.095  1.00  0.00     0.010 A 
HETATM    4  C   UNL     1      60.085   7.856   2.343  1.00  0.00     0.088 A 
HETATM    5  C   UNL     1      62.203   9.484   1.810  1.00  0.00     0.025 A 
HETATM    6  C   UNL     1      60.545   7.925   1.041  1.00  0.00     0.017 A 
HETATM    7  C   UNL     1      61.625   8.757   0.772  1.00  0.00     0.003 A 
ENDROOT
BRANCH   3   8
HETATM    8  C   UNL     1      62.261  10.143   4.243  1.00  0.00     0.084 C 
BRANCH   8   9
HETATM    9  C   UNL     1      63.422   9.400   4.914  1.00  0.00     0.237 C 
BRANCH   9  10
HETATM   10  N   UNL     1      62.953   8.667   6.100  1.00  0.00    -0.079 N 
HETATM   11  C   UNL     1      63.319   7.260   6.018  1.00  0.00     0.267 C 
HETATM   12  H   UNL     1      61.937   8.745   6.162  1.00  0.00     0.276 HD
HETATM   13  H   UNL     1      63.390   9.071   6.928  1.00  0.00     0.276 HD
ENDBRANCH   9  10
ENDBRANCH   8   9
ENDBRANCH   3   8
TORSDOF 3
ENDMDL
MODEL 5
REMARK VINA RESULT:      -3.5      1.974      2.675
REMARK  3 active torsions:
REMARK  status: ('A' for Active; 'I' for Inactive)
REMARK    1  A    between atoms: C_3  and  C_5 
REMARK    2  A    between atoms: N_4  and  C_7 
REMARK    3  A    between atoms: C_5  and  C_7 
ROOT
HETATM    1  N   UNL     1      64.144   7.306   6.629  1.00  0.00    -0.369 N 
ATOM      2  HN  UNL     1      64.482   6.956   7.525  1.00  0.00     0.165 HD
HETATM    3  C   UNL     1      64.976   7.934   5.761  1.00  0.00     0.010 A 
HETATM    4  C   UNL     1      62.852   7.161   6.263  1.00  0.00     0.088 A 
HETATM    5  C   UNL     1      64.536   8.425   4.534  1.00  0.00     0.025 A 
HETATM    6  C   UNL     1      62.337   7.616   5.063  1.00  0.00     0.017 A 
HETATM    7  C   UNL     1      63.198   8.260   4.183  1.00  0.00     0.003 A 
ENDROOT
BRANCH   3   8
HETATM    8  C   UNL     1      66.411   8.114   6.192  1.00  0.00     0.084 C 
BRANCH   8   9
HETATM    9  C   UNL     1      66.938   6.883   6.937  1.00  0.00     0.237 C 
BRANCH   9  10
HETATM   10  N   UNL     1      67.291   7.227   8.324  1.00  0.00    -0.079 N 
HETATM   11  C   UNL     1      66.542   6.408   9.267  1.00  0.00     0.267 C 
HETATM   12  H   UNL     1      67.075   8.210   8.490  1.00  0.00     0.276 HD
HETATM   13  H   UNL     1      68.287   7.055   8.460  1.00  0.00     0.276 HD
ENDBRANCH   9  10
ENDBRANCH   8   9
ENDBRANCH   3   8
TORSDOF 3
ENDMDL
MODEL 6
REMARK VINA RESULT:      -3.5      3.027      4.861
REMARK  3 active torsions:
REMARK  status: ('A' for Active; 'I' for Inactive)
REMARK    1  A    between atoms: C_3  and  C_5 
REMARK    2  A    between atoms: N_4  and  C_7 
REMARK    3  A    between atoms: C_5  and  C_7 
ROOT
HETATM    1  N   UNL     1      61.422  10.420   3.273  1.00  0.00    -0.369 N 
ATOM      2  HN  UNL     1      60.821  10.811   2.546  1.00  0.00     0.165 HD
HETATM    3  C   UNL     1      61.597   9.082   3.393  1.00  0.00     0.010 A 
HETATM    4  C   UNL     1      62.070  11.218   4.149  1.00  0.00     0.088 A 
HETATM    5  C   UNL     1      62.407   8.524   4.380  1.00  0.00     0.025 A 
HETATM    6  C   UNL     1      62.895  10.746   5.153  1.00  0.00     0.017 A 
HETATM    7  C   UNL     1      63.065   9.372   5.269  1.00  0.00     0.003 A 
ENDROOT
BRANCH   3   8
HETATM    8  C   UNL     1      60.846   8.199   2.427  1.00  0.00     0.084 C 
BRANCH   8   9
HETATM    9  C   UNL     1      59.801   7.336   3.141  1.00  0.00     0.237 C 
BRANCH   9  10
HETATM   10  N   UNL     1      58.656   8.155   3.568  1.00  0.00    -0.079 N 
HETATM   11  C   UNL     1      57.662   7.339   4.252  1.00  0.00     0.267 C 
HETATM   12  H   UNL     1      58.228   8.586   2.748  1.00  0.00     0.276 HD
HETATM   13  H   UNL     1      58.988   8.872   4.213  1.00  0.00     0.276 HD
ENDBRANCH   9  10
ENDBRANCH   8   9
ENDBRANCH   3   8
TORSDOF 3
ENDMDL
MODEL 7
REMARK VINA RESULT:      -3.5     12.629     13.708
REMARK  3 active torsions:
REMARK  status: ('A' for Active; 'I' for Inactive)
REMARK    1  A    between atoms: C_3  and  C_5 
REMARK    2  A    between atoms: N_4  and  C_7 
REMARK    3  A    between atoms: C_5  and  C_7 
ROOT
HETATM    1  N   UNL     1      57.413   2.214  12.252  1.00  0.00    -0.369 N 
ATOM      2  HN  UNL     1      56.954   2.799  11.552  1.00  0.00     0.165 HD
HETATM    3  C   UNL     1      56.693   1.436  13.097  1.00  0.00     0.010 A 
HETATM    4  C   UNL     1      58.758   2.186  12.368  1.00  0.00     0.088 A 
HETATM    5  C   UNL     1      57.296   0.634  14.064  1.00  0.00     0.025 A 
HETATM    6  C   UNL     1      59.434   1.415  13.296  1.00  0.00     0.017 A 
HETATM    7  C   UNL     1      58.686   0.624  14.159  1.00  0.00     0.003 A 
ENDROOT
BRANCH   3   8
HETATM    8  C   UNL     1      55.190   1.496  12.976  1.00  0.00     0.084 C 
BRANCH   8   9
HETATM    9  C   UNL     1      54.527   1.856  14.310  1.00  0.00     0.237 C 
BRANCH   9  10
HETATM   10  N   UNL     1      54.922   3.208  14.738  1.00  0.00    -0.079 N 
HETATM   11  C   UNL     1      54.362   4.216  13.848  1.00  0.00     0.267 C 
HETATM   12  H   UNL     1      55.940   3.279  14.724  1.00  0.00     0.276 HD
HETATM   13  H   UNL     1      54.567   3.370  15.680  1.00  0.00     0.276 HD
ENDBRANCH   9  10
ENDBRANCH   8   9
ENDBRANCH   3   8
TORSDOF 3
ENDMDL
MODEL 8
REMARK VINA RESULT:      -3.5      2.719      4.602
REMARK  3 active torsions:
REMARK  status: ('A' for Active; 'I' for Inactive)
REMARK    1  A    between atoms: C_3  and  C_5 
REMARK    2  A    between atoms: N_4  and  C_7 
REMARK    3  A    between atoms: C_5  and  C_7 
ROOT
HETATM    1  N   UNL     1      62.910   8.813   3.501  1.00  0.00    -0.369 N 
ATOM      2  HN  UNL     1      63.143   7.888   3.140  1.00  0.00     0.165 HD
HETATM    3  C   UNL     1      62.301   9.738   2.719  1.00  0.00     0.010 A 
HETATM    4  C   UNL     1      63.198   9.161   4.774  1.00  0.00     0.088 A 
HETATM    5  C   UNL     1      61.978  11.010   3.188  1.00  0.00     0.025 A 
HETATM    6  C   UNL     1      62.907  10.399   5.317  1.00  0.00     0.017 A 
HETATM    7  C   UNL     1      62.285  11.340   4.506  1.00  0.00     0.003 A 
ENDROOT
BRANCH   3   8
HETATM    8  C   UNL     1      62.010   9.348   1.291  1.00  0.00     0.084 C 
BRANCH   8   9
HETATM    9  C   UNL     1      60.941   8.253   1.209  1.00  0.00     0.237 C 
BRANCH   9  10
HETATM   10  N   UNL     1      61.531   6.986   0.750  1.00  0.00    -0.079 N 
HETATM   11  C   UNL     1      61.153   5.890   1.633  1.00  0.00     0.267 C 
HETATM   12  H   UNL     1      62.548   7.073   0.743  1.00  0.00     0.276 HD
HETATM   13  H   UNL     1      61.185   6.783  -0.187  1.00  0.00     0.276 HD
ENDBRANCH   9  10
ENDBRANCH   8   9
ENDBRANCH   3   8
TORSDOF 3
ENDMDL
MODEL 9
REMARK VINA RESULT:      -3.3     13.204     14.144
REMARK  3 active torsions:
REMARK  status: ('A' for Active; 'I' for Inactive)
REMARK    1  A    between atoms: C_3  and  C_5 
REMARK    2  A    between atoms: N_4  and  C_7 
REMARK    3  A    between atoms: C_5  and  C_7 
ROOT
HETATM    1  N   UNL     1      57.202   1.483  14.437  1.00  0.00    -0.369 N 
ATOM      2  HN  UNL     1      56.629   1.214  15.237  1.00  0.00     0.165 HD
HETATM    3  C   UNL     1      56.672   2.160  13.389  1.00  0.00     0.010 A 
HETATM    4  C   UNL     1      58.517   1.177  14.383  1.00  0.00     0.088 A 
HETATM    5  C   UNL     1      57.433   2.534  12.284  1.00  0.00     0.025 A 
HETATM    6  C   UNL     1      59.342   1.515  13.326  1.00  0.00     0.017 A 
HETATM    7  C   UNL     1      58.786   2.207  12.257  1.00  0.00     0.003 A 
ENDROOT
BRANCH   3   8
HETATM    8  C   UNL     1      55.197   2.472  13.448  1.00  0.00     0.084 C 
BRANCH   8   9
HETATM    9  C   UNL     1      54.455   1.532  14.405  1.00  0.00     0.237 C 
BRANCH   9  10
HETATM   10  N   UNL     1      53.237   2.175  14.924  1.00  0.00    -0.079 N 
HETATM   11  C   UNL     1      52.207   1.183  15.199  1.00  0.00     0.267 C 
HETATM   12  H   UNL     1      52.887   2.836  14.230  1.00  0.00     0.276 HD
HETATM   13  H   UNL     1      53.466   2.658  15.792  1.00  0.00     0.276 HD
ENDBRANCH   9  10
ENDBRANCH   8   9
ENDBRANCH   3   8
TORSDOF 3
ENDMDL
