MODEL 1
REMARK VINA RESULT:      -4.8      0.000      0.000
REMARK  0 active torsions:
REMARK  status: ('A' for Active; 'I' for Inactive)
ROOT
HETATM    1  C   UNL     1      61.733   8.632   1.821  1.00  0.00    -0.023 C 
HETATM    2  C   UNL     1      62.298   8.242   3.235  1.00  0.00    -0.023 C 
HETATM    3  C   UNL     1      62.019  10.633   3.074  1.00  0.00     0.128 C 
HETATM    4  C   UNL     1      59.980   7.728   3.209  1.00  0.00     0.128 C 
HETATM    5  C   UNL     1      62.401   9.559   4.049  1.00  0.00     0.088 C 
HETATM    6  C   UNL     1      61.256   7.298   3.863  1.00  0.00     0.088 C 
HETATM    7  C   UNL     1      62.008  10.141   1.661  1.00  0.00     0.088 C 
HETATM    8  C   UNL     1      60.209   8.353   1.864  1.00  0.00     0.088 C 
HETATM    9  O   UNL     1      61.820  11.798   3.389  1.00  0.00    -0.298 OA
HETATM   10  O   UNL     1      58.870   7.522   3.682  1.00  0.00    -0.298 OA
HETATM   11  C   UNL     1      62.357   7.884   0.635  1.00  0.00     0.016 C 
HETATM   12  C   UNL     1      63.663   7.539   3.228  1.00  0.00     0.016 C 
ENDROOT
TORSDOF 0
ENDMDL
MODEL 2
REMARK VINA RESULT:      -4.8      0.024      3.541
REMARK  0 active torsions:
REMARK  status: ('A' for Active; 'I' for Inactive)
ROOT
HETATM    1  C   UNL     1      62.307   8.227   3.241  1.00  0.00    -0.023 C 
HETATM    2  C   UNL     1      61.748   8.609   1.822  1.00  0.00    -0.023 C 
HETATM    3  C   UNL     1      59.986   7.708   3.201  1.00  0.00     0.128 C 
HETATM    4  C   UNL     1      62.020  10.616   3.062  1.00  0.00     0.128 C 
HETATM    5  C   UNL     1      60.223   8.328   1.857  1.00  0.00     0.088 C 
HETATM    6  C   UNL     1      62.017  10.116   1.651  1.00  0.00     0.088 C 
HETATM    7  C   UNL     1      61.258   7.283   3.863  1.00  0.00     0.088 C 
HETATM    8  C   UNL     1      62.402   9.549   4.045  1.00  0.00     0.088 C 
HETATM    9  O   UNL     1      58.875   7.498   3.667  1.00  0.00    -0.298 OA
HETATM   10  O   UNL     1      61.813  11.782   3.371  1.00  0.00    -0.298 OA
HETATM   11  C   UNL     1      63.672   7.527   3.243  1.00  0.00     0.016 C 
HETATM   12  C   UNL     1      62.379   7.856   0.642  1.00  0.00     0.016 C 
ENDROOT
TORSDOF 0
ENDMDL
MODEL 3
REMARK VINA RESULT:      -4.7      1.987      2.684
REMARK  0 active torsions:
REMARK  status: ('A' for Active; 'I' for Inactive)
ROOT
HETATM    1  C   UNL     1      62.930   7.648   3.841  1.00  0.00    -0.023 C 
HETATM    2  C   UNL     1      63.802   8.225   5.014  1.00  0.00    -0.023 C 
HETATM    3  C   UNL     1      62.337   9.931   4.142  1.00  0.00     0.128 C 
HETATM    4  C   UNL     1      62.081   6.898   5.971  1.00  0.00     0.128 C 
HETATM    5  C   UNL     1      63.337   9.690   5.232  1.00  0.00     0.088 C 
HETATM    6  C   UNL     1      63.476   7.365   6.249  1.00  0.00     0.088 C 
HETATM    7  C   UNL     1      62.382   8.875   3.084  1.00  0.00     0.088 C 
HETATM    8  C   UNL     1      61.777   6.850   4.502  1.00  0.00     0.088 C 
HETATM    9  O   UNL     1      61.623  10.923   4.081  1.00  0.00    -0.298 OA
HETATM   10  O   UNL     1      61.304   6.522   6.838  1.00  0.00    -0.298 OA
HETATM   11  C   UNL     1      63.676   6.744   2.851  1.00  0.00     0.016 C 
HETATM   12  C   UNL     1      65.319   8.201   4.780  1.00  0.00     0.016 C 
ENDROOT
TORSDOF 0
ENDMDL
MODEL 4
REMARK VINA RESULT:      -4.3      5.101      6.851
REMARK  0 active torsions:
REMARK  status: ('A' for Active; 'I' for Inactive)
ROOT
HETATM    1  C   UNL     1      66.849   6.274   5.599  1.00  0.00    -0.023 C 
HETATM    2  C   UNL     1      65.466   5.938   6.267  1.00  0.00    -0.023 C 
HETATM    3  C   UNL     1      67.174   6.178   7.953  1.00  0.00     0.128 C 
HETATM    4  C   UNL     1      65.431   8.226   5.634  1.00  0.00     0.128 C 
HETATM    5  C   UNL     1      65.699   5.957   7.801  1.00  0.00     0.088 C 
HETATM    6  C   UNL     1      64.508   7.069   5.851  1.00  0.00     0.088 C 
HETATM    7  C   UNL     1      67.916   5.972   6.671  1.00  0.00     0.088 C 
HETATM    8  C   UNL     1      66.819   7.788   5.267  1.00  0.00     0.088 C 
HETATM    9  O   UNL     1      67.719   6.418   9.022  1.00  0.00    -0.298 OA
HETATM   10  O   UNL     1      65.076   9.397   5.672  1.00  0.00    -0.298 OA
HETATM   11  C   UNL     1      67.178   5.478   4.331  1.00  0.00     0.016 C 
HETATM   12  C   UNL     1      64.850   4.591   5.861  1.00  0.00     0.016 C 
ENDROOT
TORSDOF 0
ENDMDL
MODEL 5
REMARK VINA RESULT:      -4.2      4.905      6.548
REMARK  0 active torsions:
REMARK  status: ('A' for Active; 'I' for Inactive)
ROOT
HETATM    1  C   UNL     1      65.353   5.935   5.997  1.00  0.00    -0.023 C 
HETATM    2  C   UNL     1      66.708   6.310   5.294  1.00  0.00    -0.023 C 
HETATM    3  C   UNL     1      65.311   8.264   5.520  1.00  0.00     0.128 C 
HETATM    4  C   UNL     1      67.139   6.054   7.615  1.00  0.00     0.128 C 
HETATM    5  C   UNL     1      66.678   7.845   5.066  1.00  0.00     0.088 C 
HETATM    6  C   UNL     1      67.821   5.934   6.289  1.00  0.00     0.088 C 
HETATM    7  C   UNL     1      64.389   7.100   5.698  1.00  0.00     0.088 C 
HETATM    8  C   UNL     1      65.656   5.848   7.515  1.00  0.00     0.088 C 
HETATM    9  O   UNL     1      64.966   9.430   5.650  1.00  0.00    -0.298 OA
HETATM   10  O   UNL     1      67.731   6.222   8.673  1.00  0.00    -0.298 OA
HETATM   11  C   UNL     1      64.710   4.623   5.527  1.00  0.00     0.016 C 
HETATM   12  C   UNL     1      66.975   5.602   3.959  1.00  0.00     0.016 C 
ENDROOT
TORSDOF 0
ENDMDL
MODEL 6
REMARK VINA RESULT:      -4.1      5.352      6.534
REMARK  0 active torsions:
REMARK  status: ('A' for Active; 'I' for Inactive)
ROOT
HETATM    1  C   UNL     1      66.792   6.994   5.330  1.00  0.00    -0.023 C 
HETATM    2  C   UNL     1      66.898   5.765   6.303  1.00  0.00    -0.023 C 
HETATM    3  C   UNL     1      64.811   6.924   6.643  1.00  0.00     0.128 C 
HETATM    4  C   UNL     1      66.364   4.939   4.142  1.00  0.00     0.128 C 
HETATM    5  C   UNL     1      65.562   5.705   7.089  1.00  0.00     0.088 C 
HETATM    6  C   UNL     1      67.053   4.524   5.405  1.00  0.00     0.088 C 
HETATM    7  C   UNL     1      65.683   7.894   5.912  1.00  0.00     0.088 C 
HETATM    8  C   UNL     1      66.372   6.427   3.950  1.00  0.00     0.088 C 
HETATM    9  O   UNL     1      63.638   7.139   6.918  1.00  0.00    -0.298 OA
HETATM   10  O   UNL     1      65.917   4.150   3.320  1.00  0.00    -0.298 OA
HETATM   11  C   UNL     1      68.074   7.822   5.174  1.00  0.00     0.016 C 
HETATM   12  C   UNL     1      68.071   5.809   7.294  1.00  0.00     0.016 C 
ENDROOT
TORSDOF 0
ENDMDL
MODEL 7
REMARK VINA RESULT:      -4.0      2.642      4.258
REMARK  0 active torsions:
REMARK  status: ('A' for Active; 'I' for Inactive)
ROOT
HETATM    1  C   UNL     1      62.728   7.967   3.619  1.00  0.00    -0.023 C 
HETATM    2  C   UNL     1      63.312   8.542   4.960  1.00  0.00    -0.023 C 
HETATM    3  C   UNL     1      61.727   6.784   5.423  1.00  0.00     0.128 C 
HETATM    4  C   UNL     1      64.960   7.131   3.995  1.00  0.00     0.128 C 
HETATM    5  C   UNL     1      62.696   7.700   6.109  1.00  0.00     0.088 C 
HETATM    6  C   UNL     1      64.835   8.326   4.888  1.00  0.00     0.088 C 
HETATM    7  C   UNL     1      61.449   7.201   4.014  1.00  0.00     0.088 C 
HETATM    8  C   UNL     1      63.798   6.996   3.056  1.00  0.00     0.088 C 
HETATM    9  O   UNL     1      61.164   5.850   5.978  1.00  0.00    -0.298 OA
HETATM   10  O   UNL     1      65.937   6.394   3.977  1.00  0.00    -0.298 OA
HETATM   11  C   UNL     1      62.374   9.013   2.555  1.00  0.00     0.016 C 
HETATM   12  C   UNL     1      63.034  10.031   5.214  1.00  0.00     0.016 C 
ENDROOT
TORSDOF 0
ENDMDL
MODEL 8
REMARK VINA RESULT:      -3.8      5.012      5.998
REMARK  0 active torsions:
REMARK  status: ('A' for Active; 'I' for Inactive)
ROOT
HETATM    1  C   UNL     1      66.288   6.087   4.930  1.00  0.00    -0.023 C 
HETATM    2  C   UNL     1      66.583   5.525   6.368  1.00  0.00    -0.023 C 
HETATM    3  C   UNL     1      66.615   7.936   6.390  1.00  0.00     0.128 C 
HETATM    4  C   UNL     1      64.251   5.320   5.971  1.00  0.00     0.128 C 
HETATM    5  C   UNL     1      66.717   6.754   7.306  1.00  0.00     0.088 C 
HETATM    6  C   UNL     1      65.355   4.680   6.754  1.00  0.00     0.088 C 
HETATM    7  C   UNL     1      66.759   7.556   4.950  1.00  0.00     0.088 C 
HETATM    8  C   UNL     1      64.752   6.006   4.735  1.00  0.00     0.088 C 
HETATM    9  O   UNL     1      66.510   9.091   6.779  1.00  0.00    -0.298 OA
HETATM   10  O   UNL     1      63.067   5.225   6.263  1.00  0.00    -0.298 OA
HETATM   11  C   UNL     1      66.990   5.355   3.780  1.00  0.00     0.016 C 
HETATM   12  C   UNL     1      67.842   4.653   6.487  1.00  0.00     0.016 C 
ENDROOT
TORSDOF 0
ENDMDL
MODEL 9
REMARK VINA RESULT:      -3.8      2.797      3.957
REMARK  0 active torsions:
REMARK  status: ('A' for Active; 'I' for Inactive)
ROOT
HETATM    1  C   UNL     1      61.608   7.039   4.315  1.00  0.00    -0.023 C 
HETATM    2  C   UNL     1      62.414   8.320   3.890  1.00  0.00    -0.023 C 
HETATM    3  C   UNL     1      63.197   7.506   6.022  1.00  0.00     0.128 C 
HETATM    4  C   UNL     1      63.234   6.489   2.620  1.00  0.00     0.128 C 
HETATM    5  C   UNL     1      63.488   8.551   4.986  1.00  0.00     0.088 C 
HETATM    6  C   UNL     1      63.080   7.976   2.545  1.00  0.00     0.088 C 
HETATM    7  C   UNL     1      61.857   6.870   5.828  1.00  0.00     0.088 C 
HETATM    8  C   UNL     1      62.218   5.854   3.522  1.00  0.00     0.088 C 
HETATM    9  O   UNL     1      63.935   7.261   6.966  1.00  0.00    -0.298 OA
HETATM   10  O   UNL     1      64.045   5.855   1.958  1.00  0.00    -0.298 OA
HETATM   11  C   UNL     1      60.097   7.100   4.063  1.00  0.00     0.016 C 
HETATM   12  C   UNL     1      61.578   9.596   3.718  1.00  0.00     0.016 C 
ENDROOT
TORSDOF 0
ENDMDL
