MODEL 1
REMARK VINA RESULT:      -4.9      0.000      0.000
REMARK  2 active torsions:
REMARK  status: ('A' for Active; 'I' for Inactive)
REMARK    1  A    between atoms: C_1  and  C_8 
REMARK    2  A    between atoms: C_6  and  O_7 
ROOT
HETATM    1  C   UNL     1      61.890   9.385   2.796  1.00  0.00     0.093 C 
HETATM    2  C   UNL     1      62.951   8.683   3.659  1.00  0.00     0.016 C 
HETATM    3  C   UNL     1      61.997  10.914   2.913  1.00  0.00     0.016 C 
HETATM    4  C   UNL     1      62.943   9.177   5.103  1.00  0.00     0.032 C 
HETATM    5  C   UNL     1      62.011  11.392   4.362  1.00  0.00     0.032 C 
HETATM    6  C   UNL     1      63.103  10.693   5.169  1.00  0.00     0.118 C 
ENDROOT
BRANCH   1   7
HETATM    7  C   UNL     1      61.951   8.923   1.335  1.00  0.00     0.391 C 
HETATM    8  F   UNL     1      60.726   8.817   0.778  1.00  0.00    -0.171 F 
HETATM    9  F   UNL     1      62.651   9.813   0.591  1.00  0.00    -0.171 F 
HETATM   10  F   UNL     1      62.560   7.725   1.201  1.00  0.00    -0.171 F 
ENDBRANCH   1   7
BRANCH   6  11
HETATM   11  O   UNL     1      63.055  11.126   6.523  1.00  0.00    -0.396 OA
HETATM   12  H   UNL     1      62.455  10.552   7.025  1.00  0.00     0.210 HD
ENDBRANCH   6  11
TORSDOF 2
ENDMDL
MODEL 2
REMARK VINA RESULT:      -4.6      1.534      2.439
REMARK  2 active torsions:
REMARK  status: ('A' for Active; 'I' for Inactive)
REMARK    1  A    between atoms: C_1  and  C_8 
REMARK    2  A    between atoms: C_6  and  O_7 
ROOT
HETATM    1  C   UNL     1      62.657   9.113   2.786  1.00  0.00     0.093 C 
HETATM    2  C   UNL     1      62.353  10.008   3.999  1.00  0.00     0.016 C 
HETATM    3  C   UNL     1      62.329   7.640   3.084  1.00  0.00     0.016 C 
HETATM    4  C   UNL     1      63.008   9.493   5.277  1.00  0.00     0.032 C 
HETATM    5  C   UNL     1      62.970   7.146   4.376  1.00  0.00     0.032 C 
HETATM    6  C   UNL     1      62.612   8.046   5.556  1.00  0.00     0.118 C 
ENDROOT
BRANCH   1   7
HETATM    7  C   UNL     1      61.942   9.608   1.523  1.00  0.00     0.391 C 
HETATM    8  F   UNL     1      61.837  10.954   1.487  1.00  0.00    -0.171 F 
HETATM    9  F   UNL     1      62.629   9.231   0.418  1.00  0.00    -0.171 F 
HETATM   10  F   UNL     1      60.694   9.104   1.408  1.00  0.00    -0.171 F 
ENDBRANCH   1   7
BRANCH   6  11
HETATM   11  O   UNL     1      63.266   7.584   6.733  1.00  0.00    -0.396 OA
HETATM   12  H   UNL     1      63.774   8.311   7.126  1.00  0.00     0.210 HD
ENDBRANCH   6  11
TORSDOF 2
ENDMDL
MODEL 3
REMARK VINA RESULT:      -4.5      1.489      1.867
REMARK  2 active torsions:
REMARK  status: ('A' for Active; 'I' for Inactive)
REMARK    1  A    between atoms: C_1  and  C_8 
REMARK    2  A    between atoms: C_6  and  O_7 
ROOT
HETATM    1  C   UNL     1      62.087   8.931   2.852  1.00  0.00     0.093 C 
HETATM    2  C   UNL     1      63.194   7.871   2.724  1.00  0.00     0.016 C 
HETATM    3  C   UNL     1      62.486  10.038   3.842  1.00  0.00     0.016 C 
HETATM    4  C   UNL     1      63.639   7.332   4.080  1.00  0.00     0.032 C 
HETATM    5  C   UNL     1      62.951   9.484   5.184  1.00  0.00     0.032 C 
HETATM    6  C   UNL     1      64.073   8.463   5.008  1.00  0.00     0.118 C 
ENDROOT
BRANCH   1   7
HETATM    7  C   UNL     1      61.693   9.508   1.486  1.00  0.00     0.391 C 
HETATM    8  F   UNL     1      60.487   9.066   1.071  1.00  0.00    -0.171 F 
HETATM    9  F   UNL     1      61.623  10.859   1.551  1.00  0.00    -0.171 F 
HETATM   10  F   UNL     1      62.588   9.201   0.523  1.00  0.00    -0.171 F 
ENDBRANCH   1   7
BRANCH   6  11
HETATM   11  O   UNL     1      64.448   7.932   6.274  1.00  0.00    -0.396 OA
HETATM   12  H   UNL     1      63.741   8.098   6.916  1.00  0.00     0.210 HD
ENDBRANCH   6  11
TORSDOF 2
ENDMDL
MODEL 4
REMARK VINA RESULT:      -4.3      1.472      2.411
REMARK  2 active torsions:
REMARK  status: ('A' for Active; 'I' for Inactive)
REMARK    1  A    between atoms: C_1  and  C_8 
REMARK    2  A    between atoms: C_6  and  O_7 
ROOT
HETATM    1  C   UNL     1      62.691   8.469   2.329  1.00  0.00     0.093 C 
HETATM    2  C   UNL     1      61.717   9.525   1.781  1.00  0.00     0.016 C 
HETATM    3  C   UNL     1      62.692   8.454   3.866  1.00  0.00     0.016 C 
HETATM    4  C   UNL     1      61.952  10.902   2.394  1.00  0.00     0.032 C 
HETATM    5  C   UNL     1      62.904   9.841   4.466  1.00  0.00     0.032 C 
HETATM    6  C   UNL     1      61.892  10.845   3.918  1.00  0.00     0.118 C 
ENDROOT
BRANCH   1   7
HETATM    7  C   UNL     1      62.404   7.078   1.749  1.00  0.00     0.391 C 
HETATM    8  F   UNL     1      61.770   6.276   2.631  1.00  0.00    -0.171 F 
HETATM    9  F   UNL     1      61.609   7.180   0.658  1.00  0.00    -0.171 F 
HETATM   10  F   UNL     1      63.531   6.441   1.364  1.00  0.00    -0.171 F 
ENDBRANCH   1   7
BRANCH   6  11
HETATM   11  O   UNL     1      62.149  12.135   4.460  1.00  0.00    -0.396 OA
HETATM   12  H   UNL     1      61.323  12.643   4.494  1.00  0.00     0.210 HD
ENDBRANCH   6  11
TORSDOF 2
ENDMDL
MODEL 5
REMARK VINA RESULT:      -4.1      3.071      4.036
REMARK  2 active torsions:
REMARK  status: ('A' for Active; 'I' for Inactive)
REMARK    1  A    between atoms: C_1  and  C_8 
REMARK    2  A    between atoms: C_6  and  O_7 
ROOT
HETATM    1  C   UNL     1      62.955   8.637   4.567  1.00  0.00     0.093 C 
HETATM    2  C   UNL     1      63.022  10.124   4.952  1.00  0.00     0.016 C 
HETATM    3  C   UNL     1      63.032   8.451   3.043  1.00  0.00     0.016 C 
HETATM    4  C   UNL     1      62.002  10.966   4.192  1.00  0.00     0.032 C 
HETATM    5  C   UNL     1      62.022   9.316   2.295  1.00  0.00     0.032 C 
HETATM    6  C   UNL     1      62.152  10.787   2.684  1.00  0.00     0.118 C 
ENDROOT
BRANCH   1   7
HETATM    7  C   UNL     1      64.026   7.814   5.293  1.00  0.00     0.391 C 
HETATM    8  F   UNL     1      63.652   7.475   6.545  1.00  0.00    -0.171 F 
HETATM    9  F   UNL     1      64.265   6.662   4.623  1.00  0.00    -0.171 F 
HETATM   10  F   UNL     1      65.202   8.472   5.387  1.00  0.00    -0.171 F 
ENDBRANCH   1   7
BRANCH   6  11
HETATM   11  O   UNL     1      61.165  11.556   2.006  1.00  0.00    -0.396 OA
HETATM   12  H   UNL     1      61.412  12.494   2.031  1.00  0.00     0.210 HD
ENDBRANCH   6  11
TORSDOF 2
ENDMDL
MODEL 6
REMARK VINA RESULT:      -4.0      2.816      3.850
REMARK  2 active torsions:
REMARK  status: ('A' for Active; 'I' for Inactive)
REMARK    1  A    between atoms: C_1  and  C_8 
REMARK    2  A    between atoms: C_6  and  O_7 
ROOT
HETATM    1  C   UNL     1      63.785   7.469   4.107  1.00  0.00     0.093 C 
HETATM    2  C   UNL     1      64.182   8.762   4.840  1.00  0.00     0.016 C 
HETATM    3  C   UNL     1      63.079   7.777   2.776  1.00  0.00     0.016 C 
HETATM    4  C   UNL     1      63.009   9.726   4.991  1.00  0.00     0.032 C 
HETATM    5  C   UNL     1      61.924   8.760   2.938  1.00  0.00     0.032 C 
HETATM    6  C   UNL     1      62.375  10.040   3.638  1.00  0.00     0.118 C 
ENDROOT
BRANCH   1   7
HETATM    7  C   UNL     1      64.987   6.537   3.909  1.00  0.00     0.391 C 
HETATM    8  F   UNL     1      66.162   7.201   3.946  1.00  0.00    -0.171 F 
HETATM    9  F   UNL     1      65.024   5.605   4.890  1.00  0.00    -0.171 F 
HETATM   10  F   UNL     1      64.934   5.876   2.732  1.00  0.00    -0.171 F 
ENDBRANCH   1   7
BRANCH   6  11
HETATM   11  O   UNL     1      61.265  10.911   3.816  1.00  0.00    -0.396 OA
HETATM   12  H   UNL     1      60.708  10.582   4.539  1.00  0.00     0.210 HD
ENDBRANCH   6  11
TORSDOF 2
ENDMDL
MODEL 7
REMARK VINA RESULT:      -4.0      3.154      3.958
REMARK  2 active torsions:
REMARK  status: ('A' for Active; 'I' for Inactive)
REMARK    1  A    between atoms: C_1  and  C_8 
REMARK    2  A    between atoms: C_6  and  O_7 
ROOT
HETATM    1  C   UNL     1      63.868   8.341   4.438  1.00  0.00     0.093 C 
HETATM    2  C   UNL     1      62.981   7.998   3.230  1.00  0.00     0.016 C 
HETATM    3  C   UNL     1      63.159   9.316   5.392  1.00  0.00     0.016 C 
HETATM    4  C   UNL     1      62.450   9.245   2.529  1.00  0.00     0.032 C 
HETATM    5  C   UNL     1      62.614  10.546   4.675  1.00  0.00     0.032 C 
HETATM    6  C   UNL     1      61.711  10.156   3.506  1.00  0.00     0.118 C 
ENDROOT
BRANCH   1   7
HETATM    7  C   UNL     1      64.344   7.079   5.169  1.00  0.00     0.391 C 
HETATM    8  F   UNL     1      63.428   6.089   5.132  1.00  0.00    -0.171 F 
HETATM    9  F   UNL     1      65.473   6.601   4.592  1.00  0.00    -0.171 F 
HETATM   10  F   UNL     1      64.630   7.316   6.468  1.00  0.00    -0.171 F 
ENDBRANCH   1   7
BRANCH   6  11
HETATM   11  O   UNL     1      61.260  11.324   2.831  1.00  0.00    -0.396 OA
HETATM   12  H   UNL     1      61.082  11.111   1.901  1.00  0.00     0.210 HD
ENDBRANCH   6  11
TORSDOF 2
ENDMDL
MODEL 8
REMARK VINA RESULT:      -3.9      3.087      4.074
REMARK  2 active torsions:
REMARK  status: ('A' for Active; 'I' for Inactive)
REMARK    1  A    between atoms: C_1  and  C_8 
REMARK    2  A    between atoms: C_6  and  O_7 
ROOT
HETATM    1  C   UNL     1      63.948   7.766   4.565  1.00  0.00     0.093 C 
HETATM    2  C   UNL     1      64.074   9.174   5.171  1.00  0.00     0.016 C 
HETATM    3  C   UNL     1      63.447   7.827   3.113  1.00  0.00     0.016 C 
HETATM    4  C   UNL     1      62.795   9.990   5.011  1.00  0.00     0.032 C 
HETATM    5  C   UNL     1      62.182   8.664   2.963  1.00  0.00     0.032 C 
HETATM    6  C   UNL     1      62.366  10.063   3.548  1.00  0.00     0.118 C 
ENDROOT
BRANCH   1   7
HETATM    7  C   UNL     1      65.261   6.981   4.679  1.00  0.00     0.391 C 
HETATM    8  F   UNL     1      65.771   6.656   3.472  1.00  0.00    -0.171 F 
HETATM    9  F   UNL     1      66.195   7.720   5.323  1.00  0.00    -0.171 F 
HETATM   10  F   UNL     1      65.112   5.832   5.375  1.00  0.00    -0.171 F 
ENDBRANCH   1   7
BRANCH   6  11
HETATM   11  O   UNL     1      61.154  10.799   3.436  1.00  0.00    -0.396 OA
HETATM   12  H   UNL     1      61.049  11.370   4.213  1.00  0.00     0.210 HD
ENDBRANCH   6  11
TORSDOF 2
ENDMDL
MODEL 9
REMARK VINA RESULT:      -3.9      3.557      4.346
REMARK  2 active torsions:
REMARK  status: ('A' for Active; 'I' for Inactive)
REMARK    1  A    between atoms: C_1  and  C_8 
REMARK    2  A    between atoms: C_6  and  O_7 
ROOT
HETATM    1  C   UNL     1      62.810   8.958   3.669  1.00  0.00     0.093 C 
HETATM    2  C   UNL     1      61.955   7.680   3.691  1.00  0.00     0.016 C 
HETATM    3  C   UNL     1      62.115  10.082   2.884  1.00  0.00     0.016 C 
HETATM    4  C   UNL     1      61.516   7.253   2.294  1.00  0.00     0.032 C 
HETATM    5  C   UNL     1      61.660   9.635   1.498  1.00  0.00     0.032 C 
HETATM    6  C   UNL     1      60.786   8.385   1.574  1.00  0.00     0.118 C 
ENDROOT
BRANCH   1   7
HETATM    7  C   UNL     1      63.193   9.409   5.084  1.00  0.00     0.391 C 
HETATM    8  F   UNL     1      62.709  10.634   5.381  1.00  0.00    -0.171 F 
HETATM    9  F   UNL     1      62.691   8.549   6.002  1.00  0.00    -0.171 F 
HETATM   10  F   UNL     1      64.531   9.449   5.265  1.00  0.00    -0.171 F 
ENDBRANCH   1   7
BRANCH   6  11
HETATM   11  O   UNL     1      60.421   7.968   0.264  1.00  0.00    -0.396 OA
HETATM   12  H   UNL     1      59.768   8.585  -0.101  1.00  0.00     0.210 HD
ENDBRANCH   6  11
TORSDOF 2
ENDMDL
