MODEL 1
REMARK VINA RESULT:      -4.3      0.000      0.000
REMARK  1 active torsions:
REMARK  status: ('A' for Active; 'I' for Inactive)
REMARK    1  A    between atoms: C_4  and  O_7 
ROOT
HETATM    1  C   UNL     1      62.050   9.135   2.775  1.00  0.00    -0.048 C 
HETATM    2  C   UNL     1      63.232   8.598   3.612  1.00  0.00     0.011 C 
HETATM    3  C   UNL     1      62.008  10.676   2.867  1.00  0.00     0.011 C 
HETATM    4  C   UNL     1      63.150  10.629   5.123  1.00  0.00     0.118 C 
HETATM    5  C   UNL     1      61.989  11.190   4.306  1.00  0.00     0.032 C 
HETATM    6  C   UNL     1      63.227   9.105   5.054  1.00  0.00     0.032 C 
HETATM    7  C   UNL     1      62.247   8.725   1.303  1.00  0.00     0.015 C 
HETATM    8  C   UNL     1      60.720   8.524   3.260  1.00  0.00     0.015 C 
ENDROOT
BRANCH   4   9
HETATM    9  O   UNL     1      63.015  11.035   6.482  1.00  0.00    -0.396 OA
HETATM   10  H   UNL     1      62.573  10.335   6.987  1.00  0.00     0.210 HD
ENDBRANCH   4   9
TORSDOF 1
ENDMDL
MODEL 2
REMARK VINA RESULT:      -4.0      2.020      3.000
REMARK  1 active torsions:
REMARK  status: ('A' for Active; 'I' for Inactive)
REMARK    1  A    between atoms: C_4  and  O_7 
ROOT
HETATM    1  C   UNL     1      62.057   8.138   3.340  1.00  0.00    -0.048 C 
HETATM    2  C   UNL     1      61.645   8.381   1.871  1.00  0.00     0.011 C 
HETATM    3  C   UNL     1      61.571   9.314   4.215  1.00  0.00     0.011 C 
HETATM    4  C   UNL     1      61.631  10.887   2.236  1.00  0.00     0.118 C 
HETATM    5  C   UNL     1      62.026  10.676   3.695  1.00  0.00     0.032 C 
HETATM    6  C   UNL     1      62.093   9.742   1.338  1.00  0.00     0.032 C 
HETATM    7  C   UNL     1      61.403   6.836   3.839  1.00  0.00     0.015 C 
HETATM    8  C   UNL     1      63.586   7.971   3.454  1.00  0.00     0.015 C 
ENDROOT
BRANCH   4   9
HETATM    9  O   UNL     1      62.186  12.112   1.765  1.00  0.00    -0.396 OA
HETATM   10  H   UNL     1      62.672  12.545   2.485  1.00  0.00     0.210 HD
ENDBRANCH   4   9
TORSDOF 1
ENDMDL
MODEL 3
REMARK VINA RESULT:      -3.8      1.702      2.340
REMARK  1 active torsions:
REMARK  status: ('A' for Active; 'I' for Inactive)
REMARK    1  A    between atoms: C_4  and  O_7 
ROOT
HETATM    1  C   UNL     1      62.012   7.726   1.371  1.00  0.00    -0.048 C 
HETATM    2  C   UNL     1      62.405   7.621   2.862  1.00  0.00     0.011 C 
HETATM    3  C   UNL     1      62.346   9.140   0.846  1.00  0.00     0.011 C 
HETATM    4  C   UNL     1      62.113  10.119   3.167  1.00  0.00     0.118 C 
HETATM    5  C   UNL     1      61.734  10.254   1.694  1.00  0.00     0.032 C 
HETATM    6  C   UNL     1      61.800   8.731   3.722  1.00  0.00     0.032 C 
HETATM    7  C   UNL     1      62.814   6.689   0.564  1.00  0.00     0.015 C 
HETATM    8  C   UNL     1      60.513   7.415   1.182  1.00  0.00     0.015 C 
ENDROOT
BRANCH   4   9
HETATM    9  O   UNL     1      61.419  11.102   3.929  1.00  0.00    -0.396 OA
HETATM   10  H   UNL     1      61.666  11.987   3.618  1.00  0.00     0.210 HD
ENDBRANCH   4   9
TORSDOF 1
ENDMDL
MODEL 4
REMARK VINA RESULT:      -3.8      1.855      2.984
REMARK  1 active torsions:
REMARK  status: ('A' for Active; 'I' for Inactive)
REMARK    1  A    between atoms: C_4  and  O_7 
ROOT
HETATM    1  C   UNL     1      63.955   7.575   4.461  1.00  0.00    -0.048 C 
HETATM    2  C   UNL     1      64.230   8.968   5.069  1.00  0.00     0.011 C 
HETATM    3  C   UNL     1      63.317   7.737   3.063  1.00  0.00     0.011 C 
HETATM    4  C   UNL     1      62.363   9.991   3.697  1.00  0.00     0.118 C 
HETATM    5  C   UNL     1      62.077   8.629   3.071  1.00  0.00     0.032 C 
HETATM    6  C   UNL     1      62.998   9.873   5.081  1.00  0.00     0.032 C 
HETATM    7  C   UNL     1      65.286   6.814   4.319  1.00  0.00     0.015 C 
HETATM    8  C   UNL     1      63.037   6.751   5.386  1.00  0.00     0.015 C 
ENDROOT
BRANCH   4   9
HETATM    9  O   UNL     1      61.151  10.735   3.794  1.00  0.00    -0.396 OA
HETATM   10  H   UNL     1      60.867  11.006   2.907  1.00  0.00     0.210 HD
ENDBRANCH   4   9
TORSDOF 1
ENDMDL
MODEL 5
REMARK VINA RESULT:      -3.7      1.067      2.265
REMARK  1 active torsions:
REMARK  status: ('A' for Active; 'I' for Inactive)
REMARK    1  A    between atoms: C_4  and  O_7 
ROOT
HETATM    1  C   UNL     1      61.825   8.361   3.451  1.00  0.00    -0.048 C 
HETATM    2  C   UNL     1      61.279   9.785   3.695  1.00  0.00     0.011 C 
HETATM    3  C   UNL     1      62.518   7.846   4.732  1.00  0.00     0.011 C 
HETATM    4  C   UNL     1      63.033  10.208   5.472  1.00  0.00     0.118 C 
HETATM    5  C   UNL     1      63.586   8.801   5.261  1.00  0.00     0.032 C 
HETATM    6  C   UNL     1      62.337  10.752   4.227  1.00  0.00     0.032 C 
HETATM    7  C   UNL     1      60.654   7.424   3.102  1.00  0.00     0.015 C 
HETATM    8  C   UNL     1      62.806   8.353   2.261  1.00  0.00     0.015 C 
ENDROOT
BRANCH   4   9
HETATM    9  O   UNL     1      64.093  11.085   5.844  1.00  0.00    -0.396 OA
HETATM   10  H   UNL     1      64.031  11.904   5.327  1.00  0.00     0.210 HD
ENDBRANCH   4   9
TORSDOF 1
ENDMDL
MODEL 6
REMARK VINA RESULT:      -3.6      2.679      4.054
REMARK  1 active torsions:
REMARK  status: ('A' for Active; 'I' for Inactive)
REMARK    1  A    between atoms: C_4  and  O_7 
ROOT
HETATM    1  C   UNL     1      62.331   8.708   3.423  1.00  0.00    -0.048 C 
HETATM    2  C   UNL     1      62.429   8.715   1.880  1.00  0.00     0.011 C 
HETATM    3  C   UNL     1      61.245   7.703   3.867  1.00  0.00     0.011 C 
HETATM    4  C   UNL     1      60.017   7.972   1.674  1.00  0.00     0.118 C 
HETATM    5  C   UNL     1      59.895   7.944   3.195  1.00  0.00     0.032 C 
HETATM    6  C   UNL     1      61.084   8.953   1.194  1.00  0.00     0.032 C 
HETATM    7  C   UNL     1      63.687   8.275   4.012  1.00  0.00     0.015 C 
HETATM    8  C   UNL     1      62.015  10.121   3.953  1.00  0.00     0.015 C 
ENDROOT
BRANCH   4   9
HETATM    9  O   UNL     1      58.760   8.323   1.102  1.00  0.00    -0.396 OA
HETATM   10  H   UNL     1      58.119   7.613   1.268  1.00  0.00     0.210 HD
ENDBRANCH   4   9
TORSDOF 1
ENDMDL
MODEL 7
REMARK VINA RESULT:      -3.6      4.849      6.333
REMARK  1 active torsions:
REMARK  status: ('A' for Active; 'I' for Inactive)
REMARK    1  A    between atoms: C_4  and  O_7 
ROOT
HETATM    1  C   UNL     1      67.253   5.406   6.253  1.00  0.00    -0.048 C 
HETATM    2  C   UNL     1      67.626   6.341   5.081  1.00  0.00     0.011 C 
HETATM    3  C   UNL     1      65.739   5.519   6.543  1.00  0.00     0.011 C 
HETATM    4  C   UNL     1      65.679   7.870   5.615  1.00  0.00     0.118 C 
HETATM    5  C   UNL     1      65.279   6.957   6.771  1.00  0.00     0.032 C 
HETATM    6  C   UNL     1      67.169   7.784   5.295  1.00  0.00     0.032 C 
HETATM    7  C   UNL     1      67.582   3.953   5.864  1.00  0.00     0.015 C 
HETATM    8  C   UNL     1      68.075   5.755   7.510  1.00  0.00     0.015 C 
ENDROOT
BRANCH   4   9
HETATM    9  O   UNL     1      65.339   9.217   5.933  1.00  0.00    -0.396 OA
HETATM   10  H   UNL     1      65.076   9.273   6.865  1.00  0.00     0.210 HD
ENDBRANCH   4   9
TORSDOF 1
ENDMDL
MODEL 8
REMARK VINA RESULT:      -3.5      2.197      3.152
REMARK  1 active torsions:
REMARK  status: ('A' for Active; 'I' for Inactive)
REMARK    1  A    between atoms: C_4  and  O_7 
ROOT
HETATM    1  C   UNL     1      62.790   8.533   4.031  1.00  0.00    -0.048 C 
HETATM    2  C   UNL     1      62.043   7.518   4.925  1.00  0.00     0.011 C 
HETATM    3  C   UNL     1      64.285   8.152   3.954  1.00  0.00     0.011 C 
HETATM    4  C   UNL     1      64.168   7.003   6.203  1.00  0.00     0.118 C 
HETATM    5  C   UNL     1      64.934   7.991   5.327  1.00  0.00     0.032 C 
HETATM    6  C   UNL     1      62.683   7.345   6.302  1.00  0.00     0.032 C 
HETATM    7  C   UNL     1      62.189   8.496   2.613  1.00  0.00     0.015 C 
HETATM    8  C   UNL     1      62.621   9.965   4.578  1.00  0.00     0.015 C 
ENDROOT
BRANCH   4   9
HETATM    9  O   UNL     1      64.737   6.985   7.509  1.00  0.00    -0.396 OA
HETATM   10  H   UNL     1      65.265   6.178   7.620  1.00  0.00     0.210 HD
ENDBRANCH   4   9
TORSDOF 1
ENDMDL
MODEL 9
REMARK VINA RESULT:      -3.4      1.905      2.731
REMARK  1 active torsions:
REMARK  status: ('A' for Active; 'I' for Inactive)
REMARK    1  A    between atoms: C_4  and  O_7 
ROOT
HETATM    1  C   UNL     1      62.132   8.103   2.969  1.00  0.00    -0.048 C 
HETATM    2  C   UNL     1      62.898   9.215   3.720  1.00  0.00     0.011 C 
HETATM    3  C   UNL     1      61.233   7.333   3.962  1.00  0.00     0.011 C 
HETATM    4  C   UNL     1      62.765   7.913   5.888  1.00  0.00     0.118 C 
HETATM    5  C   UNL     1      61.996   6.804   5.175  1.00  0.00     0.032 C 
HETATM    6  C   UNL     1      63.665   8.700   4.938  1.00  0.00     0.032 C 
HETATM    7  C   UNL     1      61.247   8.743   1.883  1.00  0.00     0.015 C 
HETATM    8  C   UNL     1      63.116   7.144   2.270  1.00  0.00     0.015 C 
ENDROOT
BRANCH   4   9
HETATM    9  O   UNL     1      63.556   7.348   6.931  1.00  0.00    -0.396 OA
HETATM   10  H   UNL     1      64.302   7.937   7.125  1.00  0.00     0.210 HD
ENDBRANCH   4   9
TORSDOF 1
ENDMDL
