MODEL 1
REMARK VINA RESULT:      -4.5      0.000      0.000
REMARK  2 active torsions:
REMARK  status: ('A' for Active; 'I' for Inactive)
REMARK    1  A    between atoms: C_1  and  C_5 
REMARK    2  A    between atoms: C_7  and  O_12 
ROOT
HETATM    1  C   UNL     1      66.015   7.749   5.185  1.00  0.00     0.091 C 
HETATM    2  C   UNL     1      66.614   8.035   6.562  1.00  0.00     0.023 C 
HETATM    3  C   UNL     1      66.020   6.931   7.473  1.00  0.00     0.015 C 
HETATM    4  C   UNL     1      65.726   6.231   5.256  1.00  0.00     0.000 C 
HETATM    5  C   UNL     1      65.016   6.159   6.599  1.00  0.00     0.012 C 
HETATM    6  C   UNL     1      67.126   5.955   7.877  1.00  0.00     0.122 C 
HETATM    7  C   UNL     1      66.954   5.272   5.364  1.00  0.00     0.008 C 
HETATM    8  C   UNL     1      67.829   5.373   6.639  1.00  0.00     0.032 C 
ENDROOT
BRANCH   1   9
HETATM    9  C   UNL     1      64.758   8.623   5.039  1.00  0.00     0.177 C 
HETATM   10  O   UNL     1      63.792   8.412   4.336  1.00  0.00    -0.648 OA
HETATM   11  O   UNL     1      64.771   9.729   5.806  1.00  0.00    -0.648 OA
ENDBRANCH   1   9
BRANCH   6  12
HETATM   12  O   UNL     1      68.075   6.589   8.732  1.00  0.00    -0.395 OA
HETATM   13  H   UNL     1      68.957   6.225   8.562  1.00  0.00     0.210 HD
ENDBRANCH   6  12
TORSDOF 2
ENDMDL
MODEL 2
REMARK VINA RESULT:      -4.5      3.805      6.389
REMARK  2 active torsions:
REMARK  status: ('A' for Active; 'I' for Inactive)
REMARK    1  A    between atoms: C_1  and  C_5 
REMARK    2  A    between atoms: C_7  and  O_12 
ROOT
HETATM    1  C   UNL     1      63.216   8.878   4.422  1.00  0.00     0.091 C 
HETATM    2  C   UNL     1      63.279   8.145   3.082  1.00  0.00     0.023 C 
HETATM    3  C   UNL     1      61.804   8.082   2.612  1.00  0.00     0.015 C 
HETATM    4  C   UNL     1      61.928   9.724   4.279  1.00  0.00     0.000 C 
HETATM    5  C   UNL     1      60.969   8.661   3.767  1.00  0.00     0.012 C 
HETATM    6  C   UNL     1      61.615   8.998   1.402  1.00  0.00     0.122 C 
HETATM    7  C   UNL     1      61.932  10.857   3.204  1.00  0.00     0.008 C 
HETATM    8  C   UNL     1      62.063  10.434   1.720  1.00  0.00     0.032 C 
ENDROOT
BRANCH   1   9
HETATM    9  C   UNL     1      63.149   7.811   5.527  1.00  0.00     0.177 C 
HETATM   10  O   UNL     1      62.760   7.955   6.667  1.00  0.00    -0.648 OA
HETATM   11  O   UNL     1      63.566   6.592   5.135  1.00  0.00    -0.648 OA
ENDBRANCH   1   9
BRANCH   6  12
HETATM   12  O   UNL     1      62.326   8.497   0.271  1.00  0.00    -0.395 OA
HETATM   13  H   UNL     1      63.024   7.894   0.569  1.00  0.00     0.210 HD
ENDBRANCH   6  12
TORSDOF 2
ENDMDL
MODEL 3
REMARK VINA RESULT:      -4.4      2.768      5.249
REMARK  2 active torsions:
REMARK  status: ('A' for Active; 'I' for Inactive)
REMARK    1  A    between atoms: C_1  and  C_5 
REMARK    2  A    between atoms: C_7  and  O_12 
ROOT
HETATM    1  C   UNL     1      63.598   7.631   5.641  1.00  0.00     0.091 C 
HETATM    2  C   UNL     1      63.113   9.025   5.241  1.00  0.00     0.023 C 
HETATM    3  C   UNL     1      63.043   8.975   3.694  1.00  0.00     0.015 C 
HETATM    4  C   UNL     1      63.122   6.760   4.454  1.00  0.00     0.000 C 
HETATM    5  C   UNL     1      63.616   7.606   3.290  1.00  0.00     0.012 C 
HETATM    6  C   UNL     1      61.580   9.013   3.250  1.00  0.00     0.122 C 
HETATM    7  C   UNL     1      61.582   6.604   4.252  1.00  0.00     0.008 C 
HETATM    8  C   UNL     1      60.774   7.880   3.905  1.00  0.00     0.032 C 
ENDROOT
BRANCH   1   9
HETATM    9  C   UNL     1      65.126   7.703   5.797  1.00  0.00     0.177 C 
HETATM   10  O   UNL     1      65.914   6.781   5.758  1.00  0.00    -0.648 OA
HETATM   11  O   UNL     1      65.598   8.950   5.982  1.00  0.00    -0.648 OA
ENDBRANCH   1   9
BRANCH   6  12
HETATM   12  O   UNL     1      60.992  10.277   3.549  1.00  0.00    -0.395 OA
HETATM   13  H   UNL     1      60.045  10.160   3.721  1.00  0.00     0.210 HD
ENDBRANCH   6  12
TORSDOF 2
ENDMDL
MODEL 4
REMARK VINA RESULT:      -4.3      2.833      3.813
REMARK  2 active torsions:
REMARK  status: ('A' for Active; 'I' for Inactive)
REMARK    1  A    between atoms: C_1  and  C_5 
REMARK    2  A    between atoms: C_7  and  O_12 
ROOT
HETATM    1  C   UNL     1      63.181   8.955   3.590  1.00  0.00     0.091 C 
HETATM    2  C   UNL     1      63.481   9.011   5.088  1.00  0.00     0.023 C 
HETATM    3  C   UNL     1      62.693   7.816   5.680  1.00  0.00     0.015 C 
HETATM    4  C   UNL     1      62.861   7.457   3.371  1.00  0.00     0.000 C 
HETATM    5  C   UNL     1      61.883   7.226   4.513  1.00  0.00     0.012 C 
HETATM    6  C   UNL     1      63.674   6.743   6.152  1.00  0.00     0.122 C 
HETATM    7  C   UNL     1      64.024   6.437   3.584  1.00  0.00     0.008 C 
HETATM    8  C   UNL     1      64.612   6.313   5.012  1.00  0.00     0.032 C 
ENDROOT
BRANCH   1   9
HETATM    9  C   UNL     1      61.997   9.898   3.321  1.00  0.00     0.177 C 
HETATM   10  O   UNL     1      61.549  10.748   4.063  1.00  0.00    -0.648 OA
HETATM   11  O   UNL     1      61.434   9.735   2.110  1.00  0.00    -0.648 OA
ENDBRANCH   1   9
BRANCH   6  12
HETATM   12  O   UNL     1      64.430   7.203   7.269  1.00  0.00    -0.395 OA
HETATM   13  H   UNL     1      64.076   6.812   8.082  1.00  0.00     0.210 HD
ENDBRANCH   6  12
TORSDOF 2
ENDMDL
MODEL 5
REMARK VINA RESULT:      -4.1      5.359      6.743
REMARK  2 active torsions:
REMARK  status: ('A' for Active; 'I' for Inactive)
REMARK    1  A    between atoms: C_1  and  C_5 
REMARK    2  A    between atoms: C_7  and  O_12 
ROOT
HETATM    1  C   UNL     1      60.859   7.048   2.263  1.00  0.00     0.091 C 
HETATM    2  C   UNL     1      60.592   8.150   3.289  1.00  0.00     0.023 C 
HETATM    3  C   UNL     1      62.000   8.687   3.647  1.00  0.00     0.015 C 
HETATM    4  C   UNL     1      62.207   7.489   1.644  1.00  0.00     0.000 C 
HETATM    5  C   UNL     1      62.998   7.777   2.910  1.00  0.00     0.012 C 
HETATM    6  C   UNL     1      62.164  10.100   3.088  1.00  0.00     0.122 C 
HETATM    7  C   UNL     1      62.216   8.815   0.818  1.00  0.00     0.008 C 
HETATM    8  C   UNL     1      61.899  10.129   1.573  1.00  0.00     0.032 C 
ENDROOT
BRANCH   1   9
HETATM    9  C   UNL     1      60.923   5.714   3.026  1.00  0.00     0.177 C 
HETATM   10  O   UNL     1      61.489   4.697   2.684  1.00  0.00    -0.648 OA
HETATM   11  O   UNL     1      60.276   5.730   4.206  1.00  0.00    -0.648 OA
ENDBRANCH   1   9
BRANCH   6  12
HETATM   12  O   UNL     1      61.300  11.014   3.759  1.00  0.00    -0.395 OA
HETATM   13  H   UNL     1      61.823  11.747   4.121  1.00  0.00     0.210 HD
ENDBRANCH   6  12
TORSDOF 2
ENDMDL
MODEL 6
REMARK VINA RESULT:      -4.1      2.521      5.050
REMARK  2 active torsions:
REMARK  status: ('A' for Active; 'I' for Inactive)
REMARK    1  A    between atoms: C_1  and  C_5 
REMARK    2  A    between atoms: C_7  and  O_12 
ROOT
HETATM    1  C   UNL     1      64.724   8.469   4.600  1.00  0.00     0.091 C 
HETATM    2  C   UNL     1      64.127   7.257   3.884  1.00  0.00     0.023 C 
HETATM    3  C   UNL     1      62.781   7.009   4.610  1.00  0.00     0.015 C 
HETATM    4  C   UNL     1      63.466   9.184   5.147  1.00  0.00     0.000 C 
HETATM    5  C   UNL     1      62.745   8.005   5.782  1.00  0.00     0.012 C 
HETATM    6  C   UNL     1      61.625   7.357   3.673  1.00  0.00     0.122 C 
HETATM    7  C   UNL     1      62.473   9.786   4.103  1.00  0.00     0.008 C 
HETATM    8  C   UNL     1      61.749   8.799   3.154  1.00  0.00     0.032 C 
ENDROOT
BRANCH   1   9
HETATM    9  C   UNL     1      65.671   7.939   5.690  1.00  0.00     0.177 C 
HETATM   10  O   UNL     1      66.016   6.791   5.871  1.00  0.00    -0.648 OA
HETATM   11  O   UNL     1      66.157   8.897   6.502  1.00  0.00    -0.648 OA
ENDBRANCH   1   9
BRANCH   6  12
HETATM   12  O   UNL     1      61.565   6.441   2.581  1.00  0.00    -0.395 OA
HETATM   13  H   UNL     1      62.037   5.628   2.815  1.00  0.00     0.210 HD
ENDBRANCH   6  12
TORSDOF 2
ENDMDL
MODEL 7
REMARK VINA RESULT:      -4.1      3.436      5.848
REMARK  2 active torsions:
REMARK  status: ('A' for Active; 'I' for Inactive)
REMARK    1  A    between atoms: C_1  and  C_5 
REMARK    2  A    between atoms: C_7  and  O_12 
ROOT
HETATM    1  C   UNL     1      62.856   6.895   4.772  1.00  0.00     0.091 C 
HETATM    2  C   UNL     1      61.404   7.302   4.524  1.00  0.00     0.023 C 
HETATM    3  C   UNL     1      61.509   8.624   3.724  1.00  0.00     0.015 C 
HETATM    4  C   UNL     1      63.596   7.568   3.592  1.00  0.00     0.000 C 
HETATM    5  C   UNL     1      63.007   8.968   3.674  1.00  0.00     0.012 C 
HETATM    6  C   UNL     1      61.041   8.388   2.287  1.00  0.00     0.122 C 
HETATM    7  C   UNL     1      63.276   7.048   2.155  1.00  0.00     0.008 C 
HETATM    8  C   UNL     1      61.832   7.245   1.629  1.00  0.00     0.032 C 
ENDROOT
BRANCH   1   9
HETATM    9  C   UNL     1      63.255   7.434   6.156  1.00  0.00     0.177 C 
HETATM   10  O   UNL     1      62.515   7.773   7.056  1.00  0.00    -0.648 OA
HETATM   11  O   UNL     1      64.586   7.508   6.349  1.00  0.00    -0.648 OA
ENDBRANCH   1   9
BRANCH   6  12
HETATM   12  O   UNL     1      59.644   8.109   2.248  1.00  0.00    -0.395 OA
HETATM   13  H   UNL     1      59.310   8.252   1.349  1.00  0.00     0.210 HD
ENDBRANCH   6  12
TORSDOF 2
ENDMDL
MODEL 8
REMARK VINA RESULT:      -4.0      1.412      3.962
REMARK  2 active torsions:
REMARK  status: ('A' for Active; 'I' for Inactive)
REMARK    1  A    between atoms: C_1  and  C_5 
REMARK    2  A    between atoms: C_7  and  O_12 
ROOT
HETATM    1  C   UNL     1      65.833   5.172   6.991  1.00  0.00     0.091 C 
HETATM    2  C   UNL     1      65.393   6.622   7.198  1.00  0.00     0.023 C 
HETATM    3  C   UNL     1      66.584   7.461   6.672  1.00  0.00     0.015 C 
HETATM    4  C   UNL     1      66.836   5.293   5.819  1.00  0.00     0.000 C 
HETATM    5  C   UNL     1      67.688   6.450   6.318  1.00  0.00     0.012 C 
HETATM    6  C   UNL     1      66.176   8.170   5.380  1.00  0.00     0.122 C 
HETATM    7  C   UNL     1      66.269   5.740   4.434  1.00  0.00     0.008 C 
HETATM    8  C   UNL     1      65.667   7.163   4.335  1.00  0.00     0.032 C 
ENDROOT
BRANCH   1   9
HETATM    9  C   UNL     1      66.460   4.689   8.310  1.00  0.00     0.177 C 
HETATM   10  O   UNL     1      67.118   3.685   8.487  1.00  0.00    -0.648 OA
HETATM   11  O   UNL     1      66.238   5.511   9.352  1.00  0.00    -0.648 OA
ENDBRANCH   1   9
BRANCH   6  12
HETATM   12  O   UNL     1      65.184   9.161   5.637  1.00  0.00    -0.395 OA
HETATM   13  H   UNL     1      64.859   9.065   6.545  1.00  0.00     0.210 HD
ENDBRANCH   6  12
TORSDOF 2
ENDMDL
MODEL 9
REMARK VINA RESULT:      -4.0      1.587      2.512
REMARK  2 active torsions:
REMARK  status: ('A' for Active; 'I' for Inactive)
REMARK    1  A    between atoms: C_1  and  C_5 
REMARK    2  A    between atoms: C_7  and  O_12 
ROOT
HETATM    1  C   UNL     1      65.515   6.941   6.994  1.00  0.00     0.091 C 
HETATM    2  C   UNL     1      65.543   5.461   6.610  1.00  0.00     0.023 C 
HETATM    3  C   UNL     1      67.039   5.167   6.334  1.00  0.00     0.015 C 
HETATM    4  C   UNL     1      66.941   7.168   7.550  1.00  0.00     0.000 C 
HETATM    5  C   UNL     1      67.762   6.521   6.445  1.00  0.00     0.012 C 
HETATM    6  C   UNL     1      67.591   4.258   7.433  1.00  0.00     0.122 C 
HETATM    7  C   UNL     1      67.324   6.422   8.867  1.00  0.00     0.008 C 
HETATM    8  C   UNL     1      67.366   4.874   8.825  1.00  0.00     0.032 C 
ENDROOT
BRANCH   1   9
HETATM    9  C   UNL     1      65.201   7.741   5.718  1.00  0.00     0.177 C 
HETATM   10  O   UNL     1      64.759   7.315   4.672  1.00  0.00    -0.648 OA
HETATM   11  O   UNL     1      65.448   9.060   5.827  1.00  0.00    -0.648 OA
ENDBRANCH   1   9
BRANCH   6  12
HETATM   12  O   UNL     1      66.999   2.963   7.364  1.00  0.00    -0.395 OA
HETATM   13  H   UNL     1      67.547   2.386   6.810  1.00  0.00     0.210 HD
ENDBRANCH   6  12
TORSDOF 2
ENDMDL
