MODEL 1
REMARK VINA RESULT:      -5.6      0.000      0.000
REMARK  3 active torsions:
REMARK  status: ('A' for Active; 'I' for Inactive)
REMARK    1  A    between atoms: C_1  and  C_8 
REMARK    2  A    between atoms: C_4  and  C_7 
REMARK    3  A    between atoms: C_8  and  O_9 
ROOT
HETATM    1  C   UNL     1      64.801   7.623   5.344  1.00  0.00     0.026 A 
HETATM    2  N   UNL     1      62.754   7.978   6.283  1.00  0.00    -0.260 N 
ATOM      3  HN  UNL     1      61.792   8.278   6.439  1.00  0.00     0.195 HD
HETATM    4  C   UNL     1      63.499   8.212   5.187  1.00  0.00     0.076 A 
HETATM    5  O   UNL     1      63.538   7.258   7.151  1.00  0.00    -0.242 OA
HETATM    6  C   UNL     1      64.752   7.036   6.592  1.00  0.00     0.083 A 
HETATM    7  C   UNL     1      65.693   6.241   7.403  1.00  0.00     0.079 C 
ENDROOT
BRANCH   4   8
HETATM    8  C   UNL     1      62.937   8.951   4.050  1.00  0.00    -0.007 A 
HETATM    9  C   UNL     1      62.850   8.377   2.773  1.00  0.00     0.014 A 
HETATM   10  C   UNL     1      62.285   9.074   1.706  1.00  0.00     0.001 A 
HETATM   11  C   UNL     1      61.815  10.367   1.891  1.00  0.00     0.000 A 
HETATM   12  C   UNL     1      61.908  10.965   3.148  1.00  0.00     0.001 A 
HETATM   13  C   UNL     1      62.466  10.262   4.220  1.00  0.00     0.014 A 
ENDBRANCH   4   8
BRANCH   1  14
HETATM   14  C   UNL     1      65.950   7.613   4.405  1.00  0.00     0.207 C 
BRANCH  14  15
HETATM   15  O   UNL     1      67.068   8.336   4.904  1.00  0.00    -0.396 OA
HETATM   16  H   UNL     1      67.639   7.738   5.411  1.00  0.00     0.209 HD
ENDBRANCH  14  15
ENDBRANCH   1  14
TORSDOF 3
ENDMDL
MODEL 2
REMARK VINA RESULT:      -5.4      1.434      2.652
REMARK  3 active torsions:
REMARK  status: ('A' for Active; 'I' for Inactive)
REMARK    1  A    between atoms: C_1  and  C_8 
REMARK    2  A    between atoms: C_4  and  C_7 
REMARK    3  A    between atoms: C_8  and  O_9 
ROOT
HETATM    1  C   UNL     1      64.139   6.952   6.261  1.00  0.00     0.026 A 
HETATM    2  N   UNL     1      65.590   8.694   6.026  1.00  0.00    -0.260 N 
ATOM      3  HN  UNL     1      66.012   9.581   5.751  1.00  0.00     0.195 HD
HETATM    4  C   UNL     1      64.376   8.239   5.667  1.00  0.00     0.076 A 
HETATM    5  O   UNL     1      66.152   7.735   6.833  1.00  0.00    -0.242 OA
HETATM    6  C   UNL     1      65.287   6.702   6.984  1.00  0.00     0.083 A 
HETATM    7  C   UNL     1      65.748   5.608   7.857  1.00  0.00     0.079 C 
ENDROOT
BRANCH   4   8
HETATM    8  C   UNL     1      63.502   9.049   4.810  1.00  0.00    -0.007 A 
HETATM    9  C   UNL     1      63.034  10.307   5.219  1.00  0.00     0.014 A 
HETATM   10  C   UNL     1      62.230  11.084   4.386  1.00  0.00     0.001 A 
HETATM   11  C   UNL     1      61.862  10.609   3.135  1.00  0.00     0.000 A 
HETATM   12  C   UNL     1      62.300   9.352   2.713  1.00  0.00     0.001 A 
HETATM   13  C   UNL     1      63.114   8.578   3.545  1.00  0.00     0.014 A 
ENDBRANCH   4   8
BRANCH   1  14
HETATM   14  C   UNL     1      62.948   6.072   6.159  1.00  0.00     0.207 C 
BRANCH  14  15
HETATM   15  O   UNL     1      61.804   6.627   6.794  1.00  0.00    -0.396 OA
HETATM   16  H   UNL     1      61.401   5.961   7.374  1.00  0.00     0.209 HD
ENDBRANCH  14  15
ENDBRANCH   1  14
TORSDOF 3
ENDMDL
MODEL 3
REMARK VINA RESULT:      -5.1      2.130      5.081
REMARK  3 active torsions:
REMARK  status: ('A' for Active; 'I' for Inactive)
REMARK    1  A    between atoms: C_1  and  C_8 
REMARK    2  A    between atoms: C_4  and  C_7 
REMARK    3  A    between atoms: C_8  and  O_9 
ROOT
HETATM    1  C   UNL     1      63.088   9.859   4.605  1.00  0.00     0.026 A 
HETATM    2  N   UNL     1      63.523   8.038   3.304  1.00  0.00    -0.260 N 
ATOM      3  HN  UNL     1      63.872   7.141   2.968  1.00  0.00     0.195 HD
HETATM    4  C   UNL     1      63.760   8.592   4.507  1.00  0.00     0.076 A 
HETATM    5  O   UNL     1      62.719   8.914   2.614  1.00  0.00    -0.242 OA
HETATM    6  C   UNL     1      62.450   9.992   3.389  1.00  0.00     0.083 A 
HETATM    7  C   UNL     1      61.565  11.006   2.786  1.00  0.00     0.079 C 
ENDROOT
BRANCH   4   8
HETATM    8  C   UNL     1      64.581   7.889   5.500  1.00  0.00    -0.007 A 
HETATM    9  C   UNL     1      64.076   6.805   6.235  1.00  0.00     0.014 A 
HETATM   10  C   UNL     1      64.873   6.122   7.153  1.00  0.00     0.001 A 
HETATM   11  C   UNL     1      66.184   6.523   7.369  1.00  0.00     0.000 A 
HETATM   12  C   UNL     1      66.702   7.610   6.663  1.00  0.00     0.001 A 
HETATM   13  C   UNL     1      65.906   8.288   5.736  1.00  0.00     0.014 A 
ENDBRANCH   4   8
BRANCH   1  14
HETATM   14  C   UNL     1      63.051  10.821   5.735  1.00  0.00     0.207 C 
BRANCH  14  15
HETATM   15  O   UNL     1      64.342  11.302   6.083  1.00  0.00    -0.396 OA
HETATM   16  H   UNL     1      64.338  11.601   7.006  1.00  0.00     0.209 HD
ENDBRANCH  14  15
ENDBRANCH   1  14
TORSDOF 3
ENDMDL
MODEL 4
REMARK VINA RESULT:      -5.1      2.526      5.146
REMARK  3 active torsions:
REMARK  status: ('A' for Active; 'I' for Inactive)
REMARK    1  A    between atoms: C_1  and  C_8 
REMARK    2  A    between atoms: C_4  and  C_7 
REMARK    3  A    between atoms: C_8  and  O_9 
ROOT
HETATM    1  C   UNL     1      62.331   9.847   3.091  1.00  0.00     0.026 A 
HETATM    2  N   UNL     1      62.630  10.877   5.102  1.00  0.00    -0.260 N 
ATOM      3  HN  UNL     1      62.863  11.062   6.078  1.00  0.00     0.195 HD
HETATM    4  C   UNL     1      62.756   9.704   4.456  1.00  0.00     0.076 A 
HETATM    5  O   UNL     1      62.129  11.779   4.195  1.00  0.00    -0.242 OA
HETATM    6  C   UNL     1      61.959  11.173   2.995  1.00  0.00     0.083 A 
HETATM    7  C   UNL     1      61.454  12.034   1.911  1.00  0.00     0.079 C 
ENDROOT
BRANCH   4   8
HETATM    8  C   UNL     1      63.291   8.527   5.151  1.00  0.00    -0.007 A 
HETATM    9  C   UNL     1      62.449   7.524   5.652  1.00  0.00     0.014 A 
HETATM   10  C   UNL     1      62.968   6.393   6.282  1.00  0.00     0.001 A 
HETATM   11  C   UNL     1      64.340   6.254   6.440  1.00  0.00     0.000 A 
HETATM   12  C   UNL     1      65.197   7.248   5.966  1.00  0.00     0.001 A 
HETATM   13  C   UNL     1      64.676   8.376   5.326  1.00  0.00     0.014 A 
ENDBRANCH   4   8
BRANCH   1  14
HETATM   14  C   UNL     1      62.297   8.837   2.003  1.00  0.00     0.207 C 
BRANCH  14  15
HETATM   15  O   UNL     1      61.074   8.113   1.971  1.00  0.00    -0.396 OA
HETATM   16  H   UNL     1      60.329   8.732   2.031  1.00  0.00     0.209 HD
ENDBRANCH  14  15
ENDBRANCH   1  14
TORSDOF 3
ENDMDL
MODEL 5
REMARK VINA RESULT:      -4.9      2.361      3.229
REMARK  3 active torsions:
REMARK  status: ('A' for Active; 'I' for Inactive)
REMARK    1  A    between atoms: C_1  and  C_8 
REMARK    2  A    between atoms: C_4  and  C_7 
REMARK    3  A    between atoms: C_8  and  O_9 
ROOT
HETATM    1  C   UNL     1      61.358   6.899   4.941  1.00  0.00     0.026 A 
HETATM    2  N   UNL     1      62.991   8.205   5.847  1.00  0.00    -0.260 N 
ATOM      3  HN  UNL     1      63.660   8.957   6.010  1.00  0.00     0.195 HD
HETATM    4  C   UNL     1      62.141   8.097   4.810  1.00  0.00     0.076 A 
HETATM    5  O   UNL     1      62.786   7.105   6.646  1.00  0.00    -0.242 OA
HETATM    6  C   UNL     1      61.808   6.332   6.115  1.00  0.00     0.083 A 
HETATM    7  C   UNL     1      61.457   5.127   6.888  1.00  0.00     0.079 C 
ENDROOT
BRANCH   4   8
HETATM    8  C   UNL     1      62.096   9.136   3.775  1.00  0.00    -0.007 A 
HETATM    9  C   UNL     1      62.174   8.817   2.411  1.00  0.00     0.014 A 
HETATM   10  C   UNL     1      62.098   9.808   1.432  1.00  0.00     0.001 A 
HETATM   11  C   UNL     1      61.964  11.139   1.801  1.00  0.00     0.000 A 
HETATM   12  C   UNL     1      61.903  11.482   3.152  1.00  0.00     0.001 A 
HETATM   13  C   UNL     1      61.970  10.488   4.132  1.00  0.00     0.014 A 
ENDBRANCH   4   8
BRANCH   1  14
HETATM   14  C   UNL     1      60.295   6.367   4.052  1.00  0.00     0.207 C 
BRANCH  14  15
HETATM   15  O   UNL     1      59.181   7.244   3.949  1.00  0.00    -0.396 OA
HETATM   16  H   UNL     1      58.383   6.731   3.746  1.00  0.00     0.209 HD
ENDBRANCH  14  15
ENDBRANCH   1  14
TORSDOF 3
ENDMDL
MODEL 6
REMARK VINA RESULT:      -4.8      2.433      5.038
REMARK  3 active torsions:
REMARK  status: ('A' for Active; 'I' for Inactive)
REMARK    1  A    between atoms: C_1  and  C_8 
REMARK    2  A    between atoms: C_4  and  C_7 
REMARK    3  A    between atoms: C_8  and  O_9 
ROOT
HETATM    1  C   UNL     1      62.512  10.213   3.887  1.00  0.00     0.026 A 
HETATM    2  N   UNL     1      62.593   8.520   2.364  1.00  0.00    -0.260 N 
ATOM      3  HN  UNL     1      62.725   7.609   1.925  1.00  0.00     0.195 HD
HETATM    4  C   UNL     1      62.821   8.829   3.653  1.00  0.00     0.076 A 
HETATM    5  O   UNL     1      62.149   9.667   1.751  1.00  0.00    -0.242 OA
HETATM    6  C   UNL     1      62.089  10.673   2.657  1.00  0.00     0.083 A 
HETATM    7  C   UNL     1      61.595  11.964   2.144  1.00  0.00     0.079 C 
ENDROOT
BRANCH   4   8
HETATM    8  C   UNL     1      63.290   7.803   4.592  1.00  0.00    -0.007 A 
HETATM    9  C   UNL     1      64.656   7.526   4.755  1.00  0.00     0.014 A 
HETATM   10  C   UNL     1      65.094   6.573   5.673  1.00  0.00     0.001 A 
HETATM   11  C   UNL     1      64.173   5.863   6.431  1.00  0.00     0.000 A 
HETATM   12  C   UNL     1      62.809   6.108   6.273  1.00  0.00     0.001 A 
HETATM   13  C   UNL     1      62.370   7.071   5.359  1.00  0.00     0.014 A 
ENDBRANCH   4   8
BRANCH   1  14
HETATM   14  C   UNL     1      62.598  10.998   5.144  1.00  0.00     0.207 C 
BRANCH  14  15
HETATM   15  O   UNL     1      63.896  10.961   5.722  1.00  0.00    -0.396 OA
HETATM   16  H   UNL     1      64.118  11.838   6.074  1.00  0.00     0.209 HD
ENDBRANCH  14  15
ENDBRANCH   1  14
TORSDOF 3
ENDMDL
MODEL 7
REMARK VINA RESULT:      -4.6      1.967      5.140
REMARK  3 active torsions:
REMARK  status: ('A' for Active; 'I' for Inactive)
REMARK    1  A    between atoms: C_1  and  C_8 
REMARK    2  A    between atoms: C_4  and  C_7 
REMARK    3  A    between atoms: C_8  and  O_9 
ROOT
HETATM    1  C   UNL     1      63.528   8.437   3.976  1.00  0.00     0.026 A 
HETATM    2  N   UNL     1      64.084   9.775   5.736  1.00  0.00    -0.260 N 
ATOM      3  HN  UNL     1      64.539  10.156   6.565  1.00  0.00     0.195 HD
HETATM    4  C   UNL     1      64.391   8.624   5.110  1.00  0.00     0.076 A 
HETATM    5  O   UNL     1      63.040  10.339   5.042  1.00  0.00    -0.242 OA
HETATM    6  C   UNL     1      62.714   9.551   3.989  1.00  0.00     0.083 A 
HETATM    7  C   UNL     1      61.625  10.051   3.132  1.00  0.00     0.079 C 
ENDROOT
BRANCH   4   8
HETATM    8  C   UNL     1      65.491   7.783   5.598  1.00  0.00    -0.007 A 
HETATM    9  C   UNL     1      65.328   6.926   6.696  1.00  0.00     0.014 A 
HETATM   10  C   UNL     1      66.368   6.107   7.133  1.00  0.00     0.001 A 
HETATM   11  C   UNL     1      67.598   6.145   6.491  1.00  0.00     0.000 A 
HETATM   12  C   UNL     1      67.790   7.003   5.408  1.00  0.00     0.001 A 
HETATM   13  C   UNL     1      66.743   7.817   4.965  1.00  0.00     0.014 A 
ENDBRANCH   4   8
BRANCH   1  14
HETATM   14  C   UNL     1      63.496   7.328   2.989  1.00  0.00     0.207 C 
BRANCH  14  15
HETATM   15  O   UNL     1      62.316   6.542   3.092  1.00  0.00    -0.396 OA
HETATM   16  H   UNL     1      61.658   7.014   3.627  1.00  0.00     0.209 HD
ENDBRANCH  14  15
ENDBRANCH   1  14
TORSDOF 3
ENDMDL
MODEL 8
REMARK VINA RESULT:      -4.5      2.445      5.281
REMARK  3 active torsions:
REMARK  status: ('A' for Active; 'I' for Inactive)
REMARK    1  A    between atoms: C_1  and  C_8 
REMARK    2  A    between atoms: C_4  and  C_7 
REMARK    3  A    between atoms: C_8  and  O_9 
ROOT
HETATM    1  C   UNL     1      62.843   8.713   3.159  1.00  0.00     0.026 A 
HETATM    2  N   UNL     1      63.736   6.704   2.558  1.00  0.00    -0.260 N 
ATOM      3  HN  UNL     1      64.263   5.831   2.562  1.00  0.00     0.195 HD
HETATM    4  C   UNL     1      63.707   7.628   3.536  1.00  0.00     0.076 A 
HETATM    5  O   UNL     1      62.919   7.163   1.553  1.00  0.00    -0.242 OA
HETATM    6  C   UNL     1      62.378   8.352   1.912  1.00  0.00     0.083 A 
HETATM    7  C   UNL     1      61.449   8.950   0.936  1.00  0.00     0.079 C 
ENDROOT
BRANCH   4   8
HETATM    8  C   UNL     1      64.469   7.425   4.774  1.00  0.00    -0.007 A 
HETATM    9  C   UNL     1      65.619   8.176   5.059  1.00  0.00     0.014 A 
HETATM   10  C   UNL     1      66.319   7.999   6.252  1.00  0.00     0.001 A 
HETATM   11  C   UNL     1      65.893   7.052   7.174  1.00  0.00     0.000 A 
HETATM   12  C   UNL     1      64.762   6.281   6.903  1.00  0.00     0.001 A 
HETATM   13  C   UNL     1      64.056   6.466   5.711  1.00  0.00     0.014 A 
ENDBRANCH   4   8
BRANCH   1  14
HETATM   14  C   UNL     1      62.495   9.945   3.912  1.00  0.00     0.207 C 
BRANCH  14  15
HETATM   15  O   UNL     1      61.104  10.238   3.863  1.00  0.00    -0.396 OA
HETATM   16  H   UNL     1      60.917  10.783   3.082  1.00  0.00     0.209 HD
ENDBRANCH  14  15
ENDBRANCH   1  14
TORSDOF 3
ENDMDL
MODEL 9
REMARK VINA RESULT:      -4.4      2.077      3.068
REMARK  3 active torsions:
REMARK  status: ('A' for Active; 'I' for Inactive)
REMARK    1  A    between atoms: C_1  and  C_8 
REMARK    2  A    between atoms: C_4  and  C_7 
REMARK    3  A    between atoms: C_8  and  O_9 
ROOT
HETATM    1  C   UNL     1      65.856   5.949   5.900  1.00  0.00     0.026 A 
HETATM    2  N   UNL     1      66.653   6.489   3.834  1.00  0.00    -0.260 N 
ATOM      3  HN  UNL     1      66.759   6.900   2.907  1.00  0.00     0.195 HD
HETATM    4  C   UNL     1      65.644   6.705   4.696  1.00  0.00     0.076 A 
HETATM    5  O   UNL     1      67.514   5.607   4.442  1.00  0.00    -0.242 OA
HETATM    6  C   UNL     1      67.049   5.293   5.675  1.00  0.00     0.083 A 
HETATM    7  C   UNL     1      67.893   4.375   6.460  1.00  0.00     0.079 C 
ENDROOT
BRANCH   4   8
HETATM    8  C   UNL     1      64.555   7.627   4.351  1.00  0.00    -0.007 A 
HETATM    9  C   UNL     1      63.692   7.373   3.274  1.00  0.00     0.014 A 
HETATM   10  C   UNL     1      62.641   8.238   2.973  1.00  0.00     0.001 A 
HETATM   11  C   UNL     1      62.445   9.385   3.730  1.00  0.00     0.000 A 
HETATM   12  C   UNL     1      63.302   9.668   4.794  1.00  0.00     0.001 A 
HETATM   13  C   UNL     1      64.350   8.796   5.102  1.00  0.00     0.014 A 
ENDBRANCH   4   8
BRANCH   1  14
HETATM   14  C   UNL     1      65.022   5.875   7.126  1.00  0.00     0.207 C 
BRANCH  14  15
HETATM   15  O   UNL     1      65.345   6.890   8.067  1.00  0.00    -0.396 OA
HETATM   16  H   UNL     1      66.192   6.679   8.491  1.00  0.00     0.209 HD
ENDBRANCH  14  15
ENDBRANCH   1  14
TORSDOF 3
ENDMDL
