MODEL 1
REMARK VINA RESULT:      -4.4      0.000      0.000
REMARK  2 active torsions:
REMARK  status: ('A' for Active; 'I' for Inactive)
REMARK    1  A    between atoms: C_1  and  C_7 
REMARK    2  A    between atoms: C_7  and  O_8 
ROOT
HETATM    1  C   UNL     1      62.416   9.660   3.581  1.00  0.00     0.021 A 
HETATM    2  N   UNL     1      61.586  11.332   2.269  1.00  0.00    -0.265 N 
ATOM      3  HN  UNL     1      61.197  11.847   1.478  1.00  0.00     0.194 HD
HETATM    4  O   UNL     1      61.901  11.835   3.516  1.00  0.00    -0.242 OA
HETATM    5  C   UNL     1      62.396  10.839   4.295  1.00  0.00     0.083 A 
HETATM    6  C   UNL     1      61.897  10.031   2.311  1.00  0.00     0.039 A 
HETATM    7  C   UNL     1      62.788  11.213   5.667  1.00  0.00     0.079 C 
HETATM    8  C   UNL     1      61.680   9.177   1.118  1.00  0.00     0.071 C 
ENDROOT
BRANCH   1   9
HETATM    9  C   UNL     1      62.879   8.328   4.032  1.00  0.00     0.207 C 
BRANCH   9  10
HETATM   10  O   UNL     1      64.274   8.320   4.304  1.00  0.00    -0.396 OA
HETATM   11  H   UNL     1      64.417   8.387   5.261  1.00  0.00     0.209 HD
ENDBRANCH   9  10
ENDBRANCH   1   9
TORSDOF 2
ENDMDL
MODEL 2
REMARK VINA RESULT:      -4.0      1.874      2.829
REMARK  2 active torsions:
REMARK  status: ('A' for Active; 'I' for Inactive)
REMARK    1  A    between atoms: C_1  and  C_7 
REMARK    2  A    between atoms: C_7  and  O_8 
ROOT
HETATM    1  C   UNL     1      62.871  10.064   4.700  1.00  0.00     0.021 A 
HETATM    2  N   UNL     1      62.412   9.113   2.677  1.00  0.00    -0.265 N 
ATOM      3  HN  UNL     1      62.102   8.974   1.715  1.00  0.00     0.194 HD
HETATM    4  O   UNL     1      62.991   8.176   3.509  1.00  0.00    -0.242 OA
HETATM    5  C   UNL     1      63.262   8.743   4.713  1.00  0.00     0.083 A 
HETATM    6  C   UNL     1      62.340  10.242   3.394  1.00  0.00     0.039 A 
HETATM    7  C   UNL     1      63.884   7.869   5.725  1.00  0.00     0.079 C 
HETATM    8  C   UNL     1      61.760  11.467   2.792  1.00  0.00     0.071 C 
ENDROOT
BRANCH   1   9
HETATM    9  C   UNL     1      62.972  11.057   5.794  1.00  0.00     0.207 C 
BRANCH   9  10
HETATM   10  O   UNL     1      64.325  11.301   6.159  1.00  0.00    -0.396 OA
HETATM   11  H   UNL     1      64.878  10.562   5.861  1.00  0.00     0.209 HD
ENDBRANCH   9  10
ENDBRANCH   1   9
TORSDOF 2
ENDMDL
MODEL 3
REMARK VINA RESULT:      -4.0      2.054      3.107
REMARK  2 active torsions:
REMARK  status: ('A' for Active; 'I' for Inactive)
REMARK    1  A    between atoms: C_1  and  C_7 
REMARK    2  A    between atoms: C_7  and  O_8 
ROOT
HETATM    1  C   UNL     1      62.476  10.159   4.517  1.00  0.00     0.021 A 
HETATM    2  N   UNL     1      62.187   8.161   3.453  1.00  0.00    -0.265 N 
ATOM      3  HN  UNL     1      62.147   7.161   3.255  1.00  0.00     0.194 HD
HETATM    4  O   UNL     1      61.892   9.194   2.587  1.00  0.00    -0.242 OA
HETATM    5  C   UNL     1      62.065  10.382   3.221  1.00  0.00     0.083 A 
HETATM    6  C   UNL     1      62.538   8.741   4.607  1.00  0.00     0.039 A 
HETATM    7  C   UNL     1      61.793  11.596   2.427  1.00  0.00     0.079 C 
HETATM    8  C   UNL     1      62.923   7.907   5.771  1.00  0.00     0.071 C 
ENDROOT
BRANCH   1   9
HETATM    9  C   UNL     1      62.787  11.161   5.562  1.00  0.00     0.207 C 
BRANCH   9  10
HETATM   10  O   UNL     1      64.150  11.100   5.961  1.00  0.00    -0.396 OA
HETATM   11  H   UNL     1      64.719  11.179   5.180  1.00  0.00     0.209 HD
ENDBRANCH   9  10
ENDBRANCH   1   9
TORSDOF 2
ENDMDL
MODEL 4
REMARK VINA RESULT:      -3.9      2.022      2.920
REMARK  2 active torsions:
REMARK  status: ('A' for Active; 'I' for Inactive)
REMARK    1  A    between atoms: C_1  and  C_7 
REMARK    2  A    between atoms: C_7  and  O_8 
ROOT
HETATM    1  C   UNL     1      62.270   9.836   3.254  1.00  0.00     0.021 A 
HETATM    2  N   UNL     1      62.563  10.956   5.220  1.00  0.00    -0.265 N 
ATOM      3  HN  UNL     1      62.769  11.172   6.196  1.00  0.00     0.194 HD
HETATM    4  O   UNL     1      62.159  11.840   4.239  1.00  0.00    -0.242 OA
HETATM    5  C   UNL     1      61.984  11.172   3.070  1.00  0.00     0.083 A 
HETATM    6  C   UNL     1      62.627   9.758   4.627  1.00  0.00     0.039 A 
HETATM    7  C   UNL     1      61.546  11.976   1.914  1.00  0.00     0.079 C 
HETATM    8  C   UNL     1      63.036   8.564   5.407  1.00  0.00     0.071 C 
ENDROOT
BRANCH   1   9
HETATM    9  C   UNL     1      62.210   8.745   2.256  1.00  0.00     0.207 C 
BRANCH   9  10
HETATM   10  O   UNL     1      60.884   8.525   1.795  1.00  0.00    -0.396 OA
HETATM   11  H   UNL     1      60.729   7.573   1.697  1.00  0.00     0.209 HD
ENDBRANCH   9  10
ENDBRANCH   1   9
TORSDOF 2
ENDMDL
MODEL 5
REMARK VINA RESULT:      -3.8      2.174      2.738
REMARK  2 active torsions:
REMARK  status: ('A' for Active; 'I' for Inactive)
REMARK    1  A    between atoms: C_1  and  C_7 
REMARK    2  A    between atoms: C_7  and  O_8 
ROOT
HETATM    1  C   UNL     1      62.173   9.345   3.926  1.00  0.00     0.021 A 
HETATM    2  N   UNL     1      62.711  11.275   5.019  1.00  0.00    -0.265 N 
ATOM      3  HN  UNL     1      62.844  12.261   5.245  1.00  0.00     0.194 HD
HETATM    4  O   UNL     1      63.013  10.190   5.818  1.00  0.00    -0.242 OA
HETATM    5  C   UNL     1      62.693   9.043   5.166  1.00  0.00     0.083 A 
HETATM    6  C   UNL     1      62.210  10.766   3.887  1.00  0.00     0.039 A 
HETATM    7  C   UNL     1      62.959   7.783   5.886  1.00  0.00     0.079 C 
HETATM    8  C   UNL     1      61.777  11.670   2.794  1.00  0.00     0.071 C 
ENDROOT
BRANCH   1   9
HETATM    9  C   UNL     1      61.698   8.409   2.883  1.00  0.00     0.207 C 
BRANCH   9  10
HETATM   10  O   UNL     1      60.282   8.431   2.762  1.00  0.00    -0.396 OA
HETATM   11  H   UNL     1      60.022   8.004   1.930  1.00  0.00     0.209 HD
ENDBRANCH   9  10
ENDBRANCH   1   9
TORSDOF 2
ENDMDL
MODEL 6
REMARK VINA RESULT:      -3.8      2.205      3.134
REMARK  2 active torsions:
REMARK  status: ('A' for Active; 'I' for Inactive)
REMARK    1  A    between atoms: C_1  and  C_7 
REMARK    2  A    between atoms: C_7  and  O_8 
ROOT
HETATM    1  C   UNL     1      62.847   9.154   4.191  1.00  0.00     0.021 A 
HETATM    2  N   UNL     1      64.877   8.378   4.887  1.00  0.00    -0.265 N 
ATOM      3  HN  UNL     1      65.718   7.809   4.992  1.00  0.00     0.194 HD
HETATM    4  O   UNL     1      64.571   9.544   5.559  1.00  0.00    -0.242 OA
HETATM    5  C   UNL     1      63.363  10.004   5.145  1.00  0.00     0.083 A 
HETATM    6  C   UNL     1      63.842   8.146   4.071  1.00  0.00     0.039 A 
HETATM    7  C   UNL     1      62.884  11.250   5.774  1.00  0.00     0.079 C 
HETATM    8  C   UNL     1      63.844   6.953   3.189  1.00  0.00     0.071 C 
ENDROOT
BRANCH   1   9
HETATM    9  C   UNL     1      61.557   9.264   3.473  1.00  0.00     0.207 C 
BRANCH   9  10
HETATM   10  O   UNL     1      61.471  10.472   2.729  1.00  0.00    -0.396 OA
HETATM   11  H   UNL     1      62.364  10.786   2.517  1.00  0.00     0.209 HD
ENDBRANCH   9  10
ENDBRANCH   1   9
TORSDOF 2
ENDMDL
MODEL 7
REMARK VINA RESULT:      -3.7      1.167      2.856
REMARK  2 active torsions:
REMARK  status: ('A' for Active; 'I' for Inactive)
REMARK    1  A    between atoms: C_1  and  C_7 
REMARK    2  A    between atoms: C_7  and  O_8 
ROOT
HETATM    1  C   UNL     1      62.520   9.353   3.164  1.00  0.00     0.021 A 
HETATM    2  N   UNL     1      61.738  11.478   2.884  1.00  0.00    -0.265 N 
ATOM      3  HN  UNL     1      61.473  12.448   3.056  1.00  0.00     0.194 HD
HETATM    4  O   UNL     1      61.611  10.778   1.701  1.00  0.00    -0.242 OA
HETATM    5  C   UNL     1      62.075   9.513   1.870  1.00  0.00     0.083 A 
HETATM    6  C   UNL     1      62.282  10.622   3.757  1.00  0.00     0.039 A 
HETATM    7  C   UNL     1      62.006   8.626   0.693  1.00  0.00     0.079 C 
HETATM    8  C   UNL     1      62.559  11.056   5.148  1.00  0.00     0.071 C 
ENDROOT
BRANCH   1   9
HETATM    9  C   UNL     1      63.100   8.141   3.786  1.00  0.00     0.207 C 
BRANCH   9  10
HETATM   10  O   UNL     1      62.185   7.519   4.680  1.00  0.00    -0.396 OA
HETATM   11  H   UNL     1      62.650   6.845   5.200  1.00  0.00     0.209 HD
ENDBRANCH   9  10
ENDBRANCH   1   9
TORSDOF 2
ENDMDL
MODEL 8
REMARK VINA RESULT:      -3.6      4.814      6.214
REMARK  2 active torsions:
REMARK  status: ('A' for Active; 'I' for Inactive)
REMARK    1  A    between atoms: C_1  and  C_7 
REMARK    2  A    between atoms: C_7  and  O_8 
ROOT
HETATM    1  C   UNL     1      65.572   6.787   6.659  1.00  0.00     0.021 A 
HETATM    2  N   UNL     1      66.943   8.485   7.326  1.00  0.00    -0.265 N 
ATOM      3  HN  UNL     1      67.646   9.029   7.828  1.00  0.00     0.194 HD
HETATM    4  O   UNL     1      66.166   8.906   6.265  1.00  0.00    -0.242 OA
HETATM    5  C   UNL     1      65.350   7.896   5.870  1.00  0.00     0.083 A 
HETATM    6  C   UNL     1      66.584   7.217   7.559  1.00  0.00     0.039 A 
HETATM    7  C   UNL     1      64.445   8.185   4.742  1.00  0.00     0.079 C 
HETATM    8  C   UNL     1      67.234   6.451   8.650  1.00  0.00     0.071 C 
ENDROOT
BRANCH   1   9
HETATM    9  C   UNL     1      64.906   5.468   6.586  1.00  0.00     0.207 C 
BRANCH   9  10
HETATM   10  O   UNL     1      65.712   4.507   5.918  1.00  0.00    -0.396 OA
HETATM   11  H   UNL     1      66.458   4.258   6.486  1.00  0.00     0.209 HD
ENDBRANCH   9  10
ENDBRANCH   1   9
TORSDOF 2
ENDMDL
MODEL 9
REMARK VINA RESULT:      -3.4     12.407     13.346
REMARK  2 active torsions:
REMARK  status: ('A' for Active; 'I' for Inactive)
REMARK    1  A    between atoms: C_1  and  C_7 
REMARK    2  A    between atoms: C_7  and  O_8 
ROOT
HETATM    1  C   UNL     1      57.348   2.398  12.120  1.00  0.00     0.021 A 
HETATM    2  N   UNL     1      57.287   1.746  14.306  1.00  0.00    -0.265 N 
ATOM      3  HN  UNL     1      57.563   1.417  15.231  1.00  0.00     0.194 HD
HETATM    4  O   UNL     1      56.017   2.094  13.890  1.00  0.00    -0.242 OA
HETATM    5  C   UNL     1      56.055   2.481  12.589  1.00  0.00     0.083 A 
HETATM    6  C   UNL     1      58.080   1.928  13.243  1.00  0.00     0.039 A 
HETATM    7  C   UNL     1      54.770   2.883  11.987  1.00  0.00     0.079 C 
HETATM    8  C   UNL     1      59.532   1.643  13.343  1.00  0.00     0.071 C 
ENDROOT
BRANCH   1   9
HETATM    9  C   UNL     1      57.848   2.717  10.763  1.00  0.00     0.207 C 
BRANCH   9  10
HETATM   10  O   UNL     1      58.367   4.038  10.691  1.00  0.00    -0.396 OA
HETATM   11  H   UNL     1      58.433   4.309   9.762  1.00  0.00     0.209 HD
ENDBRANCH   9  10
ENDBRANCH   1   9
TORSDOF 2
ENDMDL
