MODEL 1
REMARK VINA RESULT:      -5.3      0.000      0.000
REMARK  1 active torsions:
REMARK  status: ('A' for Active; 'I' for Inactive)
REMARK    1  A    between atoms: C_1  and  C_2 
ROOT
HETATM    1  C   UNL     1      63.285   8.614   5.009  1.00  0.00     0.041 A 
HETATM    2  C   UNL     1      62.832   8.607   3.682  1.00  0.00     0.028 A 
HETATM    3  C   UNL     1      62.336   9.788   3.158  1.00  0.00    -0.022 A 
HETATM    4  C   UNL     1      62.279  10.939   3.929  1.00  0.00     0.075 A 
HETATM    5  O   UNL     1      61.761  12.019   3.264  1.00  0.00    -0.350 OA
HETATM    6  C   UNL     1      63.235   9.793   5.782  1.00  0.00     0.021 A 
HETATM    7  C   UNL     1      62.711  10.970   5.239  1.00  0.00     0.038 A 
HETATM    8  C   UNL     1      61.765  11.598   1.879  1.00  0.00     0.180 C 
HETATM    9  C   UNL     1      61.759  10.069   1.824  1.00  0.00     0.068 C 
ENDROOT
BRANCH   1  10
HETATM   10  C   UNL     1      63.863   7.360   5.555  1.00  0.00     0.209 C 
HETATM   11  O   UNL     1      64.377   6.509   4.855  1.00  0.00    -0.644 OA
HETATM   12  O   UNL     1      63.725   7.244   6.892  1.00  0.00    -0.644 OA
ENDBRANCH   1  10
TORSDOF 1
ENDMDL
MODEL 2
REMARK VINA RESULT:      -5.2      1.963      3.716
REMARK  1 active torsions:
REMARK  status: ('A' for Active; 'I' for Inactive)
REMARK    1  A    between atoms: C_1  and  C_2 
ROOT
HETATM    1  C   UNL     1      62.763   9.926   4.167  1.00  0.00     0.041 A 
HETATM    2  C   UNL     1      62.120   9.987   2.922  1.00  0.00     0.028 A 
HETATM    3  C   UNL     1      62.225   8.893   2.081  1.00  0.00    -0.022 A 
HETATM    4  C   UNL     1      62.954   7.775   2.458  1.00  0.00     0.075 A 
HETATM    5  O   UNL     1      62.960   6.782   1.515  1.00  0.00    -0.350 OA
HETATM    6  C   UNL     1      63.492   8.779   4.547  1.00  0.00     0.021 A 
HETATM    7  C   UNL     1      63.601   7.693   3.674  1.00  0.00     0.038 A 
HETATM    8  C   UNL     1      61.913   7.179   0.598  1.00  0.00     0.180 C 
HETATM    9  C   UNL     1      61.696   8.689   0.714  1.00  0.00     0.068 C 
ENDROOT
BRANCH   1  10
HETATM   10  C   UNL     1      62.610  11.080   5.088  1.00  0.00     0.209 C 
HETATM   11  O   UNL     1      63.062  11.091   6.216  1.00  0.00    -0.644 OA
HETATM   12  O   UNL     1      61.889  12.093   4.563  1.00  0.00    -0.644 OA
ENDBRANCH   1  10
TORSDOF 1
ENDMDL
MODEL 3
REMARK VINA RESULT:      -5.1      2.239      4.131
REMARK  1 active torsions:
REMARK  status: ('A' for Active; 'I' for Inactive)
REMARK    1  A    between atoms: C_1  and  C_2 
ROOT
HETATM    1  C   UNL     1      62.388   9.940   3.555  1.00  0.00     0.041 A 
HETATM    2  C   UNL     1      62.921   8.669   3.812  1.00  0.00     0.028 A 
HETATM    3  C   UNL     1      62.941   7.751   2.777  1.00  0.00    -0.022 A 
HETATM    4  C   UNL     1      62.438   8.078   1.527  1.00  0.00     0.075 A 
HETATM    5  O   UNL     1      62.530   7.060   0.615  1.00  0.00    -0.350 OA
HETATM    6  C   UNL     1      61.890  10.269   2.277  1.00  0.00     0.021 A 
HETATM    7  C   UNL     1      61.902   9.320   1.251  1.00  0.00     0.038 A 
HETATM    8  C   UNL     1      63.428   6.119   1.250  1.00  0.00     0.180 C 
HETATM    9  C   UNL     1      63.397   6.343   2.763  1.00  0.00     0.068 C 
ENDROOT
BRANCH   1  10
HETATM   10  C   UNL     1      62.411  10.941   4.652  1.00  0.00     0.209 C 
HETATM   11  O   UNL     1      61.926  12.051   4.546  1.00  0.00    -0.644 OA
HETATM   12  O   UNL     1      63.054  10.509   5.757  1.00  0.00    -0.644 OA
ENDBRANCH   1  10
TORSDOF 1
ENDMDL
MODEL 4
REMARK VINA RESULT:      -5.0      2.168      3.200
REMARK  1 active torsions:
REMARK  status: ('A' for Active; 'I' for Inactive)
REMARK    1  A    between atoms: C_1  and  C_2 
ROOT
HETATM    1  C   UNL     1      62.835  10.024   4.212  1.00  0.00     0.041 A 
HETATM    2  C   UNL     1      63.128   8.741   3.728  1.00  0.00     0.028 A 
HETATM    3  C   UNL     1      62.652   8.394   2.476  1.00  0.00    -0.022 A 
HETATM    4  C   UNL     1      61.899   9.287   1.730  1.00  0.00     0.075 A 
HETATM    5  O   UNL     1      61.504   8.790   0.516  1.00  0.00    -0.350 OA
HETATM    6  C   UNL     1      62.078  10.931   3.440  1.00  0.00     0.021 A 
HETATM    7  C   UNL     1      61.591  10.552   2.187  1.00  0.00     0.038 A 
HETATM    8  C   UNL     1      62.316   7.603   0.356  1.00  0.00     0.180 C 
HETATM    9  C   UNL     1      62.767   7.118   1.735  1.00  0.00     0.068 C 
ENDROOT
BRANCH   1  10
HETATM   10  C   UNL     1      63.388  10.414   5.534  1.00  0.00     0.209 C 
HETATM   11  O   UNL     1      62.853  11.229   6.261  1.00  0.00    -0.644 OA
HETATM   12  O   UNL     1      64.555   9.804   5.828  1.00  0.00    -0.644 OA
ENDBRANCH   1  10
TORSDOF 1
ENDMDL
MODEL 5
REMARK VINA RESULT:      -4.9      1.883      4.510
REMARK  1 active torsions:
REMARK  status: ('A' for Active; 'I' for Inactive)
REMARK    1  A    between atoms: C_1  and  C_2 
ROOT
HETATM    1  C   UNL     1      63.117   9.662   4.630  1.00  0.00     0.041 A 
HETATM    2  C   UNL     1      64.211   8.919   5.096  1.00  0.00     0.028 A 
HETATM    3  C   UNL     1      64.527   7.744   4.437  1.00  0.00    -0.022 A 
HETATM    4  C   UNL     1      63.776   7.312   3.355  1.00  0.00     0.075 A 
HETATM    5  O   UNL     1      64.218   6.132   2.817  1.00  0.00    -0.350 OA
HETATM    6  C   UNL     1      62.366   9.221   3.520  1.00  0.00     0.021 A 
HETATM    7  C   UNL     1      62.691   8.021   2.882  1.00  0.00     0.038 A 
HETATM    8  C   UNL     1      65.524   5.956   3.415  1.00  0.00     0.180 C 
HETATM    9  C   UNL     1      65.584   6.748   4.723  1.00  0.00     0.068 C 
ENDROOT
BRANCH   1  10
HETATM   10  C   UNL     1      62.809  10.947   5.306  1.00  0.00     0.209 C 
HETATM   11  O   UNL     1      63.206  11.219   6.423  1.00  0.00    -0.644 OA
HETATM   12  O   UNL     1      62.015  11.760   4.577  1.00  0.00    -0.644 OA
ENDBRANCH   1  10
TORSDOF 1
ENDMDL
MODEL 6
REMARK VINA RESULT:      -4.8      1.631      2.033
REMARK  1 active torsions:
REMARK  status: ('A' for Active; 'I' for Inactive)
REMARK    1  A    between atoms: C_1  and  C_2 
ROOT
HETATM    1  C   UNL     1      63.737   8.633   4.829  1.00  0.00     0.041 A 
HETATM    2  C   UNL     1      63.655   7.824   3.687  1.00  0.00     0.028 A 
HETATM    3  C   UNL     1      62.846   8.247   2.647  1.00  0.00    -0.022 A 
HETATM    4  C   UNL     1      62.131   9.431   2.740  1.00  0.00     0.075 A 
HETATM    5  O   UNL     1      61.378   9.706   1.628  1.00  0.00    -0.350 OA
HETATM    6  C   UNL     1      63.015   9.843   4.910  1.00  0.00     0.021 A 
HETATM    7  C   UNL     1      62.189  10.241   3.856  1.00  0.00     0.038 A 
HETATM    8  C   UNL     1      61.885   8.778   0.639  1.00  0.00     0.180 C 
HETATM    9  C   UNL     1      62.537   7.594   1.355  1.00  0.00     0.068 C 
ENDROOT
BRANCH   1  10
HETATM   10  C   UNL     1      64.643   8.204   5.924  1.00  0.00     0.209 C 
HETATM   11  O   UNL     1      64.372   7.299   6.690  1.00  0.00    -0.644 OA
HETATM   12  O   UNL     1      65.772   8.940   6.007  1.00  0.00    -0.644 OA
ENDBRANCH   1  10
TORSDOF 1
ENDMDL
MODEL 7
REMARK VINA RESULT:      -4.6      1.507      4.336
REMARK  1 active torsions:
REMARK  status: ('A' for Active; 'I' for Inactive)
REMARK    1  A    between atoms: C_1  and  C_2 
ROOT
HETATM    1  C   UNL     1      62.446   9.996   3.599  1.00  0.00     0.041 A 
HETATM    2  C   UNL     1      62.377   9.046   2.570  1.00  0.00     0.028 A 
HETATM    3  C   UNL     1      62.755   7.746   2.858  1.00  0.00    -0.022 A 
HETATM    4  C   UNL     1      63.200   7.400   4.125  1.00  0.00     0.075 A 
HETATM    5  O   UNL     1      63.537   6.078   4.246  1.00  0.00    -0.350 OA
HETATM    6  C   UNL     1      62.888   9.632   4.888  1.00  0.00     0.021 A 
HETATM    7  C   UNL     1      63.285   8.318   5.152  1.00  0.00     0.038 A 
HETATM    8  C   UNL     1      62.984   5.478   3.050  1.00  0.00     0.180 C 
HETATM    9  C   UNL     1      62.824   6.558   1.978  1.00  0.00     0.068 C 
ENDROOT
BRANCH   1  10
HETATM   10  C   UNL     1      61.994  11.379   3.302  1.00  0.00     0.209 C 
HETATM   11  O   UNL     1      61.842  11.797   2.171  1.00  0.00    -0.644 OA
HETATM   12  O   UNL     1      61.809  12.131   4.408  1.00  0.00    -0.644 OA
ENDBRANCH   1  10
TORSDOF 1
ENDMDL
MODEL 8
REMARK VINA RESULT:      -4.4      2.251      4.240
REMARK  1 active torsions:
REMARK  status: ('A' for Active; 'I' for Inactive)
REMARK    1  A    between atoms: C_1  and  C_2 
ROOT
HETATM    1  C   UNL     1      62.418   8.371   3.186  1.00  0.00     0.041 A 
HETATM    2  C   UNL     1      63.550   7.554   3.314  1.00  0.00     0.028 A 
HETATM    3  C   UNL     1      64.479   7.878   4.287  1.00  0.00    -0.022 A 
HETATM    4  C   UNL     1      64.298   8.984   5.103  1.00  0.00     0.075 A 
HETATM    5  O   UNL     1      65.307   9.167   6.011  1.00  0.00    -0.350 OA
HETATM    6  C   UNL     1      62.236   9.488   4.029  1.00  0.00     0.021 A 
HETATM    7  C   UNL     1      63.197   9.808   4.992  1.00  0.00     0.038 A 
HETATM    8  C   UNL     1      66.032   7.914   5.967  1.00  0.00     0.180 C 
HETATM    9  C   UNL     1      65.769   7.234   4.623  1.00  0.00     0.068 C 
ENDROOT
BRANCH   1  10
HETATM   10  C   UNL     1      61.398   7.996   2.175  1.00  0.00     0.209 C 
HETATM   11  O   UNL     1      60.874   8.804   1.432  1.00  0.00    -0.644 OA
HETATM   12  O   UNL     1      61.085   6.683   2.191  1.00  0.00    -0.644 OA
ENDBRANCH   1  10
TORSDOF 1
ENDMDL
MODEL 9
REMARK VINA RESULT:      -4.3      2.083      2.880
REMARK  1 active torsions:
REMARK  status: ('A' for Active; 'I' for Inactive)
REMARK    1  A    between atoms: C_1  and  C_2 
ROOT
HETATM    1  C   UNL     1      63.576   7.639   4.711  1.00  0.00     0.041 A 
HETATM    2  C   UNL     1      62.917   8.756   4.176  1.00  0.00     0.028 A 
HETATM    3  C   UNL     1      62.574   8.729   2.836  1.00  0.00    -0.022 A 
HETATM    4  C   UNL     1      62.882   7.632   2.045  1.00  0.00     0.075 A 
HETATM    5  O   UNL     1      62.476   7.763   0.744  1.00  0.00    -0.350 OA
HETATM    6  C   UNL     1      63.875   6.523   3.901  1.00  0.00     0.021 A 
HETATM    7  C   UNL     1      63.536   6.525   2.546  1.00  0.00     0.038 A 
HETATM    8  C   UNL     1      61.581   8.900   0.782  1.00  0.00     0.180 C 
HETATM    9  C   UNL     1      61.920   9.761   2.000  1.00  0.00     0.068 C 
ENDROOT
BRANCH   1  10
HETATM   10  C   UNL     1      63.901   7.649   6.159  1.00  0.00     0.209 C 
HETATM   11  O   UNL     1      65.036   7.546   6.583  1.00  0.00    -0.644 OA
HETATM   12  O   UNL     1      62.813   7.744   6.952  1.00  0.00    -0.644 OA
ENDBRANCH   1  10
TORSDOF 1
ENDMDL
