MODEL 1
REMARK VINA RESULT:      -5.2      0.000      0.000
REMARK  2 active torsions:
REMARK  status: ('A' for Active; 'I' for Inactive)
REMARK    1  A    between atoms: C_1  and  C_6 
REMARK    2  A    between atoms: C_2  and  C_3 
ROOT
HETATM    1  C   UNL     1      62.891   9.313   3.953  1.00  0.00     0.082 A 
HETATM    2  C   UNL     1      62.682   8.956   2.627  1.00  0.00     0.176 A 
HETATM    3  O   UNL     1      63.240   7.723   2.392  1.00  0.00    -0.310 OA
HETATM    4  C   UNL     1      63.616   8.229   4.537  1.00  0.00     0.053 A 
HETATM    5  C   UNL     1      63.802   7.292   3.550  1.00  0.00     0.051 A 
HETATM    6  C   UNL     1      64.465   5.973   3.510  1.00  0.00     0.076 C 
ENDROOT
BRANCH   2   7
HETATM    7  C   UNL     1      62.020   9.584   1.452  1.00  0.00     0.440 C 
HETATM    8  F   UNL     1      62.168  10.927   1.374  1.00  0.00    -0.164 F 
HETATM    9  F   UNL     1      62.503   9.081   0.283  1.00  0.00    -0.164 F 
HETATM   10  F   UNL     1      60.680   9.348   1.449  1.00  0.00    -0.164 F 
ENDBRANCH   2   7
BRANCH   1  11
HETATM   11  C   UNL     1      62.465  10.530   4.605  1.00  0.00     0.212 C 
HETATM   12  O   UNL     1      61.668  11.346   4.173  1.00  0.00    -0.644 OA
HETATM   13  O   UNL     1      63.041  10.731   5.812  1.00  0.00    -0.644 OA
ENDBRANCH   1  11
TORSDOF 2
ENDMDL
MODEL 2
REMARK VINA RESULT:      -5.1      2.692      3.518
REMARK  2 active torsions:
REMARK  status: ('A' for Active; 'I' for Inactive)
REMARK    1  A    between atoms: C_1  and  C_6 
REMARK    2  A    between atoms: C_2  and  C_3 
ROOT
HETATM    1  C   UNL     1      62.560   9.930   3.741  1.00  0.00     0.082 A 
HETATM    2  C   UNL     1      63.271   8.737   3.759  1.00  0.00     0.176 A 
HETATM    3  O   UNL     1      63.052   8.056   2.586  1.00  0.00    -0.310 OA
HETATM    4  C   UNL     1      61.878   9.956   2.486  1.00  0.00     0.053 A 
HETATM    5  C   UNL     1      62.209   8.799   1.824  1.00  0.00     0.051 A 
HETATM    6  C   UNL     1      61.840   8.236   0.510  1.00  0.00     0.076 C 
ENDROOT
BRANCH   2   7
HETATM    7  C   UNL     1      64.178   8.057   4.723  1.00  0.00     0.440 C 
HETATM    8  F   UNL     1      65.225   8.809   5.136  1.00  0.00    -0.164 F 
HETATM    9  F   UNL     1      63.513   7.681   5.850  1.00  0.00    -0.164 F 
HETATM   10  F   UNL     1      64.710   6.923   4.193  1.00  0.00    -0.164 F 
ENDBRANCH   2   7
BRANCH   1  11
HETATM   11  C   UNL     1      62.517  10.934   4.778  1.00  0.00     0.212 C 
HETATM   12  O   UNL     1      62.901  10.808   5.929  1.00  0.00    -0.644 OA
HETATM   13  O   UNL     1      61.988  12.111   4.375  1.00  0.00    -0.644 OA
ENDBRANCH   1  11
TORSDOF 2
ENDMDL
MODEL 3
REMARK VINA RESULT:      -4.8      1.898      2.489
REMARK  2 active torsions:
REMARK  status: ('A' for Active; 'I' for Inactive)
REMARK    1  A    between atoms: C_1  and  C_6 
REMARK    2  A    between atoms: C_2  and  C_3 
ROOT
HETATM    1  C   UNL     1      63.832   8.028   4.127  1.00  0.00     0.082 A 
HETATM    2  C   UNL     1      62.916   8.724   3.348  1.00  0.00     0.176 A 
HETATM    3  O   UNL     1      62.686   8.031   2.184  1.00  0.00    -0.310 OA
HETATM    4  C   UNL     1      64.164   6.856   3.380  1.00  0.00     0.053 A 
HETATM    5  C   UNL     1      63.444   6.905   2.212  1.00  0.00     0.051 A 
HETATM    6  C   UNL     1      63.343   6.013   1.039  1.00  0.00     0.076 C 
ENDROOT
BRANCH   2   7
HETATM    7  C   UNL     1      62.162  10.000   3.482  1.00  0.00     0.440 C 
HETATM    8  F   UNL     1      62.682  10.867   4.381  1.00  0.00    -0.164 F 
HETATM    9  F   UNL     1      62.104  10.669   2.299  1.00  0.00    -0.164 F 
HETATM   10  F   UNL     1      60.875   9.781   3.865  1.00  0.00    -0.164 F 
ENDBRANCH   2   7
BRANCH   1  11
HETATM   11  C   UNL     1      64.343   8.413   5.422  1.00  0.00     0.212 C 
HETATM   12  O   UNL     1      65.146   9.301   5.653  1.00  0.00    -0.644 OA
HETATM   13  O   UNL     1      63.847   7.677   6.442  1.00  0.00    -0.644 OA
ENDBRANCH   1  11
TORSDOF 2
ENDMDL
MODEL 4
REMARK VINA RESULT:      -4.7      3.959      5.530
REMARK  2 active torsions:
REMARK  status: ('A' for Active; 'I' for Inactive)
REMARK    1  A    between atoms: C_1  and  C_6 
REMARK    2  A    between atoms: C_2  and  C_3 
ROOT
HETATM    1  C   UNL     1      64.343   7.743   4.446  1.00  0.00     0.082 A 
HETATM    2  C   UNL     1      65.198   8.348   5.358  1.00  0.00     0.176 A 
HETATM    3  O   UNL     1      64.680   9.563   5.735  1.00  0.00    -0.310 OA
HETATM    4  C   UNL     1      63.256   8.654   4.271  1.00  0.00     0.053 A 
HETATM    5  C   UNL     1      63.508   9.740   5.074  1.00  0.00     0.051 A 
HETATM    6  C   UNL     1      62.785  11.000   5.340  1.00  0.00     0.076 C 
ENDROOT
BRANCH   2   7
HETATM    7  C   UNL     1      66.497   7.992   5.990  1.00  0.00     0.440 C 
HETATM    8  F   UNL     1      66.518   6.777   6.586  1.00  0.00    -0.164 F 
HETATM    9  F   UNL     1      67.508   7.986   5.079  1.00  0.00    -0.164 F 
HETATM   10  F   UNL     1      66.848   8.892   6.949  1.00  0.00    -0.164 F 
ENDBRANCH   2   7
BRANCH   1  11
HETATM   11  C   UNL     1      64.518   6.461   3.805  1.00  0.00     0.212 C 
HETATM   12  O   UNL     1      64.917   5.434   4.329  1.00  0.00    -0.644 OA
HETATM   13  O   UNL     1      64.193   6.460   2.492  1.00  0.00    -0.644 OA
ENDBRANCH   1  11
TORSDOF 2
ENDMDL
MODEL 5
REMARK VINA RESULT:      -4.6      2.689      4.561
REMARK  2 active torsions:
REMARK  status: ('A' for Active; 'I' for Inactive)
REMARK    1  A    between atoms: C_1  and  C_6 
REMARK    2  A    between atoms: C_2  and  C_3 
ROOT
HETATM    1  C   UNL     1      62.493   8.918   2.651  1.00  0.00     0.082 A 
HETATM    2  C   UNL     1      62.670   9.687   3.794  1.00  0.00     0.176 A 
HETATM    3  O   UNL     1      62.288  10.981   3.538  1.00  0.00    -0.310 OA
HETATM    4  C   UNL     1      61.977   9.809   1.660  1.00  0.00     0.053 A 
HETATM    5  C   UNL     1      61.871  11.046   2.247  1.00  0.00     0.051 A 
HETATM    6  C   UNL     1      61.416  12.366   1.767  1.00  0.00     0.076 C 
ENDROOT
BRANCH   2   7
HETATM    7  C   UNL     1      63.164   9.437   5.175  1.00  0.00     0.440 C 
HETATM    8  F   UNL     1      64.501   9.249   5.268  1.00  0.00    -0.164 F 
HETATM    9  F   UNL     1      62.869  10.474   6.004  1.00  0.00    -0.164 F 
HETATM   10  F   UNL     1      62.586   8.331   5.719  1.00  0.00    -0.164 F 
ENDBRANCH   2   7
BRANCH   1  11
HETATM   11  C   UNL     1      62.775   7.510   2.497  1.00  0.00     0.212 C 
HETATM   12  O   UNL     1      63.833   6.950   2.729  1.00  0.00    -0.644 OA
HETATM   13  O   UNL     1      61.723   6.791   2.044  1.00  0.00    -0.644 OA
ENDBRANCH   1  11
TORSDOF 2
ENDMDL
MODEL 6
REMARK VINA RESULT:      -4.5      2.667      3.807
REMARK  2 active torsions:
REMARK  status: ('A' for Active; 'I' for Inactive)
REMARK    1  A    between atoms: C_1  and  C_6 
REMARK    2  A    between atoms: C_2  and  C_3 
ROOT
HETATM    1  C   UNL     1      62.554   8.799   4.801  1.00  0.00     0.082 A 
HETATM    2  C   UNL     1      61.665   8.227   3.900  1.00  0.00     0.176 A 
HETATM    3  O   UNL     1      61.331   9.150   2.939  1.00  0.00    -0.310 OA
HETATM    4  C   UNL     1      62.757  10.139   4.348  1.00  0.00     0.053 A 
HETATM    5  C   UNL     1      61.994  10.301   3.218  1.00  0.00     0.051 A 
HETATM    6  C   UNL     1      61.767  11.432   2.296  1.00  0.00     0.076 C 
ENDROOT
BRANCH   2   7
HETATM    7  C   UNL     1      61.017   6.896   3.749  1.00  0.00     0.440 C 
HETATM    8  F   UNL     1      61.868   5.846   3.821  1.00  0.00    -0.164 F 
HETATM    9  F   UNL     1      60.077   6.689   4.710  1.00  0.00    -0.164 F 
HETATM   10  F   UNL     1      60.377   6.785   2.553  1.00  0.00    -0.164 F 
ENDBRANCH   2   7
BRANCH   1  11
HETATM   11  C   UNL     1      63.148   8.169   5.957  1.00  0.00     0.212 C 
HETATM   12  O   UNL     1      62.556   7.642   6.884  1.00  0.00    -0.644 OA
HETATM   13  O   UNL     1      64.500   8.197   5.957  1.00  0.00    -0.644 OA
ENDBRANCH   1  11
TORSDOF 2
ENDMDL
MODEL 7
REMARK VINA RESULT:      -4.5      1.987      2.625
REMARK  2 active torsions:
REMARK  status: ('A' for Active; 'I' for Inactive)
REMARK    1  A    between atoms: C_1  and  C_6 
REMARK    2  A    between atoms: C_2  and  C_3 
ROOT
HETATM    1  C   UNL     1      62.413   9.557   4.109  1.00  0.00     0.082 A 
HETATM    2  C   UNL     1      61.783   8.328   3.956  1.00  0.00     0.176 A 
HETATM    3  O   UNL     1      62.453   7.377   4.686  1.00  0.00    -0.310 OA
HETATM    4  C   UNL     1      63.521   9.319   4.979  1.00  0.00     0.053 A 
HETATM    5  C   UNL     1      63.501   7.984   5.300  1.00  0.00     0.051 A 
HETATM    6  C   UNL     1      64.360   7.126   6.140  1.00  0.00     0.076 C 
ENDROOT
BRANCH   2   7
HETATM    7  C   UNL     1      60.598   7.830   3.207  1.00  0.00     0.440 C 
HETATM    8  F   UNL     1      60.510   6.481   3.127  1.00  0.00    -0.164 F 
HETATM    9  F   UNL     1      59.437   8.252   3.777  1.00  0.00    -0.164 F 
HETATM   10  F   UNL     1      60.588   8.288   1.926  1.00  0.00    -0.164 F 
ENDBRANCH   2   7
BRANCH   1  11
HETATM   11  C   UNL     1      62.027  10.813   3.509  1.00  0.00     0.212 C 
HETATM   12  O   UNL     1      61.848  11.029   2.323  1.00  0.00    -0.644 OA
HETATM   13  O   UNL     1      61.865  11.815   4.403  1.00  0.00    -0.644 OA
ENDBRANCH   1  11
TORSDOF 2
ENDMDL
MODEL 8
REMARK VINA RESULT:      -4.4      1.891      3.285
REMARK  2 active torsions:
REMARK  status: ('A' for Active; 'I' for Inactive)
REMARK    1  A    between atoms: C_1  and  C_6 
REMARK    2  A    between atoms: C_2  and  C_3 
ROOT
HETATM    1  C   UNL     1      63.311   7.852   3.318  1.00  0.00     0.082 A 
HETATM    2  C   UNL     1      63.120   9.066   3.965  1.00  0.00     0.176 A 
HETATM    3  O   UNL     1      64.082   9.225   4.932  1.00  0.00    -0.310 OA
HETATM    4  C   UNL     1      64.452   7.257   3.939  1.00  0.00     0.053 A 
HETATM    5  C   UNL     1      64.881   8.128   4.910  1.00  0.00     0.051 A 
HETATM    6  C   UNL     1      65.989   8.101   5.886  1.00  0.00     0.076 C 
ENDROOT
BRANCH   2   7
HETATM    7  C   UNL     1      62.145  10.185   3.854  1.00  0.00     0.440 C 
HETATM    8  F   UNL     1      62.270  11.135   4.809  1.00  0.00    -0.164 F 
HETATM    9  F   UNL     1      62.262  10.829   2.660  1.00  0.00    -0.164 F 
HETATM   10  F   UNL     1      60.862   9.738   3.927  1.00  0.00    -0.164 F 
ENDBRANCH   2   7
BRANCH   1  11
HETATM   11  C   UNL     1      62.519   7.304   2.242  1.00  0.00     0.212 C 
HETATM   12  O   UNL     1      61.842   6.290   2.279  1.00  0.00    -0.644 OA
HETATM   13  O   UNL     1      62.572   8.031   1.102  1.00  0.00    -0.644 OA
ENDBRANCH   1  11
TORSDOF 2
ENDMDL
MODEL 9
REMARK VINA RESULT:      -4.3      2.926      3.709
REMARK  2 active torsions:
REMARK  status: ('A' for Active; 'I' for Inactive)
REMARK    1  A    between atoms: C_1  and  C_6 
REMARK    2  A    between atoms: C_2  and  C_3 
ROOT
HETATM    1  C   UNL     1      65.037   7.643   4.671  1.00  0.00     0.082 A 
HETATM    2  C   UNL     1      63.868   8.349   4.414  1.00  0.00     0.176 A 
HETATM    3  O   UNL     1      63.244   7.814   3.314  1.00  0.00    -0.310 OA
HETATM    4  C   UNL     1      65.110   6.634   3.662  1.00  0.00     0.053 A 
HETATM    5  C   UNL     1      64.001   6.780   2.866  1.00  0.00     0.051 A 
HETATM    6  C   UNL     1      63.501   6.065   1.675  1.00  0.00     0.076 C 
ENDROOT
BRANCH   2   7
HETATM    7  C   UNL     1      63.170   9.507   5.035  1.00  0.00     0.440 C 
HETATM    8  F   UNL     1      63.991  10.499   5.453  1.00  0.00    -0.164 F 
HETATM    9  F   UNL     1      62.292  10.081   4.168  1.00  0.00    -0.164 F 
HETATM   10  F   UNL     1      62.447   9.128   6.123  1.00  0.00    -0.164 F 
ENDBRANCH   2   7
BRANCH   1  11
HETATM   11  C   UNL     1      65.983   7.884   5.735  1.00  0.00     0.212 C 
HETATM   12  O   UNL     1      67.113   8.329   5.618  1.00  0.00    -0.644 OA
HETATM   13  O   UNL     1      65.514   7.563   6.963  1.00  0.00    -0.644 OA
ENDBRANCH   1  11
TORSDOF 2
ENDMDL
