MODEL 1
REMARK VINA RESULT:      -4.4      0.000      0.000
REMARK  3 active torsions:
REMARK  status: ('A' for Active; 'I' for Inactive)
REMARK       I    between atoms: C_1  and  N_2 
REMARK    1  A    between atoms: C_1  and  O_6 
REMARK    2  A    between atoms: N_2  and  C_3 
REMARK    3  A    between atoms: O_6  and  C_10 
ROOT
HETATM    1  C   UNL     1      61.887  10.152   3.897  1.00  0.00     0.365 C 
HETATM    2  N   UNL     1      62.920   9.906   4.763  1.00  0.00    -0.302 N 
HETATM    3  O   UNL     1      61.598  11.318   3.651  1.00  0.00    -0.238 OA
HETATM    4  H   UNL     1      63.362  10.720   5.094  1.00  0.00     0.171 HD
ENDROOT
BRANCH   1   5
HETATM    5  O   UNL     1      61.244   9.070   3.382  1.00  0.00    -0.294 OA
BRANCH   5   6
HETATM    6  C   UNL     1      61.625   8.591   2.058  1.00  0.00     0.061 C 
HETATM    7  C   UNL     1      62.576   7.385   2.139  1.00  0.00     0.046 C 
HETATM    8  C   UNL     1      60.317   8.142   1.382  1.00  0.00     0.046 C 
HETATM    9  C   UNL     1      62.233   9.720   1.213  1.00  0.00     0.046 C 
ENDBRANCH   5   6
ENDBRANCH   1   5
BRANCH   2  10
HETATM   10  C   UNL     1      63.462   8.735   5.262  1.00  0.00     0.043 A 
HETATM   11  C   UNL     1      62.850   7.688   6.010  1.00  0.00     0.037 A 
HETATM   12  C   UNL     1      63.751   6.710   6.385  1.00  0.00     0.052 A 
HETATM   13  S   UNL     1      65.324   7.023   5.801  1.00  0.00    -0.111 SA
HETATM   14  C   UNL     1      64.801   8.463   5.046  1.00  0.00     0.079 A 
ENDBRANCH   2  10
TORSDOF 3
ENDMDL
MODEL 2
REMARK VINA RESULT:      -4.3      4.127      5.328
REMARK  3 active torsions:
REMARK  status: ('A' for Active; 'I' for Inactive)
REMARK       I    between atoms: C_1  and  N_2 
REMARK    1  A    between atoms: C_1  and  O_6 
REMARK    2  A    between atoms: N_2  and  C_3 
REMARK    3  A    between atoms: O_6  and  C_10 
ROOT
HETATM    1  C   UNL     1      66.207   7.944   6.809  1.00  0.00     0.365 C 
HETATM    2  N   UNL     1      67.369   7.249   7.010  1.00  0.00    -0.302 N 
HETATM    3  O   UNL     1      66.278   9.147   6.579  1.00  0.00    -0.238 OA
HETATM    4  H   UNL     1      68.180   7.799   6.921  1.00  0.00     0.171 HD
ENDROOT
BRANCH   1   5
HETATM    5  O   UNL     1      65.045   7.241   6.895  1.00  0.00    -0.294 OA
BRANCH   5   6
HETATM    6  C   UNL     1      64.274   7.008   5.679  1.00  0.00     0.061 C 
HETATM    7  C   UNL     1      65.181   6.867   4.445  1.00  0.00     0.046 C 
HETATM    8  C   UNL     1      63.534   5.676   5.900  1.00  0.00     0.046 C 
HETATM    9  C   UNL     1      63.222   8.107   5.470  1.00  0.00     0.046 C 
ENDBRANCH   5   6
ENDBRANCH   1   5
BRANCH   2  10
HETATM   10  C   UNL     1      67.625   5.924   7.314  1.00  0.00     0.043 A 
HETATM   11  C   UNL     1      67.695   4.785   6.461  1.00  0.00     0.037 A 
HETATM   12  C   UNL     1      67.910   3.613   7.161  1.00  0.00     0.052 A 
HETATM   13  S   UNL     1      68.075   3.884   8.839  1.00  0.00    -0.111 SA
HETATM   14  C   UNL     1      67.862   5.566   8.629  1.00  0.00     0.079 A 
ENDBRANCH   2  10
TORSDOF 3
ENDMDL
MODEL 3
REMARK VINA RESULT:      -4.3      2.403      4.400
REMARK  3 active torsions:
REMARK  status: ('A' for Active; 'I' for Inactive)
REMARK       I    between atoms: C_1  and  N_2 
REMARK    1  A    between atoms: C_1  and  O_6 
REMARK    2  A    between atoms: N_2  and  C_3 
REMARK    3  A    between atoms: O_6  and  C_10 
ROOT
HETATM    1  C   UNL     1      63.156   9.931   5.052  1.00  0.00     0.365 C 
HETATM    2  N   UNL     1      62.025   9.961   4.279  1.00  0.00    -0.302 N 
HETATM    3  O   UNL     1      63.201  10.647   6.047  1.00  0.00    -0.238 OA
HETATM    4  H   UNL     1      61.324  10.558   4.626  1.00  0.00     0.171 HD
ENDROOT
BRANCH   1   5
HETATM    5  O   UNL     1      64.160   9.109   4.644  1.00  0.00    -0.294 OA
BRANCH   5   6
HETATM    6  C   UNL     1      64.268   7.783   5.241  1.00  0.00     0.061 C 
HETATM    7  C   UNL     1      63.047   7.447   6.112  1.00  0.00     0.046 C 
HETATM    8  C   UNL     1      64.317   6.795   4.061  1.00  0.00     0.046 C 
HETATM    9  C   UNL     1      65.573   7.637   6.037  1.00  0.00     0.046 C 
ENDBRANCH   5   6
ENDBRANCH   1   5
BRANCH   2  10
HETATM   10  C   UNL     1      61.678   9.317   3.106  1.00  0.00     0.043 A 
HETATM   11  C   UNL     1      62.019   9.623   1.757  1.00  0.00     0.037 A 
HETATM   12  C   UNL     1      61.416   8.770   0.853  1.00  0.00     0.052 A 
HETATM   13  S   UNL     1      60.476   7.571   1.624  1.00  0.00    -0.111 SA
HETATM   14  C   UNL     1      60.877   8.191   3.164  1.00  0.00     0.079 A 
ENDBRANCH   2  10
TORSDOF 3
ENDMDL
MODEL 4
REMARK VINA RESULT:      -4.2      3.405      5.174
REMARK  3 active torsions:
REMARK  status: ('A' for Active; 'I' for Inactive)
REMARK       I    between atoms: C_1  and  N_2 
REMARK    1  A    between atoms: C_1  and  O_6 
REMARK    2  A    between atoms: N_2  and  C_3 
REMARK    3  A    between atoms: O_6  and  C_10 
ROOT
HETATM    1  C   UNL     1      64.735   6.839   6.654  1.00  0.00     0.365 C 
HETATM    2  N   UNL     1      63.703   7.675   6.322  1.00  0.00    -0.302 N 
HETATM    3  O   UNL     1      65.140   6.843   7.812  1.00  0.00    -0.238 OA
HETATM    4  H   UNL     1      63.357   8.198   7.080  1.00  0.00     0.171 HD
ENDROOT
BRANCH   1   5
HETATM    5  O   UNL     1      65.249   6.067   5.658  1.00  0.00    -0.294 OA
BRANCH   5   6
HETATM    6  C   UNL     1      66.604   6.336   5.190  1.00  0.00     0.061 C 
HETATM    7  C   UNL     1      67.649   5.520   5.969  1.00  0.00     0.046 C 
HETATM    8  C   UNL     1      66.634   5.894   3.715  1.00  0.00     0.046 C 
HETATM    9  C   UNL     1      66.922   7.837   5.243  1.00  0.00     0.046 C 
ENDBRANCH   5   6
ENDBRANCH   1   5
BRANCH   2  10
HETATM   10  C   UNL     1      63.052   7.927   5.128  1.00  0.00     0.043 A 
HETATM   11  C   UNL     1      63.424   8.771   4.041  1.00  0.00     0.037 A 
HETATM   12  C   UNL     1      62.466   8.805   3.047  1.00  0.00     0.052 A 
HETATM   13  S   UNL     1      61.139   7.789   3.393  1.00  0.00    -0.111 SA
HETATM   14  C   UNL     1      61.845   7.302   4.870  1.00  0.00     0.079 A 
ENDBRANCH   2  10
TORSDOF 3
ENDMDL
MODEL 5
REMARK VINA RESULT:      -4.1      2.943      3.871
REMARK  3 active torsions:
REMARK  status: ('A' for Active; 'I' for Inactive)
REMARK       I    between atoms: C_1  and  N_2 
REMARK    1  A    between atoms: C_1  and  O_6 
REMARK    2  A    between atoms: N_2  and  C_3 
REMARK    3  A    between atoms: O_6  and  C_10 
ROOT
HETATM    1  C   UNL     1      65.099   8.658   5.521  1.00  0.00     0.365 C 
HETATM    2  N   UNL     1      65.749   7.998   6.530  1.00  0.00    -0.302 N 
HETATM    3  O   UNL     1      64.684   9.792   5.738  1.00  0.00    -0.238 OA
HETATM    4  H   UNL     1      65.844   8.528   7.353  1.00  0.00     0.171 HD
ENDROOT
BRANCH   1   5
HETATM    5  O   UNL     1      64.950   7.992   4.344  1.00  0.00    -0.294 OA
BRANCH   5   6
HETATM    6  C   UNL     1      63.612   7.581   3.935  1.00  0.00     0.061 C 
HETATM    7  C   UNL     1      62.851   8.723   3.242  1.00  0.00     0.046 C 
HETATM    8  C   UNL     1      63.816   6.439   2.923  1.00  0.00     0.046 C 
HETATM    9  C   UNL     1      62.814   7.025   5.124  1.00  0.00     0.046 C 
ENDBRANCH   5   6
ENDBRANCH   1   5
BRANCH   2  10
HETATM   10  C   UNL     1      66.295   6.731   6.618  1.00  0.00     0.043 A 
HETATM   11  C   UNL     1      67.511   6.217   6.081  1.00  0.00     0.037 A 
HETATM   12  C   UNL     1      67.672   4.869   6.334  1.00  0.00     0.052 A 
HETATM   13  S   UNL     1      66.388   4.225   7.255  1.00  0.00    -0.111 SA
HETATM   14  C   UNL     1      65.617   5.749   7.318  1.00  0.00     0.079 A 
ENDBRANCH   2  10
TORSDOF 3
ENDMDL
MODEL 6
REMARK VINA RESULT:      -4.1      2.681      3.654
REMARK  3 active torsions:
REMARK  status: ('A' for Active; 'I' for Inactive)
REMARK       I    between atoms: C_1  and  N_2 
REMARK    1  A    between atoms: C_1  and  O_6 
REMARK    2  A    between atoms: N_2  and  C_3 
REMARK    3  A    between atoms: O_6  and  C_10 
ROOT
HETATM    1  C   UNL     1      63.245   7.198   6.344  1.00  0.00     0.365 C 
HETATM    2  N   UNL     1      64.517   7.119   6.847  1.00  0.00    -0.302 N 
HETATM    3  O   UNL     1      62.381   7.739   7.027  1.00  0.00    -0.238 OA
HETATM    4  H   UNL     1      64.622   7.542   7.729  1.00  0.00     0.171 HD
ENDROOT
BRANCH   1   5
HETATM    5  O   UNL     1      63.032   6.652   5.117  1.00  0.00    -0.294 OA
BRANCH   5   6
HETATM    6  C   UNL     1      62.804   7.541   3.983  1.00  0.00     0.061 C 
HETATM    7  C   UNL     1      63.426   8.928   4.211  1.00  0.00     0.046 C 
HETATM    8  C   UNL     1      63.505   6.878   2.783  1.00  0.00     0.046 C 
HETATM    9  C   UNL     1      61.307   7.652   3.657  1.00  0.00     0.046 C 
ENDBRANCH   5   6
ENDBRANCH   1   5
BRANCH   2  10
HETATM   10  C   UNL     1      65.682   6.558   6.356  1.00  0.00     0.043 A 
HETATM   11  C   UNL     1      66.527   6.985   5.291  1.00  0.00     0.037 A 
HETATM   12  C   UNL     1      67.571   6.110   5.061  1.00  0.00     0.052 A 
HETATM   13  S   UNL     1      67.567   4.799   6.154  1.00  0.00    -0.111 SA
HETATM   14  C   UNL     1      66.172   5.401   6.934  1.00  0.00     0.079 A 
ENDBRANCH   2  10
TORSDOF 3
ENDMDL
MODEL 7
REMARK VINA RESULT:      -4.0      2.561      3.304
REMARK  3 active torsions:
REMARK  status: ('A' for Active; 'I' for Inactive)
REMARK       I    between atoms: C_1  and  N_2 
REMARK    1  A    between atoms: C_1  and  O_6 
REMARK    2  A    between atoms: N_2  and  C_3 
REMARK    3  A    between atoms: O_6  and  C_10 
ROOT
HETATM    1  C   UNL     1      63.034   7.072   6.239  1.00  0.00     0.365 C 
HETATM    2  N   UNL     1      64.291   7.159   6.776  1.00  0.00    -0.302 N 
HETATM    3  O   UNL     1      62.071   7.263   6.975  1.00  0.00    -0.238 OA
HETATM    4  H   UNL     1      64.299   7.399   7.730  1.00  0.00     0.171 HD
ENDROOT
BRANCH   1   5
HETATM    5  O   UNL     1      62.949   6.764   4.917  1.00  0.00    -0.294 OA
BRANCH   5   6
HETATM    6  C   UNL     1      62.565   7.811   3.975  1.00  0.00     0.061 C 
HETATM    7  C   UNL     1      63.153   7.563   2.576  1.00  0.00     0.046 C 
HETATM    8  C   UNL     1      61.030   7.749   3.883  1.00  0.00     0.046 C 
HETATM    9  C   UNL     1      62.954   9.200   4.502  1.00  0.00     0.046 C 
ENDBRANCH   5   6
ENDBRANCH   1   5
BRANCH   2  10
HETATM   10  C   UNL     1      65.552   6.972   6.238  1.00  0.00     0.043 A 
HETATM   11  C   UNL     1      66.293   5.772   6.033  1.00  0.00     0.037 A 
HETATM   12  C   UNL     1      67.556   6.011   5.526  1.00  0.00     0.052 A 
HETATM   13  S   UNL     1      67.838   7.672   5.251  1.00  0.00    -0.111 SA
HETATM   14  C   UNL     1      66.273   8.071   5.807  1.00  0.00     0.079 A 
ENDBRANCH   2  10
TORSDOF 3
ENDMDL
MODEL 8
REMARK VINA RESULT:      -4.0      3.208      5.286
REMARK  3 active torsions:
REMARK  status: ('A' for Active; 'I' for Inactive)
REMARK       I    between atoms: C_1  and  N_2 
REMARK    1  A    between atoms: C_1  and  O_6 
REMARK    2  A    between atoms: N_2  and  C_3 
REMARK    3  A    between atoms: O_6  and  C_10 
ROOT
HETATM    1  C   UNL     1      65.555   8.227   6.223  1.00  0.00     0.365 C 
HETATM    2  N   UNL     1      65.032   8.652   5.030  1.00  0.00    -0.302 N 
HETATM    3  O   UNL     1      66.556   8.791   6.655  1.00  0.00    -0.238 OA
HETATM    4  H   UNL     1      65.514   9.414   4.635  1.00  0.00     0.171 HD
ENDROOT
BRANCH   1   5
HETATM    5  O   UNL     1      64.925   7.191   6.838  1.00  0.00    -0.294 OA
BRANCH   5   6
HETATM    6  C   UNL     1      65.608   5.905   6.923  1.00  0.00     0.061 C 
HETATM    7  C   UNL     1      66.260   5.694   8.299  1.00  0.00     0.046 C 
HETATM    8  C   UNL     1      64.516   4.836   6.726  1.00  0.00     0.046 C 
HETATM    9  C   UNL     1      66.636   5.746   5.793  1.00  0.00     0.046 C 
ENDBRANCH   5   6
ENDBRANCH   1   5
BRANCH   2  10
HETATM   10  C   UNL     1      63.959   8.218   4.273  1.00  0.00     0.043 A 
HETATM   11  C   UNL     1      63.856   7.117   3.375  1.00  0.00     0.037 A 
HETATM   12  C   UNL     1      62.623   7.054   2.755  1.00  0.00     0.052 A 
HETATM   13  S   UNL     1      61.571   8.290   3.282  1.00  0.00    -0.111 SA
HETATM   14  C   UNL     1      62.761   8.907   4.341  1.00  0.00     0.079 A 
ENDBRANCH   2  10
TORSDOF 3
ENDMDL
MODEL 9
REMARK VINA RESULT:      -3.9      1.725      2.339
REMARK  3 active torsions:
REMARK  status: ('A' for Active; 'I' for Inactive)
REMARK       I    between atoms: C_1  and  N_2 
REMARK    1  A    between atoms: C_1  and  O_6 
REMARK    2  A    between atoms: N_2  and  C_3 
REMARK    3  A    between atoms: O_6  and  C_10 
ROOT
HETATM    1  C   UNL     1      63.231   9.136   5.202  1.00  0.00     0.365 C 
HETATM    2  N   UNL     1      63.334   8.262   6.252  1.00  0.00    -0.302 N 
HETATM    3  O   UNL     1      62.935  10.302   5.441  1.00  0.00    -0.238 OA
HETATM    4  H   UNL     1      63.179   8.677   7.130  1.00  0.00     0.171 HD
ENDROOT
BRANCH   1   5
HETATM    5  O   UNL     1      63.455   8.634   3.958  1.00  0.00    -0.294 OA
BRANCH   5   6
HETATM    6  C   UNL     1      62.330   8.510   3.038  1.00  0.00     0.061 C 
HETATM    7  C   UNL     1      62.091   9.809   2.250  1.00  0.00     0.046 C 
HETATM    8  C   UNL     1      62.719   7.398   2.047  1.00  0.00     0.046 C 
HETATM    9  C   UNL     1      61.057   8.067   3.774  1.00  0.00     0.046 C 
ENDBRANCH   5   6
ENDBRANCH   1   5
BRANCH   2  10
HETATM   10  C   UNL     1      63.612   6.908   6.317  1.00  0.00     0.043 A 
HETATM   11  C   UNL     1      62.756   5.786   6.119  1.00  0.00     0.037 A 
HETATM   12  C   UNL     1      63.401   4.585   6.339  1.00  0.00     0.052 A 
HETATM   13  S   UNL     1      65.047   4.798   6.739  1.00  0.00    -0.111 SA
HETATM   14  C   UNL     1      64.898   6.495   6.615  1.00  0.00     0.079 A 
ENDBRANCH   2  10
TORSDOF 3
ENDMDL
