MODEL 1
REMARK VINA RESULT:      -4.3      0.000      0.000
REMARK  3 active torsions:
REMARK  status: ('A' for Active; 'I' for Inactive)
REMARK       I    between atoms: N_1  and  C_2 
REMARK    1  A    between atoms: N_1  and  C_3 
REMARK    2  A    between atoms: C_2  and  O_5 
REMARK    3  A    between atoms: O_5  and  C_10 
ROOT
HETATM    1  N   UNL     1      62.076  10.243   4.288  1.00  0.00    -0.297 N 
HETATM    2  C   UNL     1      63.132  10.096   5.137  1.00  0.00     0.366 C 
HETATM    3  O   UNL     1      63.105  10.655   6.229  1.00  0.00    -0.238 OA
HETATM    4  H   UNL     1      61.399  10.896   4.579  1.00  0.00     0.171 HD
ENDROOT
BRANCH   1   5
HETATM    5  C   UNL     1      61.805   9.626   3.096  1.00  0.00     0.078 A 
HETATM    6  S   UNL     1      60.880   8.210   3.300  1.00  0.00    -0.084 SA
HETATM    7  C   UNL     1      60.858   7.910   1.617  1.00  0.00     0.052 A 
HETATM    8  C   UNL     1      61.597   8.844   0.924  1.00  0.00     0.010 A 
HETATM    9  C   UNL     1      62.133   9.859   1.784  1.00  0.00     0.038 A 
ENDBRANCH   1   5
BRANCH   2  10
HETATM   10  O   UNL     1      64.188   9.400   4.653  1.00  0.00    -0.294 OA
BRANCH  10  11
HETATM   11  C   UNL     1      64.440   8.055   5.165  1.00  0.00     0.061 C 
HETATM   12  C   UNL     1      63.283   7.562   6.050  1.00  0.00     0.046 C 
HETATM   13  C   UNL     1      64.543   7.158   3.921  1.00  0.00     0.046 C 
HETATM   14  C   UNL     1      65.779   7.980   5.917  1.00  0.00     0.046 C 
ENDBRANCH  10  11
ENDBRANCH   2  10
TORSDOF 3
ENDMDL
MODEL 2
REMARK VINA RESULT:      -4.3      4.173      6.506
REMARK  3 active torsions:
REMARK  status: ('A' for Active; 'I' for Inactive)
REMARK       I    between atoms: N_1  and  C_2 
REMARK    1  A    between atoms: N_1  and  C_3 
REMARK    2  A    between atoms: C_2  and  O_5 
REMARK    3  A    between atoms: O_5  and  C_10 
ROOT
HETATM    1  N   UNL     1      67.302   7.347   6.845  1.00  0.00    -0.297 N 
HETATM    2  C   UNL     1      66.118   7.969   6.586  1.00  0.00     0.366 C 
HETATM    3  O   UNL     1      66.125   9.137   6.206  1.00  0.00    -0.238 OA
HETATM    4  H   UNL     1      68.093   7.932   6.813  1.00  0.00     0.171 HD
ENDROOT
BRANCH   1   5
HETATM    5  C   UNL     1      67.567   6.036   7.142  1.00  0.00     0.078 A 
HETATM    6  S   UNL     1      67.815   5.791   8.809  1.00  0.00    -0.084 SA
HETATM    7  C   UNL     1      68.075   4.116   8.585  1.00  0.00     0.052 A 
HETATM    8  C   UNL     1      68.032   3.769   7.253  1.00  0.00     0.010 A 
HETATM    9  C   UNL     1      67.715   4.884   6.409  1.00  0.00     0.038 A 
ENDBRANCH   1   5
BRANCH   2  10
HETATM   10  O   UNL     1      65.001   7.256   6.864  1.00  0.00    -0.294 OA
BRANCH  10  11
HETATM   11  C   UNL     1      64.118   6.872   5.765  1.00  0.00     0.061 C 
HETATM   12  C   UNL     1      64.904   6.644   4.463  1.00  0.00     0.046 C 
HETATM   13  C   UNL     1      63.472   5.548   6.204  1.00  0.00     0.046 C 
HETATM   14  C   UNL     1      62.996   7.901   5.556  1.00  0.00     0.046 C 
ENDBRANCH  10  11
ENDBRANCH   2  10
TORSDOF 3
ENDMDL
MODEL 3
REMARK VINA RESULT:      -4.2      2.959      4.881
REMARK  3 active torsions:
REMARK  status: ('A' for Active; 'I' for Inactive)
REMARK       I    between atoms: N_1  and  C_2 
REMARK    1  A    between atoms: N_1  and  C_3 
REMARK    2  A    between atoms: C_2  and  O_5 
REMARK    3  A    between atoms: O_5  and  C_10 
ROOT
HETATM    1  N   UNL     1      64.390   7.316   6.702  1.00  0.00    -0.297 N 
HETATM    2  C   UNL     1      63.098   7.353   6.269  1.00  0.00     0.366 C 
HETATM    3  O   UNL     1      62.210   7.658   7.060  1.00  0.00    -0.238 OA
HETATM    4  H   UNL     1      64.505   7.433   7.672  1.00  0.00     0.171 HD
ENDROOT
BRANCH   1   5
HETATM    5  C   UNL     1      65.553   7.144   6.001  1.00  0.00     0.078 A 
HETATM    6  S   UNL     1      66.308   5.660   6.361  1.00  0.00    -0.084 SA
HETATM    7  C   UNL     1      67.592   5.981   5.279  1.00  0.00     0.052 A 
HETATM    8  C   UNL     1      67.471   7.226   4.702  1.00  0.00     0.010 A 
HETATM    9  C   UNL     1      66.271   7.899   5.106  1.00  0.00     0.038 A 
ENDBRANCH   1   5
BRANCH   2  10
HETATM   10  O   UNL     1      62.889   6.952   4.993  1.00  0.00    -0.294 OA
BRANCH  10  11
HETATM   11  C   UNL     1      62.454   7.938   4.006  1.00  0.00     0.061 C 
HETATM   12  C   UNL     1      62.885   9.360   4.402  1.00  0.00     0.046 C 
HETATM   13  C   UNL     1      63.156   7.542   2.698  1.00  0.00     0.046 C 
HETATM   14  C   UNL     1      60.936   7.869   3.771  1.00  0.00     0.046 C 
ENDBRANCH  10  11
ENDBRANCH   2  10
TORSDOF 3
ENDMDL
MODEL 4
REMARK VINA RESULT:      -4.0      1.836      4.212
REMARK  3 active torsions:
REMARK  status: ('A' for Active; 'I' for Inactive)
REMARK       I    between atoms: N_1  and  C_2 
REMARK    1  A    between atoms: N_1  and  C_3 
REMARK    2  A    between atoms: C_2  and  O_5 
REMARK    3  A    between atoms: O_5  and  C_10 
ROOT
HETATM    1  N   UNL     1      62.810   9.499   5.127  1.00  0.00    -0.297 N 
HETATM    2  C   UNL     1      62.333   9.981   3.945  1.00  0.00     0.366 C 
HETATM    3  O   UNL     1      61.582  10.953   3.954  1.00  0.00    -0.238 OA
HETATM    4  H   UNL     1      62.417   9.910   5.931  1.00  0.00     0.171 HD
ENDROOT
BRANCH   1   5
HETATM    5  C   UNL     1      63.750   8.535   5.375  1.00  0.00     0.078 A 
HETATM    6  S   UNL     1      63.082   7.163   6.132  1.00  0.00    -0.084 SA
HETATM    7  C   UNL     1      64.598   6.375   6.179  1.00  0.00     0.052 A 
HETATM    8  C   UNL     1      65.602   7.174   5.679  1.00  0.00     0.010 A 
HETATM    9  C   UNL     1      65.107   8.428   5.189  1.00  0.00     0.038 A 
ENDBRANCH   1   5
BRANCH   2  10
HETATM   10  O   UNL     1      62.665   9.274   2.840  1.00  0.00    -0.294 OA
BRANCH  10  11
HETATM   11  C   UNL     1      61.718   8.290   2.321  1.00  0.00     0.061 C 
HETATM   12  C   UNL     1      61.156   8.715   0.954  1.00  0.00     0.046 C 
HETATM   13  C   UNL     1      62.526   6.994   2.155  1.00  0.00     0.046 C 
HETATM   14  C   UNL     1      60.583   8.018   3.321  1.00  0.00     0.046 C 
ENDBRANCH  10  11
ENDBRANCH   2  10
TORSDOF 3
ENDMDL
MODEL 5
REMARK VINA RESULT:      -3.9      2.471      3.241
REMARK  3 active torsions:
REMARK  status: ('A' for Active; 'I' for Inactive)
REMARK       I    between atoms: N_1  and  C_2 
REMARK    1  A    between atoms: N_1  and  C_3 
REMARK    2  A    between atoms: C_2  and  O_5 
REMARK    3  A    between atoms: O_5  and  C_10 
ROOT
HETATM    1  N   UNL     1      64.096   8.104   6.041  1.00  0.00    -0.297 N 
HETATM    2  C   UNL     1      64.846   7.049   6.467  1.00  0.00     0.366 C 
HETATM    3  O   UNL     1      65.114   6.948   7.661  1.00  0.00    -0.238 OA
HETATM    4  H   UNL     1      63.912   8.785   6.727  1.00  0.00     0.171 HD
ENDROOT
BRANCH   1   5
HETATM    5  C   UNL     1      63.556   8.366   4.810  1.00  0.00     0.078 A 
HETATM    6  S   UNL     1      62.731   9.856   4.774  1.00  0.00    -0.084 SA
HETATM    7  C   UNL     1      62.315   9.654   3.128  1.00  0.00     0.052 A 
HETATM    8  C   UNL     1      62.748   8.442   2.639  1.00  0.00     0.010 A 
HETATM    9  C   UNL     1      63.492   7.696   3.613  1.00  0.00     0.038 A 
ENDBRANCH   1   5
BRANCH   2  10
HETATM   10  O   UNL     1      65.321   6.231   5.499  1.00  0.00    -0.294 OA
BRANCH  10  11
HETATM   11  C   UNL     1      66.735   6.308   5.140  1.00  0.00     0.061 C 
HETATM   12  C   UNL     1      67.589   5.369   6.009  1.00  0.00     0.046 C 
HETATM   13  C   UNL     1      66.810   5.849   3.675  1.00  0.00     0.046 C 
HETATM   14  C   UNL     1      67.257   7.752   5.213  1.00  0.00     0.046 C 
ENDBRANCH  10  11
ENDBRANCH   2  10
TORSDOF 3
ENDMDL
MODEL 6
REMARK VINA RESULT:      -3.9      2.974      5.256
REMARK  3 active torsions:
REMARK  status: ('A' for Active; 'I' for Inactive)
REMARK       I    between atoms: N_1  and  C_2 
REMARK    1  A    between atoms: N_1  and  C_3 
REMARK    2  A    between atoms: C_2  and  O_5 
REMARK    3  A    between atoms: O_5  and  C_10 
ROOT
HETATM    1  N   UNL     1      65.646   7.868   6.441  1.00  0.00    -0.297 N 
HETATM    2  C   UNL     1      65.032   8.569   5.447  1.00  0.00     0.366 C 
HETATM    3  O   UNL     1      64.614   9.699   5.682  1.00  0.00    -0.238 OA
HETATM    4  H   UNL     1      65.609   8.290   7.330  1.00  0.00     0.171 HD
ENDROOT
BRANCH   1   5
HETATM    5  C   UNL     1      66.308   6.670   6.401  1.00  0.00     0.078 A 
HETATM    6  S   UNL     1      65.397   5.407   7.093  1.00  0.00    -0.084 SA
HETATM    7  C   UNL     1      66.628   4.264   6.776  1.00  0.00     0.052 A 
HETATM    8  C   UNL     1      67.735   4.854   6.207  1.00  0.00     0.010 A 
HETATM    9  C   UNL     1      67.543   6.255   5.967  1.00  0.00     0.038 A 
ENDBRANCH   1   5
BRANCH   2  10
HETATM   10  O   UNL     1      64.851   7.907   4.280  1.00  0.00    -0.294 OA
BRANCH  10  11
HETATM   11  C   UNL     1      63.491   7.585   3.855  1.00  0.00     0.061 C 
HETATM   12  C   UNL     1      62.814   8.786   3.173  1.00  0.00     0.046 C 
HETATM   13  C   UNL     1      63.641   6.443   2.838  1.00  0.00     0.046 C 
HETATM   14  C   UNL     1      62.641   7.069   5.028  1.00  0.00     0.046 C 
ENDBRANCH  10  11
ENDBRANCH   2  10
TORSDOF 3
ENDMDL
MODEL 7
REMARK VINA RESULT:      -3.7      1.594      1.816
REMARK  3 active torsions:
REMARK  status: ('A' for Active; 'I' for Inactive)
REMARK       I    between atoms: N_1  and  C_2 
REMARK    1  A    between atoms: N_1  and  C_3 
REMARK    2  A    between atoms: C_2  and  O_5 
REMARK    3  A    between atoms: O_5  and  C_10 
ROOT
HETATM    1  N   UNL     1      62.151   8.586   4.951  1.00  0.00    -0.297 N 
HETATM    2  C   UNL     1      62.779   7.628   5.689  1.00  0.00     0.366 C 
HETATM    3  O   UNL     1      62.793   7.727   6.912  1.00  0.00    -0.238 OA
HETATM    4  H   UNL     1      61.842   9.367   5.464  1.00  0.00     0.171 HD
ENDROOT
BRANCH   1   5
HETATM    5  C   UNL     1      61.880   8.635   3.610  1.00  0.00     0.078 A 
HETATM    6  S   UNL     1      60.432   7.829   3.216  1.00  0.00    -0.084 SA
HETATM    7  C   UNL     1      60.607   8.200   1.556  1.00  0.00     0.052 A 
HETATM    8  C   UNL     1      61.781   8.875   1.306  1.00  0.00     0.010 A 
HETATM    9  C   UNL     1      62.517   9.149   2.507  1.00  0.00     0.038 A 
ENDBRANCH   1   5
BRANCH   2  10
HETATM   10  O   UNL     1      63.428   6.670   4.985  1.00  0.00    -0.294 OA
BRANCH  10  11
HETATM   11  C   UNL     1      64.885   6.728   4.893  1.00  0.00     0.061 C 
HETATM   12  C   UNL     1      65.553   5.814   5.933  1.00  0.00     0.046 C 
HETATM   13  C   UNL     1      65.224   6.220   3.482  1.00  0.00     0.046 C 
HETATM   14  C   UNL     1      65.401   8.170   5.016  1.00  0.00     0.046 C 
ENDBRANCH  10  11
ENDBRANCH   2  10
TORSDOF 3
ENDMDL
MODEL 8
REMARK VINA RESULT:      -3.6      3.454      4.575
REMARK  3 active torsions:
REMARK  status: ('A' for Active; 'I' for Inactive)
REMARK       I    between atoms: N_1  and  C_2 
REMARK    1  A    between atoms: N_1  and  C_3 
REMARK    2  A    between atoms: C_2  and  O_5 
REMARK    3  A    between atoms: O_5  and  C_10 
ROOT
HETATM    1  N   UNL     1      64.735   7.098   7.110  1.00  0.00    -0.297 N 
HETATM    2  C   UNL     1      65.557   6.052   7.409  1.00  0.00     0.366 C 
HETATM    3  O   UNL     1      66.056   5.984   8.529  1.00  0.00    -0.238 OA
HETATM    4  H   UNL     1      64.691   7.799   7.799  1.00  0.00     0.171 HD
ENDROOT
BRANCH   1   5
HETATM    5  C   UNL     1      63.961   7.327   6.004  1.00  0.00     0.078 A 
HETATM    6  S   UNL     1      64.648   8.491   4.967  1.00  0.00    -0.084 SA
HETATM    7  C   UNL     1      63.349   8.362   3.863  1.00  0.00     0.052 A 
HETATM    8  C   UNL     1      62.384   7.489   4.314  1.00  0.00     0.010 A 
HETATM    9  C   UNL     1      62.748   6.867   5.554  1.00  0.00     0.038 A 
ENDBRANCH   1   5
BRANCH   2  10
HETATM   10  O   UNL     1      65.830   5.203   6.390  1.00  0.00    -0.294 OA
BRANCH  10  11
HETATM   11  C   UNL     1      67.130   5.289   5.730  1.00  0.00     0.061 C 
HETATM   12  C   UNL     1      67.832   6.622   6.039  1.00  0.00     0.046 C 
HETATM   13  C   UNL     1      67.960   4.133   6.313  1.00  0.00     0.046 C 
HETATM   14  C   UNL     1      67.009   5.069   4.214  1.00  0.00     0.046 C 
ENDBRANCH  10  11
ENDBRANCH   2  10
TORSDOF 3
ENDMDL
MODEL 9
REMARK VINA RESULT:      -3.6      3.476      5.940
REMARK  3 active torsions:
REMARK  status: ('A' for Active; 'I' for Inactive)
REMARK       I    between atoms: N_1  and  C_2 
REMARK    1  A    between atoms: N_1  and  C_3 
REMARK    2  A    between atoms: C_2  and  O_5 
REMARK    3  A    between atoms: O_5  and  C_10 
ROOT
HETATM    1  N   UNL     1      65.981   8.012   6.719  1.00  0.00    -0.297 N 
HETATM    2  C   UNL     1      65.265   8.078   5.561  1.00  0.00     0.366 C 
HETATM    3  O   UNL     1      64.994   9.177   5.086  1.00  0.00    -0.238 OA
HETATM    4  H   UNL     1      66.138   8.879   7.159  1.00  0.00     0.171 HD
ENDROOT
BRANCH   1   5
HETATM    5  C   UNL     1      66.520   6.933   7.367  1.00  0.00     0.078 A 
HETATM    6  S   UNL     1      67.821   6.248   6.505  1.00  0.00    -0.084 SA
HETATM    7  C   UNL     1      68.063   5.052   7.703  1.00  0.00     0.052 A 
HETATM    8  C   UNL     1      67.125   5.142   8.708  1.00  0.00     0.010 A 
HETATM    9  C   UNL     1      66.236   6.253   8.525  1.00  0.00     0.038 A 
ENDBRANCH   1   5
BRANCH   2  10
HETATM   10  O   UNL     1      64.824   6.895   5.070  1.00  0.00    -0.294 OA
BRANCH  10  11
HETATM   11  C   UNL     1      63.395   6.597   5.123  1.00  0.00     0.061 C 
HETATM   12  C   UNL     1      62.709   7.336   6.284  1.00  0.00     0.046 C 
HETATM   13  C   UNL     1      62.823   7.107   3.791  1.00  0.00     0.046 C 
HETATM   14  C   UNL     1      63.136   5.084   5.204  1.00  0.00     0.046 C 
ENDBRANCH  10  11
ENDBRANCH   2  10
TORSDOF 3
ENDMDL
