MODEL 1
REMARK VINA RESULT:      -5.5      0.000      0.000
REMARK  1 active torsions:
REMARK  status: ('A' for Active; 'I' for Inactive)
REMARK    1  A    between atoms: C_1  and  C_3 
ROOT
HETATM    1  C   UNL     1      62.830   9.602   4.214  1.00  0.00     0.074 A 
HETATM    2  C   UNL     1      62.718   8.922   3.010  1.00  0.00     0.092 A 
HETATM    3  O   UNL     1      63.121   7.631   2.769  1.00  0.00    -0.349 OA
HETATM    4  C   UNL     1      62.177   9.528   1.878  1.00  0.00    -0.022 A 
HETATM    5  C   UNL     1      62.356  10.925   4.255  1.00  0.00     0.021 A 
HETATM    6  C   UNL     1      62.504   7.299   1.506  1.00  0.00     0.180 C 
HETATM    7  C   UNL     1      61.811  11.535   3.111  1.00  0.00     0.002 A 
HETATM    8  C   UNL     1      62.245   8.589   0.735  1.00  0.00     0.068 C 
HETATM    9  C   UNL     1      61.730  10.837   1.905  1.00  0.00     0.010 A 
ENDROOT
BRANCH   1  10
HETATM   10  C   UNL     1      63.425   8.949   5.406  1.00  0.00     0.212 C 
HETATM   11  O   UNL     1      62.884   8.208   6.205  1.00  0.00    -0.644 OA
HETATM   12  O   UNL     1      64.730   9.261   5.556  1.00  0.00    -0.644 OA
ENDBRANCH   1  10
TORSDOF 1
ENDMDL
MODEL 2
REMARK VINA RESULT:      -5.4      2.067      3.675
REMARK  1 active torsions:
REMARK  status: ('A' for Active; 'I' for Inactive)
REMARK    1  A    between atoms: C_1  and  C_3 
ROOT
HETATM    1  C   UNL     1      63.070   9.705   4.674  1.00  0.00     0.074 A 
HETATM    2  C   UNL     1      64.216   8.964   4.926  1.00  0.00     0.092 A 
HETATM    3  O   UNL     1      65.214   9.291   5.812  1.00  0.00    -0.349 OA
HETATM    4  C   UNL     1      64.475   7.771   4.254  1.00  0.00    -0.022 A 
HETATM    5  C   UNL     1      62.167   9.195   3.725  1.00  0.00     0.021 A 
HETATM    6  C   UNL     1      65.984   8.076   5.940  1.00  0.00     0.180 C 
HETATM    7  C   UNL     1      62.432   7.992   3.046  1.00  0.00     0.002 A 
HETATM    8  C   UNL     1      65.791   7.240   4.679  1.00  0.00     0.068 C 
HETATM    9  C   UNL     1      63.602   7.276   3.302  1.00  0.00     0.010 A 
ENDROOT
BRANCH   1  10
HETATM   10  C   UNL     1      62.817  10.982   5.385  1.00  0.00     0.212 C 
HETATM   11  O   UNL     1      63.182  11.305   6.500  1.00  0.00    -0.644 OA
HETATM   12  O   UNL     1      62.089  11.841   4.641  1.00  0.00    -0.644 OA
ENDBRANCH   1  10
TORSDOF 1
ENDMDL
MODEL 3
REMARK VINA RESULT:      -5.1      1.824      3.482
REMARK  1 active torsions:
REMARK  status: ('A' for Active; 'I' for Inactive)
REMARK    1  A    between atoms: C_1  and  C_3 
ROOT
HETATM    1  C   UNL     1      64.559   8.052   5.025  1.00  0.00     0.074 A 
HETATM    2  C   UNL     1      63.619   9.052   4.825  1.00  0.00     0.092 A 
HETATM    3  O   UNL     1      63.379  10.116   5.661  1.00  0.00    -0.349 OA
HETATM    4  C   UNL     1      62.780   9.053   3.713  1.00  0.00    -0.022 A 
HETATM    5  C   UNL     1      64.649   7.045   4.048  1.00  0.00     0.021 A 
HETATM    6  C   UNL     1      62.568  11.011   4.868  1.00  0.00     0.180 C 
HETATM    7  C   UNL     1      63.800   7.047   2.926  1.00  0.00     0.002 A 
HETATM    8  C   UNL     1      61.843  10.197   3.801  1.00  0.00     0.068 C 
HETATM    9  C   UNL     1      62.846   8.053   2.760  1.00  0.00     0.010 A 
ENDROOT
BRANCH   1  10
HETATM   10  C   UNL     1      65.433   8.056   6.224  1.00  0.00     0.212 C 
HETATM   11  O   UNL     1      66.397   8.763   6.448  1.00  0.00    -0.644 OA
HETATM   12  O   UNL     1      65.048   7.137   7.135  1.00  0.00    -0.644 OA
ENDBRANCH   1  10
TORSDOF 1
ENDMDL
MODEL 4
REMARK VINA RESULT:      -4.9      1.263      2.708
REMARK  1 active torsions:
REMARK  status: ('A' for Active; 'I' for Inactive)
REMARK    1  A    between atoms: C_1  and  C_3 
ROOT
HETATM    1  C   UNL     1      62.980   8.402   4.250  1.00  0.00     0.074 A 
HETATM    2  C   UNL     1      62.435   9.572   3.742  1.00  0.00     0.092 A 
HETATM    3  O   UNL     1      62.140  10.706   4.459  1.00  0.00    -0.349 OA
HETATM    4  C   UNL     1      62.104   9.697   2.394  1.00  0.00    -0.022 A 
HETATM    5  C   UNL     1      63.207   7.349   3.346  1.00  0.00     0.021 A 
HETATM    6  C   UNL     1      61.913  11.713   3.448  1.00  0.00     0.180 C 
HETATM    7  C   UNL     1      62.870   7.477   1.986  1.00  0.00     0.002 A 
HETATM    8  C   UNL     1      61.485  11.022   2.158  1.00  0.00     0.068 C 
HETATM    9  C   UNL     1      62.302   8.657   1.504  1.00  0.00     0.010 A 
ENDROOT
BRANCH   1  10
HETATM   10  C   UNL     1      63.310   8.278   5.691  1.00  0.00     0.212 C 
HETATM   11  O   UNL     1      62.619   7.825   6.583  1.00  0.00    -0.644 OA
HETATM   12  O   UNL     1      64.545   8.745   5.970  1.00  0.00    -0.644 OA
ENDBRANCH   1  10
TORSDOF 1
ENDMDL
MODEL 5
REMARK VINA RESULT:      -4.7      1.364      3.115
REMARK  1 active torsions:
REMARK  status: ('A' for Active; 'I' for Inactive)
REMARK    1  A    between atoms: C_1  and  C_3 
ROOT
HETATM    1  C   UNL     1      62.855   8.036   2.947  1.00  0.00     0.074 A 
HETATM    2  C   UNL     1      62.705   9.167   3.737  1.00  0.00     0.092 A 
HETATM    3  O   UNL     1      63.011   9.268   5.072  1.00  0.00    -0.349 OA
HETATM    4  C   UNL     1      62.186  10.353   3.222  1.00  0.00    -0.022 A 
HETATM    5  C   UNL     1      62.482   8.139   1.595  1.00  0.00     0.021 A 
HETATM    6  C   UNL     1      62.987  10.689   5.334  1.00  0.00     0.180 C 
HETATM    7  C   UNL     1      61.957   9.337   1.077  1.00  0.00     0.002 A 
HETATM    8  C   UNL     1      62.083  11.359   4.304  1.00  0.00     0.068 C 
HETATM    9  C   UNL     1      61.795  10.454   1.898  1.00  0.00     0.010 A 
ENDROOT
BRANCH   1  10
HETATM   10  C   UNL     1      63.393   6.776   3.515  1.00  0.00     0.212 C 
HETATM   11  O   UNL     1      62.844   6.001   4.275  1.00  0.00    -0.644 OA
HETATM   12  O   UNL     1      64.649   6.524   3.090  1.00  0.00    -0.644 OA
ENDBRANCH   1  10
TORSDOF 1
ENDMDL
MODEL 6
REMARK VINA RESULT:      -4.6      1.594      3.639
REMARK  1 active torsions:
REMARK  status: ('A' for Active; 'I' for Inactive)
REMARK    1  A    between atoms: C_1  and  C_3 
ROOT
HETATM    1  C   UNL     1      62.135   9.456   2.484  1.00  0.00     0.074 A 
HETATM    2  C   UNL     1      62.935   8.702   3.329  1.00  0.00     0.092 A 
HETATM    3  O   UNL     1      63.420   7.442   3.075  1.00  0.00    -0.349 OA
HETATM    4  C   UNL     1      63.319   9.173   4.583  1.00  0.00    -0.022 A 
HETATM    5  C   UNL     1      61.741  10.730   2.933  1.00  0.00     0.021 A 
HETATM    6  C   UNL     1      64.431   7.241   4.086  1.00  0.00     0.180 C 
HETATM    7  C   UNL     1      62.129  11.203   4.199  1.00  0.00     0.002 A 
HETATM    8  C   UNL     1      64.109   8.133   5.282  1.00  0.00     0.068 C 
HETATM    9  C   UNL     1      62.916  10.415   5.041  1.00  0.00     0.010 A 
ENDROOT
BRANCH   1  10
HETATM   10  C   UNL     1      61.719   8.933   1.159  1.00  0.00     0.212 C 
HETATM   11  O   UNL     1      62.422   8.674   0.201  1.00  0.00    -0.644 OA
HETATM   12  O   UNL     1      60.385   8.745   1.084  1.00  0.00    -0.644 OA
ENDBRANCH   1  10
TORSDOF 1
ENDMDL
MODEL 7
REMARK VINA RESULT:      -4.5      3.925      5.658
REMARK  1 active torsions:
REMARK  status: ('A' for Active; 'I' for Inactive)
REMARK    1  A    between atoms: C_1  and  C_3 
ROOT
HETATM    1  C   UNL     1      66.447   6.533   7.243  1.00  0.00     0.074 A 
HETATM    2  C   UNL     1      65.336   6.980   6.543  1.00  0.00     0.092 A 
HETATM    3  O   UNL     1      64.046   7.020   7.011  1.00  0.00    -0.349 OA
HETATM    4  C   UNL     1      65.436   7.431   5.228  1.00  0.00    -0.022 A 
HETATM    5  C   UNL     1      67.688   6.573   6.582  1.00  0.00     0.021 A 
HETATM    6  C   UNL     1      63.347   7.844   6.052  1.00  0.00     0.180 C 
HETATM    7  C   UNL     1      67.786   7.028   5.254  1.00  0.00     0.002 A 
HETATM    8  C   UNL     1      64.089   7.779   4.721  1.00  0.00     0.068 C 
HETATM    9  C   UNL     1      66.649   7.451   4.563  1.00  0.00     0.010 A 
ENDROOT
BRANCH   1  10
HETATM   10  C   UNL     1      66.321   6.039   8.637  1.00  0.00     0.212 C 
HETATM   11  O   UNL     1      66.333   6.687   9.666  1.00  0.00    -0.644 OA
HETATM   12  O   UNL     1      66.178   4.698   8.688  1.00  0.00    -0.644 OA
ENDBRANCH   1  10
TORSDOF 1
ENDMDL
MODEL 8
REMARK VINA RESULT:      -4.3      1.778      2.702
REMARK  1 active torsions:
REMARK  status: ('A' for Active; 'I' for Inactive)
REMARK    1  A    between atoms: C_1  and  C_3 
ROOT
HETATM    1  C   UNL     1      62.685   8.828   4.762  1.00  0.00     0.074 A 
HETATM    2  C   UNL     1      62.179   9.049   3.489  1.00  0.00     0.092 A 
HETATM    3  O   UNL     1      62.300  10.206   2.759  1.00  0.00    -0.349 OA
HETATM    4  C   UNL     1      61.451   8.071   2.815  1.00  0.00    -0.022 A 
HETATM    5  C   UNL     1      62.452   7.568   5.341  1.00  0.00     0.021 A 
HETATM    6  C   UNL     1      61.905   9.824   1.423  1.00  0.00     0.180 C 
HETATM    7  C   UNL     1      61.715   6.583   4.658  1.00  0.00     0.002 A 
HETATM    8  C   UNL     1      60.987   8.609   1.515  1.00  0.00     0.068 C 
HETATM    9  C   UNL     1      61.197   6.837   3.387  1.00  0.00     0.010 A 
ENDROOT
BRANCH   1  10
HETATM   10  C   UNL     1      63.444   9.886   5.475  1.00  0.00     0.212 C 
HETATM   11  O   UNL     1      63.027  10.940   5.915  1.00  0.00    -0.644 OA
HETATM   12  O   UNL     1      64.747   9.567   5.615  1.00  0.00    -0.644 OA
ENDBRANCH   1  10
TORSDOF 1
ENDMDL
MODEL 9
REMARK VINA RESULT:      -4.3      1.215      3.623
REMARK  1 active torsions:
REMARK  status: ('A' for Active; 'I' for Inactive)
REMARK    1  A    between atoms: C_1  and  C_3 
ROOT
HETATM    1  C   UNL     1      62.272   8.489   1.979  1.00  0.00     0.074 A 
HETATM    2  C   UNL     1      62.632   8.678   3.306  1.00  0.00     0.092 A 
HETATM    3  O   UNL     1      63.094   7.712   4.166  1.00  0.00    -0.349 OA
HETATM    4  C   UNL     1      62.531   9.926   3.918  1.00  0.00    -0.022 A 
HETATM    5  C   UNL     1      61.820   9.613   1.266  1.00  0.00     0.021 A 
HETATM    6  C   UNL     1      63.619   8.457   5.286  1.00  0.00     0.180 C 
HETATM    7  C   UNL     1      61.718  10.872   1.886  1.00  0.00     0.002 A 
HETATM    8  C   UNL     1      62.919   9.811   5.342  1.00  0.00     0.068 C 
HETATM    9  C   UNL     1      62.065  11.032   3.228  1.00  0.00     0.010 A 
ENDROOT
BRANCH   1  10
HETATM   10  C   UNL     1      62.368   7.150   1.347  1.00  0.00     0.212 C 
HETATM   11  O   UNL     1      63.263   6.712   0.650  1.00  0.00    -0.644 OA
HETATM   12  O   UNL     1      61.296   6.380   1.627  1.00  0.00    -0.644 OA
ENDBRANCH   1  10
TORSDOF 1
ENDMDL
