MODEL 1
REMARK VINA RESULT:      -5.9      0.000      0.000
REMARK  2 active torsions:
REMARK  status: ('A' for Active; 'I' for Inactive)
REMARK    1  A    between atoms: C_2  and  C_6 
REMARK    2  A    between atoms: C_6  and  O_7 
ROOT
HETATM    1  C   UNL     1      62.449  10.553   3.834  1.00  0.00     0.083 A 
HETATM    2  C   UNL     1      63.000  10.262   5.072  1.00  0.00    -0.001 A 
HETATM    3  O   UNL     1      61.916  11.768   3.473  1.00  0.00    -0.350 OA
HETATM    4  C   UNL     1      62.354   9.600   2.825  1.00  0.00    -0.022 A 
HETATM    5  C   UNL     1      61.752  11.659   2.041  1.00  0.00     0.180 C 
HETATM    6  C   UNL     1      63.499   8.964   5.257  1.00  0.00     0.012 A 
HETATM    7  C   UNL     1      63.407   7.997   4.238  1.00  0.00     0.001 A 
HETATM    8  C   UNL     1      61.641  10.183   1.666  1.00  0.00     0.068 C 
HETATM    9  C   UNL     1      62.817   8.312   3.013  1.00  0.00     0.010 A 
ENDROOT
BRANCH   2  10
HETATM   10  C   UNL     1      63.066  11.290   6.166  1.00  0.00     0.205 C 
BRANCH  10  11
HETATM   11  O   UNL     1      64.413  11.595   6.516  1.00  0.00    -0.396 OA
HETATM   12  H   UNL     1      64.517  12.556   6.595  1.00  0.00     0.209 HD
ENDBRANCH  10  11
ENDBRANCH   2  10
TORSDOF 2
ENDMDL
MODEL 2
REMARK VINA RESULT:      -5.7      1.397      3.039
REMARK  2 active torsions:
REMARK  status: ('A' for Active; 'I' for Inactive)
REMARK    1  A    between atoms: C_2  and  C_6 
REMARK    2  A    between atoms: C_6  and  O_7 
ROOT
HETATM    1  C   UNL     1      63.472   9.234   4.824  1.00  0.00     0.083 A 
HETATM    2  C   UNL     1      62.862  10.474   4.922  1.00  0.00    -0.001 A 
HETATM    3  O   UNL     1      64.298   8.683   5.776  1.00  0.00    -0.350 OA
HETATM    4  C   UNL     1      63.326   8.425   3.702  1.00  0.00    -0.022 A 
HETATM    5  C   UNL     1      64.433   7.306   5.357  1.00  0.00     0.180 C 
HETATM    6  C   UNL     1      62.050  10.870   3.849  1.00  0.00     0.012 A 
HETATM    7  C   UNL     1      61.896  10.054   2.713  1.00  0.00     0.001 A 
HETATM    8  C   UNL     1      64.167   7.217   3.856  1.00  0.00     0.068 C 
HETATM    9  C   UNL     1      62.551   8.824   2.630  1.00  0.00     0.010 A 
ENDROOT
BRANCH   2  10
HETATM   10  C   UNL     1      63.056  11.355   6.125  1.00  0.00     0.205 C 
BRANCH  10  11
HETATM   11  O   UNL     1      64.436  11.514   6.440  1.00  0.00    -0.396 OA
HETATM   12  H   UNL     1      64.974  11.047   5.781  1.00  0.00     0.209 HD
ENDBRANCH  10  11
ENDBRANCH   2  10
TORSDOF 2
ENDMDL
MODEL 3
REMARK VINA RESULT:      -4.9      1.798      2.760
REMARK  2 active torsions:
REMARK  status: ('A' for Active; 'I' for Inactive)
REMARK    1  A    between atoms: C_2  and  C_6 
REMARK    2  A    between atoms: C_6  and  O_7 
ROOT
HETATM    1  C   UNL     1      62.902   8.927   3.275  1.00  0.00     0.083 A 
HETATM    2  C   UNL     1      63.287   9.249   4.566  1.00  0.00    -0.001 A 
HETATM    3  O   UNL     1      63.222   7.760   2.624  1.00  0.00    -0.350 OA
HETATM    4  C   UNL     1      62.162   9.801   2.485  1.00  0.00    -0.022 A 
HETATM    5  C   UNL     1      62.368   7.772   1.457  1.00  0.00     0.180 C 
HETATM    6  C   UNL     1      62.863  10.490   5.066  1.00  0.00     0.012 A 
HETATM    7  C   UNL     1      62.112  11.377   4.271  1.00  0.00     0.001 A 
HETATM    8  C   UNL     1      61.990   9.216   1.136  1.00  0.00     0.068 C 
HETATM    9  C   UNL     1      61.769  11.037   2.962  1.00  0.00     0.010 A 
ENDROOT
BRANCH   2  10
HETATM   10  C   UNL     1      64.116   8.311   5.399  1.00  0.00     0.205 C 
BRANCH  10  11
HETATM   11  O   UNL     1      65.329   8.925   5.826  1.00  0.00    -0.396 OA
HETATM   12  H   UNL     1      65.125   9.662   6.423  1.00  0.00     0.209 HD
ENDBRANCH  10  11
ENDBRANCH   2  10
TORSDOF 2
ENDMDL
MODEL 4
REMARK VINA RESULT:      -4.9      1.683      2.693
REMARK  2 active torsions:
REMARK  status: ('A' for Active; 'I' for Inactive)
REMARK    1  A    between atoms: C_2  and  C_6 
REMARK    2  A    between atoms: C_6  and  O_7 
ROOT
HETATM    1  C   UNL     1      63.644   8.952   4.752  1.00  0.00     0.083 A 
HETATM    2  C   UNL     1      64.514   7.876   4.823  1.00  0.00    -0.001 A 
HETATM    3  O   UNL     1      63.535   9.943   5.698  1.00  0.00    -0.350 OA
HETATM    4  C   UNL     1      62.750   9.110   3.698  1.00  0.00    -0.022 A 
HETATM    5  C   UNL     1      62.734  10.955   5.045  1.00  0.00     0.180 C 
HETATM    6  C   UNL     1      64.485   6.962   3.759  1.00  0.00     0.012 A 
HETATM    7  C   UNL     1      63.584   7.119   2.689  1.00  0.00     0.001 A 
HETATM    8  C   UNL     1      61.898  10.293   3.952  1.00  0.00     0.068 C 
HETATM    9  C   UNL     1      62.696   8.196   2.663  1.00  0.00     0.010 A 
ENDROOT
BRANCH   2  10
HETATM   10  C   UNL     1      65.452   7.697   5.984  1.00  0.00     0.205 C 
BRANCH  10  11
HETATM   11  O   UNL     1      66.060   8.930   6.361  1.00  0.00    -0.396 OA
HETATM   12  H   UNL     1      66.937   8.996   5.952  1.00  0.00     0.209 HD
ENDBRANCH  10  11
ENDBRANCH   2  10
TORSDOF 2
ENDMDL
MODEL 5
REMARK VINA RESULT:      -4.3     11.825     12.874
REMARK  2 active torsions:
REMARK  status: ('A' for Active; 'I' for Inactive)
REMARK    1  A    between atoms: C_2  and  C_6 
REMARK    2  A    between atoms: C_6  and  O_7 
ROOT
HETATM    1  C   UNL     1      56.954   2.606  12.230  1.00  0.00     0.083 A 
HETATM    2  C   UNL     1      58.193   2.624  11.611  1.00  0.00    -0.001 A 
HETATM    3  O   UNL     1      55.798   3.125  11.697  1.00  0.00    -0.350 OA
HETATM    4  C   UNL     1      56.771   2.073  13.502  1.00  0.00    -0.022 A 
HETATM    5  C   UNL     1      54.760   2.611  12.563  1.00  0.00     0.180 C 
HETATM    6  C   UNL     1      59.262   2.042  12.309  1.00  0.00     0.012 A 
HETATM    7  C   UNL     1      59.082   1.500  13.596  1.00  0.00     0.001 A 
HETATM    8  C   UNL     1      55.369   2.284  13.924  1.00  0.00     0.068 C 
HETATM    9  C   UNL     1      57.827   1.527  14.206  1.00  0.00     0.010 A 
ENDROOT
BRANCH   2  10
HETATM   10  C   UNL     1      58.386   3.233  10.250  1.00  0.00     0.205 C 
BRANCH  10  11
HETATM   11  O   UNL     1      58.645   4.632  10.335  1.00  0.00    -0.396 OA
HETATM   12  H   UNL     1      58.913   4.965   9.464  1.00  0.00     0.209 HD
ENDBRANCH  10  11
ENDBRANCH   2  10
TORSDOF 2
ENDMDL
MODEL 6
REMARK VINA RESULT:      -4.2      1.538      2.069
REMARK  2 active torsions:
REMARK  status: ('A' for Active; 'I' for Inactive)
REMARK    1  A    between atoms: C_2  and  C_6 
REMARK    2  A    between atoms: C_6  and  O_7 
ROOT
HETATM    1  C   UNL     1      62.844   8.926   3.054  1.00  0.00     0.083 A 
HETATM    2  C   UNL     1      63.685   8.294   3.955  1.00  0.00    -0.001 A 
HETATM    3  O   UNL     1      62.325  10.190   3.210  1.00  0.00    -0.350 OA
HETATM    4  C   UNL     1      62.408   8.304   1.888  1.00  0.00    -0.022 A 
HETATM    5  C   UNL     1      61.772  10.498   1.910  1.00  0.00     0.180 C 
HETATM    6  C   UNL     1      64.116   7.001   3.624  1.00  0.00     0.012 A 
HETATM    7  C   UNL     1      63.680   6.368   2.444  1.00  0.00     0.001 A 
HETATM    8  C   UNL     1      61.454   9.192   1.186  1.00  0.00     0.068 C 
HETATM    9  C   UNL     1      62.806   7.019   1.573  1.00  0.00     0.010 A 
ENDROOT
BRANCH   2  10
HETATM   10  C   UNL     1      64.122   8.964   5.228  1.00  0.00     0.205 C 
BRANCH  10  11
HETATM   11  O   UNL     1      63.035   9.624   5.871  1.00  0.00    -0.396 OA
HETATM   12  H   UNL     1      62.887   9.227   6.744  1.00  0.00     0.209 HD
ENDBRANCH  10  11
ENDBRANCH   2  10
TORSDOF 2
ENDMDL
MODEL 7
REMARK VINA RESULT:      -3.9     11.997     12.904
REMARK  2 active torsions:
REMARK  status: ('A' for Active; 'I' for Inactive)
REMARK    1  A    between atoms: C_2  and  C_6 
REMARK    2  A    between atoms: C_6  and  O_7 
ROOT
HETATM    1  C   UNL     1      57.257   2.386  11.989  1.00  0.00     0.083 A 
HETATM    2  C   UNL     1      56.765   2.257  13.277  1.00  0.00    -0.001 A 
HETATM    3  O   UNL     1      56.537   2.846  10.912  1.00  0.00    -0.350 OA
HETATM    4  C   UNL     1      58.556   2.017  11.653  1.00  0.00    -0.022 A 
HETATM    5  C   UNL     1      57.542   3.069   9.897  1.00  0.00     0.180 C 
HETATM    6  C   UNL     1      57.650   1.770  14.251  1.00  0.00     0.012 A 
HETATM    7  C   UNL     1      58.966   1.398  13.917  1.00  0.00     0.001 A 
HETATM    8  C   UNL     1      58.751   2.185  10.196  1.00  0.00     0.068 C 
HETATM    9  C   UNL     1      59.422   1.509  12.602  1.00  0.00     0.010 A 
ENDROOT
BRANCH   2  10
HETATM   10  C   UNL     1      55.349   2.626  13.622  1.00  0.00     0.205 C 
BRANCH  10  11
HETATM   11  O   UNL     1      55.257   3.183  14.930  1.00  0.00    -0.396 OA
HETATM   12  H   UNL     1      55.817   2.674  15.538  1.00  0.00     0.209 HD
ENDBRANCH  10  11
ENDBRANCH   2  10
TORSDOF 2
ENDMDL
MODEL 8
REMARK VINA RESULT:      -3.8      2.452      4.094
REMARK  2 active torsions:
REMARK  status: ('A' for Active; 'I' for Inactive)
REMARK    1  A    between atoms: C_2  and  C_6 
REMARK    2  A    between atoms: C_6  and  O_7 
ROOT
HETATM    1  C   UNL     1      62.118   7.619   4.820  1.00  0.00     0.083 A 
HETATM    2  C   UNL     1      62.881   8.635   4.267  1.00  0.00    -0.001 A 
HETATM    3  O   UNL     1      60.805   7.357   4.506  1.00  0.00    -0.350 OA
HETATM    4  C   UNL     1      62.620   6.766   5.798  1.00  0.00    -0.022 A 
HETATM    5  C   UNL     1      60.560   6.064   5.105  1.00  0.00     0.180 C 
HETATM    6  C   UNL     1      64.207   8.748   4.710  1.00  0.00     0.012 A 
HETATM    7  C   UNL     1      64.721   7.886   5.698  1.00  0.00     0.001 A 
HETATM    8  C   UNL     1      61.546   5.855   6.252  1.00  0.00     0.068 C 
HETATM    9  C   UNL     1      63.917   6.893   6.259  1.00  0.00     0.010 A 
ENDROOT
BRANCH   2  10
HETATM   10  C   UNL     1      62.317   9.572   3.236  1.00  0.00     0.205 C 
BRANCH  10  11
HETATM   11  O   UNL     1      61.162  10.251   3.721  1.00  0.00    -0.396 OA
HETATM   12  H   UNL     1      61.293  10.485   4.653  1.00  0.00     0.209 HD
ENDBRANCH  10  11
ENDBRANCH   2  10
TORSDOF 2
ENDMDL
MODEL 9
REMARK VINA RESULT:      -3.7     14.056     15.157
REMARK  2 active torsions:
REMARK  status: ('A' for Active; 'I' for Inactive)
REMARK    1  A    between atoms: C_2  and  C_6 
REMARK    2  A    between atoms: C_6  and  O_7 
ROOT
HETATM    1  C   UNL     1      57.007   1.005  13.753  1.00  0.00     0.083 A 
HETATM    2  C   UNL     1      55.635   0.953  13.940  1.00  0.00    -0.001 A 
HETATM    3  O   UNL     1      57.739   2.159  13.599  1.00  0.00    -0.350 OA
HETATM    4  C   UNL     1      57.785  -0.145  13.667  1.00  0.00    -0.022 A 
HETATM    5  C   UNL     1      59.109   1.716  13.731  1.00  0.00     0.180 C 
HETATM    6  C   UNL     1      55.060  -0.319  14.080  1.00  0.00     0.012 A 
HETATM    7  C   UNL     1      55.844  -1.485  13.997  1.00  0.00     0.001 A 
HETATM    8  C   UNL     1      59.186   0.233  13.374  1.00  0.00     0.068 C 
HETATM    9  C   UNL     1      57.219  -1.400  13.774  1.00  0.00     0.010 A 
ENDROOT
BRANCH   2  10
HETATM   10  C   UNL     1      54.799   2.201  13.996  1.00  0.00     0.205 C 
BRANCH  10  11
HETATM   11  O   UNL     1      55.286   3.112  14.978  1.00  0.00    -0.396 OA
HETATM   12  H   UNL     1      56.016   3.630  14.605  1.00  0.00     0.209 HD
ENDBRANCH  10  11
ENDBRANCH   2  10
TORSDOF 2
ENDMDL
