MODEL 1
REMARK VINA RESULT:      -4.9      0.000      0.000
REMARK  2 active torsions:
REMARK  status: ('A' for Active; 'I' for Inactive)
REMARK    1  A    between atoms: C_1  and  C_10 
REMARK    2  A    between atoms: C_10  and  O_12 
ROOT
HETATM    1  C   UNL     1      62.773  10.345   4.773  1.00  0.00    -0.017 A 
HETATM    2  C   UNL     1      63.378   9.053   4.509  1.00  0.00    -0.009 A 
HETATM    3  S   UNL     1      61.919   9.620   2.452  1.00  0.00    -0.101 SA
HETATM    4  C   UNL     1      61.967  10.745   3.726  1.00  0.00     0.060 A 
HETATM    5  C   UNL     1      62.988   8.545   3.265  1.00  0.00     0.015 A 
HETATM    6  C   UNL     1      64.263   8.267   5.294  1.00  0.00     0.037 A 
HETATM    7  C   UNL     1      63.447   7.299   2.792  1.00  0.00     0.021 A 
HETATM    8  C   UNL     1      64.717   7.031   4.823  1.00  0.00     0.035 A 
HETATM    9  C   UNL     1      64.316   6.550   3.586  1.00  0.00     0.025 A 
HETATM   10 CL   UNL     1      65.788   6.094   5.794  1.00  0.00    -0.084 Cl
ENDROOT
BRANCH   1  11
HETATM   11  C   UNL     1      62.991  11.157   6.011  1.00  0.00     0.204 C 
BRANCH  11  12
HETATM   12  O   UNL     1      64.367  11.449   6.218  1.00  0.00    -0.396 OA
HETATM   13  H   UNL     1      64.632  11.153   7.103  1.00  0.00     0.209 HD
ENDBRANCH  11  12
ENDBRANCH   1  11
TORSDOF 2
ENDMDL
MODEL 2
REMARK VINA RESULT:      -4.7      2.746      3.385
REMARK  2 active torsions:
REMARK  status: ('A' for Active; 'I' for Inactive)
REMARK    1  A    between atoms: C_1  and  C_10 
REMARK    2  A    between atoms: C_10  and  O_12 
ROOT
HETATM    1  C   UNL     1      63.776   9.339   4.986  1.00  0.00    -0.017 A 
HETATM    2  C   UNL     1      63.237   8.650   3.830  1.00  0.00    -0.009 A 
HETATM    3  S   UNL     1      65.218   7.226   4.679  1.00  0.00    -0.101 SA
HETATM    4  C   UNL     1      64.849   8.655   5.523  1.00  0.00     0.060 A 
HETATM    5  C   UNL     1      63.942   7.474   3.554  1.00  0.00     0.015 A 
HETATM    6  C   UNL     1      62.151   8.984   2.976  1.00  0.00     0.037 A 
HETATM    7  C   UNL     1      63.601   6.637   2.472  1.00  0.00     0.021 A 
HETATM    8  C   UNL     1      61.814   8.153   1.903  1.00  0.00     0.035 A 
HETATM    9  C   UNL     1      62.529   6.992   1.652  1.00  0.00     0.025 A 
HETATM   10 CL   UNL     1      60.495   8.579   0.881  1.00  0.00    -0.084 Cl
ENDROOT
BRANCH   1  11
HETATM   11  C   UNL     1      63.245  10.622   5.546  1.00  0.00     0.204 C 
BRANCH  11  12
HETATM   12  O   UNL     1      64.256  11.365   6.216  1.00  0.00    -0.396 OA
HETATM   13  H   UNL     1      63.842  12.016   6.804  1.00  0.00     0.209 HD
ENDBRANCH  11  12
ENDBRANCH   1  11
TORSDOF 2
ENDMDL
MODEL 3
REMARK VINA RESULT:      -4.7      2.555      3.357
REMARK  2 active torsions:
REMARK  status: ('A' for Active; 'I' for Inactive)
REMARK    1  A    between atoms: C_1  and  C_10 
REMARK    2  A    between atoms: C_10  and  O_12 
ROOT
HETATM    1  C   UNL     1      63.223   8.689   4.717  1.00  0.00    -0.017 A 
HETATM    2  C   UNL     1      62.918   8.443   3.321  1.00  0.00    -0.009 A 
HETATM    3  S   UNL     1      62.071  10.826   3.853  1.00  0.00    -0.101 SA
HETATM    4  C   UNL     1      62.809   9.948   5.108  1.00  0.00     0.060 A 
HETATM    5  C   UNL     1      62.282   9.540   2.730  1.00  0.00     0.015 A 
HETATM    6  C   UNL     1      63.158   7.304   2.507  1.00  0.00     0.037 A 
HETATM    7  C   UNL     1      61.886   9.532   1.378  1.00  0.00     0.021 A 
HETATM    8  C   UNL     1      62.764   7.297   1.167  1.00  0.00     0.035 A 
HETATM    9  C   UNL     1      62.135   8.398   0.604  1.00  0.00     0.025 A 
HETATM   10 CL   UNL     1      63.063   5.903   0.200  1.00  0.00    -0.084 Cl
ENDROOT
BRANCH   1  11
HETATM   11  C   UNL     1      63.907   7.720   5.631  1.00  0.00     0.204 C 
BRANCH  11  12
HETATM   12  O   UNL     1      63.226   7.593   6.872  1.00  0.00    -0.396 OA
HETATM   13  H   UNL     1      62.275   7.723   6.735  1.00  0.00     0.209 HD
ENDBRANCH  11  12
ENDBRANCH   1  11
TORSDOF 2
ENDMDL
MODEL 4
REMARK VINA RESULT:      -4.7      1.320      1.366
REMARK  2 active torsions:
REMARK  status: ('A' for Active; 'I' for Inactive)
REMARK    1  A    between atoms: C_1  and  C_10 
REMARK    2  A    between atoms: C_10  and  O_12 
ROOT
HETATM    1  C   UNL     1      62.713   9.725   4.392  1.00  0.00    -0.017 A 
HETATM    2  C   UNL     1      63.730   8.693   4.329  1.00  0.00    -0.009 A 
HETATM    3  S   UNL     1      61.912   8.041   2.613  1.00  0.00    -0.101 SA
HETATM    4  C   UNL     1      61.685   9.471   3.505  1.00  0.00     0.060 A 
HETATM    5  C   UNL     1      63.409   7.707   3.390  1.00  0.00     0.015 A 
HETATM    6  C   UNL     1      64.945   8.545   5.051  1.00  0.00     0.037 A 
HETATM    7  C   UNL     1      64.249   6.600   3.155  1.00  0.00     0.021 A 
HETATM    8  C   UNL     1      65.777   7.446   4.818  1.00  0.00     0.035 A 
HETATM    9  C   UNL     1      65.436   6.483   3.880  1.00  0.00     0.025 A 
HETATM   10 CL   UNL     1      67.244   7.287   5.706  1.00  0.00    -0.084 Cl
ENDROOT
BRANCH   1  11
HETATM   11  C   UNL     1      62.758  10.922   5.290  1.00  0.00     0.204 C 
BRANCH  11  12
HETATM   12  O   UNL     1      62.113  12.046   4.706  1.00  0.00    -0.396 OA
HETATM   13  H   UNL     1      62.369  12.118   3.774  1.00  0.00     0.209 HD
ENDBRANCH  11  12
ENDBRANCH   1  11
TORSDOF 2
ENDMDL
MODEL 5
REMARK VINA RESULT:      -4.5      3.257      4.122
REMARK  2 active torsions:
REMARK  status: ('A' for Active; 'I' for Inactive)
REMARK    1  A    between atoms: C_1  and  C_10 
REMARK    2  A    between atoms: C_10  and  O_12 
ROOT
HETATM    1  C   UNL     1      62.558   7.206   4.714  1.00  0.00    -0.017 A 
HETATM    2  C   UNL     1      62.395   8.060   3.552  1.00  0.00    -0.009 A 
HETATM    3  S   UNL     1      62.798   5.668   2.659  1.00  0.00    -0.101 SA
HETATM    4  C   UNL     1      62.779   5.893   4.345  1.00  0.00     0.060 A 
HETATM    5  C   UNL     1      62.506   7.336   2.360  1.00  0.00     0.015 A 
HETATM    6  C   UNL     1      62.153   9.456   3.456  1.00  0.00     0.037 A 
HETATM    7  C   UNL     1      62.386   7.955   1.099  1.00  0.00     0.021 A 
HETATM    8  C   UNL     1      62.035  10.069   2.205  1.00  0.00     0.035 A 
HETATM    9  C   UNL     1      62.148   9.329   1.038  1.00  0.00     0.025 A 
HETATM   10 CL   UNL     1      61.745  11.764   2.114  1.00  0.00    -0.084 Cl
ENDROOT
BRANCH   1  11
HETATM   11  C   UNL     1      62.488   7.669   6.136  1.00  0.00     0.204 C 
BRANCH  11  12
HETATM   12  O   UNL     1      63.694   7.399   6.839  1.00  0.00    -0.396 OA
HETATM   13  H   UNL     1      63.556   7.550   7.787  1.00  0.00     0.209 HD
ENDBRANCH  11  12
ENDBRANCH   1  11
TORSDOF 2
ENDMDL
MODEL 6
REMARK VINA RESULT:      -4.3      2.800      4.274
REMARK  2 active torsions:
REMARK  status: ('A' for Active; 'I' for Inactive)
REMARK    1  A    between atoms: C_1  and  C_10 
REMARK    2  A    between atoms: C_10  and  O_12 
ROOT
HETATM    1  C   UNL     1      63.267   7.054   2.534  1.00  0.00    -0.017 A 
HETATM    2  C   UNL     1      62.865   8.397   2.908  1.00  0.00    -0.009 A 
HETATM    3  S   UNL     1      62.097   8.051   0.465  1.00  0.00    -0.101 SA
HETATM    4  C   UNL     1      62.899   6.765   1.234  1.00  0.00     0.060 A 
HETATM    5  C   UNL     1      62.213   9.053   1.859  1.00  0.00     0.015 A 
HETATM    6  C   UNL     1      63.033   9.108   4.127  1.00  0.00     0.037 A 
HETATM    7  C   UNL     1      61.733  10.371   1.988  1.00  0.00     0.021 A 
HETATM    8  C   UNL     1      62.558  10.416   4.253  1.00  0.00     0.035 A 
HETATM    9  C   UNL     1      61.913  11.043   3.198  1.00  0.00     0.025 A 
HETATM   10 CL   UNL     1      62.775  11.259   5.740  1.00  0.00    -0.084 Cl
ENDROOT
BRANCH   1  11
HETATM   11  C   UNL     1      63.980   6.090   3.430  1.00  0.00     0.204 C 
BRANCH  11  12
HETATM   12  O   UNL     1      65.376   6.053   3.164  1.00  0.00    -0.396 OA
HETATM   13  H   UNL     1      65.858   6.438   3.912  1.00  0.00     0.209 HD
ENDBRANCH  11  12
ENDBRANCH   1  11
TORSDOF 2
ENDMDL
MODEL 7
REMARK VINA RESULT:      -4.1      3.695      5.015
REMARK  2 active torsions:
REMARK  status: ('A' for Active; 'I' for Inactive)
REMARK    1  A    between atoms: C_1  and  C_10 
REMARK    2  A    between atoms: C_10  and  O_12 
ROOT
HETATM    1  C   UNL     1      62.158   6.980   3.610  1.00  0.00    -0.017 A 
HETATM    2  C   UNL     1      62.203   8.426   3.716  1.00  0.00    -0.009 A 
HETATM    3  S   UNL     1      63.000   7.494   5.991  1.00  0.00    -0.101 SA
HETATM    4  C   UNL     1      62.569   6.378   4.783  1.00  0.00     0.060 A 
HETATM    5  C   UNL     1      62.648   8.838   4.977  1.00  0.00     0.015 A 
HETATM    6  C   UNL     1      61.873   9.434   2.771  1.00  0.00     0.037 A 
HETATM    7  C   UNL     1      62.771  10.200   5.315  1.00  0.00     0.021 A 
HETATM    8  C   UNL     1      61.995  10.785   3.108  1.00  0.00     0.035 A 
HETATM    9  C   UNL     1      62.439  11.168   4.364  1.00  0.00     0.025 A 
HETATM   10 CL   UNL     1      61.587  11.990   1.947  1.00  0.00    -0.084 Cl
ENDROOT
BRANCH   1  11
HETATM   11  C   UNL     1      61.732   6.221   2.391  1.00  0.00     0.204 C 
BRANCH  11  12
HETATM   12  O   UNL     1      60.319   6.211   2.242  1.00  0.00    -0.396 OA
HETATM   13  H   UNL     1      59.953   5.422   2.673  1.00  0.00     0.209 HD
ENDBRANCH  11  12
ENDBRANCH   1  11
TORSDOF 2
ENDMDL
MODEL 8
REMARK VINA RESULT:      -4.0      2.478      3.177
REMARK  2 active torsions:
REMARK  status: ('A' for Active; 'I' for Inactive)
REMARK    1  A    between atoms: C_1  and  C_10 
REMARK    2  A    between atoms: C_10  and  O_12 
ROOT
HETATM    1  C   UNL     1      62.089   8.727   3.079  1.00  0.00    -0.017 A 
HETATM    2  C   UNL     1      63.319   8.143   3.578  1.00  0.00    -0.009 A 
HETATM    3  S   UNL     1      62.863  10.243   5.015  1.00  0.00    -0.101 SA
HETATM    4  C   UNL     1      61.750   9.865   3.785  1.00  0.00     0.060 A 
HETATM    5  C   UNL     1      63.847   8.882   4.643  1.00  0.00     0.015 A 
HETATM    6  C   UNL     1      64.032   6.988   3.161  1.00  0.00     0.037 A 
HETATM    7  C   UNL     1      65.043   8.508   5.289  1.00  0.00     0.021 A 
HETATM    8  C   UNL     1      65.218   6.618   3.802  1.00  0.00     0.035 A 
HETATM    9  C   UNL     1      65.720   7.367   4.855  1.00  0.00     0.025 A 
HETATM   10 CL   UNL     1      66.066   5.214   3.276  1.00  0.00    -0.084 Cl
ENDROOT
BRANCH   1  11
HETATM   11  C   UNL     1      61.273   8.176   1.952  1.00  0.00     0.204 C 
BRANCH  11  12
HETATM   12  O   UNL     1      60.259   9.084   1.539  1.00  0.00    -0.396 OA
HETATM   13  H   UNL     1      60.616   9.682   0.864  1.00  0.00     0.209 HD
ENDBRANCH  11  12
ENDBRANCH   1  11
TORSDOF 2
ENDMDL
MODEL 9
REMARK VINA RESULT:      -3.9      3.653      5.183
REMARK  2 active torsions:
REMARK  status: ('A' for Active; 'I' for Inactive)
REMARK    1  A    between atoms: C_1  and  C_10 
REMARK    2  A    between atoms: C_10  and  O_12 
ROOT
HETATM    1  C   UNL     1      66.738   6.067   4.734  1.00  0.00    -0.017 A 
HETATM    2  C   UNL     1      65.569   6.846   4.372  1.00  0.00    -0.009 A 
HETATM    3  S   UNL     1      66.682   8.066   6.359  1.00  0.00    -0.101 SA
HETATM    4  C   UNL     1      67.412   6.638   5.796  1.00  0.00     0.060 A 
HETATM    5  C   UNL     1      65.424   7.971   5.190  1.00  0.00     0.015 A 
HETATM    6  C   UNL     1      64.597   6.639   3.357  1.00  0.00     0.037 A 
HETATM    7  C   UNL     1      64.357   8.878   5.028  1.00  0.00     0.021 A 
HETATM    8  C   UNL     1      63.539   7.538   3.198  1.00  0.00     0.035 A 
HETATM    9  C   UNL     1      63.418   8.647   4.022  1.00  0.00     0.025 A 
HETATM   10 CL   UNL     1      62.370   7.265   1.962  1.00  0.00    -0.084 Cl
ENDROOT
BRANCH   1  11
HETATM   11  C   UNL     1      67.178   4.809   4.051  1.00  0.00     0.204 C 
BRANCH  11  12
HETATM   12  O   UNL     1      67.567   5.047   2.705  1.00  0.00    -0.396 OA
HETATM   13  H   UNL     1      66.839   4.806   2.110  1.00  0.00     0.209 HD
ENDBRANCH  11  12
ENDBRANCH   1  11
TORSDOF 2
ENDMDL
