MODEL 1
REMARK VINA RESULT:      -4.6      0.000      0.000
REMARK  0 active torsions:
REMARK  status: ('A' for Active; 'I' for Inactive)
ROOT
HETATM    1  C   UNL     1      62.453   9.659   3.553  1.00  0.00     0.100 A 
HETATM    2  N   UNL     1      61.567  11.315   2.280  1.00  0.00    -0.264 N 
ATOM      3  HN  UNL     1      61.154  11.830   1.502  1.00  0.00     0.194 HD
HETATM    4  O   UNL     1      61.886  11.811   3.531  1.00  0.00    -0.241 OA
HETATM    5  C   UNL     1      62.418  10.816   4.293  1.00  0.00     0.095 A 
HETATM    6  C   UNL     1      61.910  10.019   2.299  1.00  0.00     0.052 A 
HETATM    7  C   UNL     1      62.939   8.401   3.996  1.00  0.00     0.104 C 
HETATM    8  N   UNL     1      63.340   7.380   4.376  1.00  0.00    -0.191 NA
HETATM    9  C   UNL     1      62.811  11.190   5.664  1.00  0.00     0.081 C 
HETATM   10  C   UNL     1      61.689   9.192   1.089  1.00  0.00     0.072 C 
ENDROOT
TORSDOF 0
ENDMDL
MODEL 2
REMARK VINA RESULT:      -4.2      2.151      2.774
REMARK  0 active torsions:
REMARK  status: ('A' for Active; 'I' for Inactive)
ROOT
HETATM    1  C   UNL     1      62.111   9.879   3.889  1.00  0.00     0.100 A 
HETATM    2  N   UNL     1      61.185   9.469   1.859  1.00  0.00    -0.264 N 
ATOM      3  HN  UNL     1      60.820   9.587   0.913  1.00  0.00     0.194 HD
HETATM    4  O   UNL     1      61.235   8.297   2.592  1.00  0.00    -0.241 OA
HETATM    5  C   UNL     1      61.790   8.545   3.809  1.00  0.00     0.095 A 
HETATM    6  C   UNL     1      61.714  10.418   2.644  1.00  0.00     0.052 A 
HETATM    7  C   UNL     1      62.709  10.528   5.001  1.00  0.00     0.104 C 
HETATM    8  N   UNL     1      63.199  11.040   5.920  1.00  0.00    -0.191 NA
HETATM    9  C   UNL     1      61.914   7.387   4.713  1.00  0.00     0.081 C 
HETATM   10  C   UNL     1      61.807  11.808   2.140  1.00  0.00     0.072 C 
ENDROOT
TORSDOF 0
ENDMDL
MODEL 3
REMARK VINA RESULT:      -4.1      1.971      2.826
REMARK  0 active torsions:
REMARK  status: ('A' for Active; 'I' for Inactive)
ROOT
HETATM    1  C   UNL     1      62.555   9.448   3.544  1.00  0.00     0.100 A 
HETATM    2  N   UNL     1      62.793  10.423   5.579  1.00  0.00    -0.264 N 
ATOM      3  HN  UNL     1      62.996  10.577   6.566  1.00  0.00     0.194 HD
HETATM    4  O   UNL     1      62.311  11.350   4.673  1.00  0.00    -0.241 OA
HETATM    5  C   UNL     1      62.169  10.764   3.453  1.00  0.00     0.095 A 
HETATM    6  C   UNL     1      62.938   9.280   4.894  1.00  0.00     0.052 A 
HETATM    7  C   UNL     1      62.551   8.503   2.484  1.00  0.00     0.104 C 
HETATM    8  N   UNL     1      62.542   7.745   1.605  1.00  0.00    -0.191 NA
HETATM    9  C   UNL     1      61.661  11.629   2.373  1.00  0.00     0.081 C 
HETATM   10  C   UNL     1      63.446   8.076   5.591  1.00  0.00     0.072 C 
ENDROOT
TORSDOF 0
ENDMDL
MODEL 4
REMARK VINA RESULT:      -4.0      0.891      2.761
REMARK  0 active torsions:
REMARK  status: ('A' for Active; 'I' for Inactive)
ROOT
HETATM    1  C   UNL     1      62.527   9.374   3.139  1.00  0.00     0.100 A 
HETATM    2  N   UNL     1      61.732  11.485   2.899  1.00  0.00    -0.264 N 
ATOM      3  HN  UNL     1      61.459  12.450   3.088  1.00  0.00     0.194 HD
HETATM    4  O   UNL     1      61.600  10.800   1.705  1.00  0.00    -0.241 OA
HETATM    5  C   UNL     1      62.077   9.534   1.851  1.00  0.00     0.095 A 
HETATM    6  C   UNL     1      62.290  10.622   3.759  1.00  0.00     0.052 A 
HETATM    7  C   UNL     1      63.097   8.192   3.682  1.00  0.00     0.104 C 
HETATM    8  N   UNL     1      63.561   7.217   4.108  1.00  0.00    -0.191 NA
HETATM    9  C   UNL     1      62.006   8.673   0.656  1.00  0.00     0.081 C 
HETATM   10  C   UNL     1      62.569  11.058   5.148  1.00  0.00     0.072 C 
ENDROOT
TORSDOF 0
ENDMDL
MODEL 5
REMARK VINA RESULT:      -4.0      2.481      3.201
REMARK  0 active torsions:
REMARK  status: ('A' for Active; 'I' for Inactive)
ROOT
HETATM    1  C   UNL     1      63.830   8.448   4.224  1.00  0.00     0.100 A 
HETATM    2  N   UNL     1      63.512  10.297   5.500  1.00  0.00    -0.264 N 
ATOM      3  HN  UNL     1      63.115  11.148   5.899  1.00  0.00     0.194 HD
HETATM    4  O   UNL     1      64.688   9.673   5.872  1.00  0.00    -0.241 OA
HETATM    5  C   UNL     1      64.878   8.564   5.106  1.00  0.00     0.095 A 
HETATM    6  C   UNL     1      62.999   9.556   4.508  1.00  0.00     0.052 A 
HETATM    7  C   UNL     1      63.664   7.422   3.258  1.00  0.00     0.104 C 
HETATM    8  N   UNL     1      63.544   6.574   2.474  1.00  0.00    -0.191 NA
HETATM    9  C   UNL     1      66.097   7.784   5.384  1.00  0.00     0.081 C 
HETATM   10  C   UNL     1      61.719   9.965   3.884  1.00  0.00     0.072 C 
ENDROOT
TORSDOF 0
ENDMDL
MODEL 6
REMARK VINA RESULT:      -3.9      2.176      3.116
REMARK  0 active torsions:
REMARK  status: ('A' for Active; 'I' for Inactive)
ROOT
HETATM    1  C   UNL     1      63.040   8.907   4.364  1.00  0.00     0.100 A 
HETATM    2  N   UNL     1      61.089   9.496   3.368  1.00  0.00    -0.264 N 
ATOM      3  HN  UNL     1      60.292  10.037   3.031  1.00  0.00     0.194 HD
HETATM    4  O   UNL     1      61.312   8.143   3.188  1.00  0.00    -0.241 OA
HETATM    5  C   UNL     1      62.483   7.791   3.786  1.00  0.00     0.095 A 
HETATM    6  C   UNL     1      62.132   9.951   4.076  1.00  0.00     0.052 A 
HETATM    7  C   UNL     1      64.264   8.950   5.082  1.00  0.00     0.104 C 
HETATM    8  N   UNL     1      65.267   8.965   5.666  1.00  0.00    -0.191 NA
HETATM    9  C   UNL     1      62.864   6.371   3.680  1.00  0.00     0.081 C 
HETATM   10  C   UNL     1      62.193  11.386   4.438  1.00  0.00     0.072 C 
ENDROOT
TORSDOF 0
ENDMDL
MODEL 7
REMARK VINA RESULT:      -3.9      2.115      3.078
REMARK  0 active torsions:
REMARK  status: ('A' for Active; 'I' for Inactive)
ROOT
HETATM    1  C   UNL     1      62.621   9.264   3.303  1.00  0.00     0.100 A 
HETATM    2  N   UNL     1      62.942   7.358   2.116  1.00  0.00    -0.264 N 
ATOM      3  HN  UNL     1      62.873   6.632   1.401  1.00  0.00     0.194 HD
HETATM    4  O   UNL     1      63.756   7.352   3.233  1.00  0.00    -0.241 OA
HETATM    5  C   UNL     1      63.562   8.496   3.944  1.00  0.00     0.095 A 
HETATM    6  C   UNL     1      62.260   8.511   2.162  1.00  0.00     0.052 A 
HETATM    7  C   UNL     1      62.146  10.531   3.733  1.00  0.00     0.104 C 
HETATM    8  N   UNL     1      61.770  11.566   4.100  1.00  0.00    -0.191 NA
HETATM    9  C   UNL     1      64.365   8.639   5.172  1.00  0.00     0.081 C 
HETATM   10  C   UNL     1      61.289   8.824   1.089  1.00  0.00     0.072 C 
ENDROOT
TORSDOF 0
ENDMDL
MODEL 8
REMARK VINA RESULT:      -3.9      4.569      6.142
REMARK  0 active torsions:
REMARK  status: ('A' for Active; 'I' for Inactive)
ROOT
HETATM    1  C   UNL     1      65.499   6.804   6.698  1.00  0.00     0.100 A 
HETATM    2  N   UNL     1      66.939   8.460   7.272  1.00  0.00    -0.264 N 
ATOM      3  HN  UNL     1      67.671   8.994   7.740  1.00  0.00     0.194 HD
HETATM    4  O   UNL     1      66.159   8.871   6.207  1.00  0.00    -0.241 OA
HETATM    5  C   UNL     1      65.295   7.877   5.864  1.00  0.00     0.095 A 
HETATM    6  C   UNL     1      66.538   7.215   7.564  1.00  0.00     0.052 A 
HETATM    7  C   UNL     1      64.793   5.573   6.659  1.00  0.00     0.104 C 
HETATM    8  N   UNL     1      64.205   4.573   6.612  1.00  0.00    -0.191 NA
HETATM    9  C   UNL     1      64.390   8.165   4.737  1.00  0.00     0.081 C 
HETATM   10  C   UNL     1      67.190   6.483   8.674  1.00  0.00     0.072 C 
ENDROOT
TORSDOF 0
ENDMDL
MODEL 9
REMARK VINA RESULT:      -3.8      6.154      7.866
REMARK  0 active torsions:
REMARK  status: ('A' for Active; 'I' for Inactive)
ROOT
HETATM    1  C   UNL     1      66.127   6.174   7.396  1.00  0.00     0.100 A 
HETATM    2  N   UNL     1      66.393   4.245   8.561  1.00  0.00    -0.264 N 
ATOM      3  HN  UNL     1      66.750   3.537   9.202  1.00  0.00     0.194 HD
HETATM    4  O   UNL     1      65.302   4.132   7.718  1.00  0.00    -0.241 OA
HETATM    5  C   UNL     1      65.144   5.290   7.020  1.00  0.00     0.095 A 
HETATM    6  C   UNL     1      66.886   5.476   8.363  1.00  0.00     0.052 A 
HETATM    7  C   UNL     1      66.300   7.490   6.893  1.00  0.00     0.104 C 
HETATM    8  N   UNL     1      66.426   8.564   6.471  1.00  0.00    -0.191 NA
HETATM    9  C   UNL     1      64.015   5.327   6.073  1.00  0.00     0.081 C 
HETATM   10  C   UNL     1      68.075   5.914   9.130  1.00  0.00     0.072 C 
ENDROOT
TORSDOF 0
ENDMDL
