MODEL 1
REMARK VINA RESULT:      -5.4      0.000      0.000
REMARK  3 active torsions:
REMARK  status: ('A' for Active; 'I' for Inactive)
REMARK    1  A    between atoms: C_1  and  C_8 
REMARK    2  A    between atoms: C_4  and  C_7 
REMARK    3  A    between atoms: C_8  and  N_9 
ROOT
HETATM    1  C   UNL     1      64.780   7.558   5.298  1.00  0.00     0.028 A 
HETATM    2  N   UNL     1      62.774   8.032   6.278  1.00  0.00    -0.260 N 
ATOM      3  HN  UNL     1      61.837   8.394   6.455  1.00  0.00     0.195 HD
HETATM    4  C   UNL     1      63.492   8.182   5.153  1.00  0.00     0.075 A 
HETATM    5  O   UNL     1      63.546   7.298   7.145  1.00  0.00    -0.242 OA
HETATM    6  C   UNL     1      64.733   7.004   6.563  1.00  0.00     0.083 A 
HETATM    7  C   UNL     1      65.655   6.193   7.382  1.00  0.00     0.079 C 
ENDROOT
BRANCH   4   8
HETATM    8  C   UNL     1      62.924   8.921   4.020  1.00  0.00    -0.007 A 
HETATM    9  C   UNL     1      62.449  10.230   4.198  1.00  0.00     0.014 A 
HETATM   10  C   UNL     1      61.911  10.950   3.127  1.00  0.00     0.001 A 
HETATM   11  C   UNL     1      61.846  10.374   1.861  1.00  0.00     0.000 A 
HETATM   12  C   UNL     1      62.301   9.074   1.668  1.00  0.00     0.001 A 
HETATM   13  C   UNL     1      62.824   8.348   2.744  1.00  0.00     0.014 A 
ENDBRANCH   4   8
BRANCH   1  14
HETATM   14  C   UNL     1      65.917   7.484   4.337  1.00  0.00     0.275 C 
BRANCH  14  15
HETATM   15  N   UNL     1      65.847   6.222   3.604  1.00  0.00    -0.075 N 
HETATM   16  C   UNL     1      67.004   5.386   3.892  1.00  0.00     0.267 C 
HETATM   17  H   UNL     1      65.819   6.419   2.604  1.00  0.00     0.277 HD
HETATM   18  H   UNL     1      65.006   5.723   3.894  1.00  0.00     0.277 HD
ENDBRANCH  14  15
ENDBRANCH   1  14
TORSDOF 3
ENDMDL
MODEL 2
REMARK VINA RESULT:      -5.3      1.743      2.225
REMARK  3 active torsions:
REMARK  status: ('A' for Active; 'I' for Inactive)
REMARK    1  A    between atoms: C_1  and  C_8 
REMARK    2  A    between atoms: C_4  and  C_7 
REMARK    3  A    between atoms: C_8  and  N_9 
ROOT
HETATM    1  C   UNL     1      63.799   7.393   5.014  1.00  0.00     0.028 A 
HETATM    2  N   UNL     1      61.539   7.113   4.846  1.00  0.00    -0.260 N 
ATOM      3  HN  UNL     1      60.554   7.251   4.620  1.00  0.00     0.195 HD
HETATM    4  C   UNL     1      62.564   7.897   4.474  1.00  0.00     0.075 A 
HETATM    5  O   UNL     1      62.074   6.089   5.589  1.00  0.00    -0.242 OA
HETATM    6  C   UNL     1      63.417   6.245   5.682  1.00  0.00     0.083 A 
HETATM    7  C   UNL     1      64.125   5.194   6.439  1.00  0.00     0.079 C 
ENDROOT
BRANCH   4   8
HETATM    8  C   UNL     1      62.311   9.083   3.648  1.00  0.00    -0.007 A 
HETATM    9  C   UNL     1      62.227   8.966   2.252  1.00  0.00     0.014 A 
HETATM   10  C   UNL     1      61.981  10.086   1.451  1.00  0.00     0.001 A 
HETATM   11  C   UNL     1      61.810  11.338   2.036  1.00  0.00     0.000 A 
HETATM   12  C   UNL     1      61.901  11.475   3.417  1.00  0.00     0.001 A 
HETATM   13  C   UNL     1      62.164  10.357   4.216  1.00  0.00     0.014 A 
ENDBRANCH   4   8
BRANCH   1  14
HETATM   14  C   UNL     1      65.182   7.933   4.895  1.00  0.00     0.275 C 
BRANCH  14  15
HETATM   15  N   UNL     1      65.556   8.581   6.149  1.00  0.00    -0.075 N 
HETATM   16  C   UNL     1      66.748   7.969   6.719  1.00  0.00     0.267 C 
HETATM   17  H   UNL     1      64.787   8.492   6.814  1.00  0.00     0.277 HD
HETATM   18  H   UNL     1      65.753   9.564   5.961  1.00  0.00     0.277 HD
ENDBRANCH  14  15
ENDBRANCH   1  14
TORSDOF 3
ENDMDL
MODEL 3
REMARK VINA RESULT:      -5.2      2.583      5.285
REMARK  3 active torsions:
REMARK  status: ('A' for Active; 'I' for Inactive)
REMARK    1  A    between atoms: C_1  and  C_8 
REMARK    2  A    between atoms: C_4  and  C_7 
REMARK    3  A    between atoms: C_8  and  N_9 
ROOT
HETATM    1  C   UNL     1      62.230   9.929   3.056  1.00  0.00     0.028 A 
HETATM    2  N   UNL     1      62.620  10.933   5.069  1.00  0.00    -0.260 N 
ATOM      3  HN  UNL     1      62.869  11.097   6.044  1.00  0.00     0.195 HD
HETATM    4  C   UNL     1      62.704   9.768   4.405  1.00  0.00     0.075 A 
HETATM    5  O   UNL     1      62.135  11.861   4.180  1.00  0.00    -0.242 OA
HETATM    6  C   UNL     1      61.913  11.272   2.980  1.00  0.00     0.083 A 
HETATM    7  C   UNL     1      61.410  12.166   1.919  1.00  0.00     0.079 C 
ENDROOT
BRANCH   4   8
HETATM    8  C   UNL     1      63.206   8.573   5.092  1.00  0.00    -0.007 A 
HETATM    9  C   UNL     1      64.586   8.389   5.268  1.00  0.00     0.014 A 
HETATM   10  C   UNL     1      65.081   7.258   5.926  1.00  0.00     0.001 A 
HETATM   11  C   UNL     1      64.203   6.298   6.422  1.00  0.00     0.000 A 
HETATM   12  C   UNL     1      62.832   6.459   6.246  1.00  0.00     0.001 A 
HETATM   13  C   UNL     1      62.339   7.582   5.573  1.00  0.00     0.014 A 
ENDBRANCH   4   8
BRANCH   1  14
HETATM   14  C   UNL     1      62.110   8.924   1.962  1.00  0.00     0.275 C 
BRANCH  14  15
HETATM   15  N   UNL     1      60.696   8.690   1.677  1.00  0.00    -0.075 N 
HETATM   16  C   UNL     1      60.164   7.623   2.513  1.00  0.00     0.267 C 
HETATM   17  H   UNL     1      60.593   8.428   0.697  1.00  0.00     0.277 HD
HETATM   18  H   UNL     1      60.178   9.546   1.874  1.00  0.00     0.277 HD
ENDBRANCH  14  15
ENDBRANCH   1  14
TORSDOF 3
ENDMDL
MODEL 4
REMARK VINA RESULT:      -5.1      1.784      2.611
REMARK  3 active torsions:
REMARK  status: ('A' for Active; 'I' for Inactive)
REMARK    1  A    between atoms: C_1  and  C_8 
REMARK    2  A    between atoms: C_4  and  C_7 
REMARK    3  A    between atoms: C_8  and  N_9 
ROOT
HETATM    1  C   UNL     1      64.179   6.808   6.096  1.00  0.00     0.028 A 
HETATM    2  N   UNL     1      65.462   8.696   6.079  1.00  0.00    -0.260 N 
ATOM      3  HN  UNL     1      65.823   9.627   5.872  1.00  0.00     0.195 HD
HETATM    4  C   UNL     1      64.332   8.150   5.600  1.00  0.00     0.075 A 
HETATM    5  O   UNL     1      66.037   7.758   6.902  1.00  0.00    -0.242 OA
HETATM    6  C   UNL     1      65.272   6.640   6.925  1.00  0.00     0.083 A 
HETATM    7  C   UNL     1      65.765   5.554   7.795  1.00  0.00     0.079 C 
ENDROOT
BRANCH   4   8
HETATM    8  C   UNL     1      63.479   8.921   4.690  1.00  0.00    -0.007 A 
HETATM    9  C   UNL     1      62.961  10.163   5.090  1.00  0.00     0.014 A 
HETATM   10  C   UNL     1      62.151  10.913   4.233  1.00  0.00     0.001 A 
HETATM   11  C   UNL     1      61.852  10.436   2.959  1.00  0.00     0.000 A 
HETATM   12  C   UNL     1      62.347   9.201   2.549  1.00  0.00     0.001 A 
HETATM   13  C   UNL     1      63.143   8.444   3.415  1.00  0.00     0.014 A 
ENDBRANCH   4   8
BRANCH   1  14
HETATM   14  C   UNL     1      63.108   5.808   5.826  1.00  0.00     0.275 C 
BRANCH  14  15
HETATM   15  N   UNL     1      61.859   6.263   6.432  1.00  0.00    -0.075 N 
HETATM   16  C   UNL     1      60.777   6.271   5.458  1.00  0.00     0.267 C 
HETATM   17  H   UNL     1      61.989   7.208   6.794  1.00  0.00     0.277 HD
HETATM   18  H   UNL     1      61.612   5.623   7.187  1.00  0.00     0.277 HD
ENDBRANCH  14  15
ENDBRANCH   1  14
TORSDOF 3
ENDMDL
MODEL 5
REMARK VINA RESULT:      -5.1      1.781      2.998
REMARK  3 active torsions:
REMARK  status: ('A' for Active; 'I' for Inactive)
REMARK    1  A    between atoms: C_1  and  C_8 
REMARK    2  A    between atoms: C_4  and  C_7 
REMARK    3  A    between atoms: C_8  and  N_9 
ROOT
HETATM    1  C   UNL     1      63.855   6.875   5.919  1.00  0.00     0.028 A 
HETATM    2  N   UNL     1      65.303   8.638   6.014  1.00  0.00    -0.260 N 
ATOM      3  HN  UNL     1      65.744   9.546   5.867  1.00  0.00     0.195 HD
HETATM    4  C   UNL     1      64.122   8.231   5.519  1.00  0.00     0.075 A 
HETATM    5  O   UNL     1      65.802   7.595   6.755  1.00  0.00    -0.242 OA
HETATM    6  C   UNL     1      64.940   6.550   6.712  1.00  0.00     0.083 A 
HETATM    7  C   UNL     1      65.344   5.364   7.491  1.00  0.00     0.079 C 
ENDROOT
BRANCH   4   8
HETATM    8  C   UNL     1      63.330   9.140   4.683  1.00  0.00    -0.007 A 
HETATM    9  C   UNL     1      62.951   8.757   3.387  1.00  0.00     0.014 A 
HETATM   10  C   UNL     1      62.192   9.609   2.580  1.00  0.00     0.001 A 
HETATM   11  C   UNL     1      61.795  10.855   3.059  1.00  0.00     0.000 A 
HETATM   12  C   UNL     1      62.171  11.256   4.337  1.00  0.00     0.001 A 
HETATM   13  C   UNL     1      62.945  10.409   5.138  1.00  0.00     0.014 A 
ENDBRANCH   4   8
BRANCH   1  14
HETATM   14  C   UNL     1      62.696   5.997   5.598  1.00  0.00     0.275 C 
BRANCH  14  15
HETATM   15  N   UNL     1      61.598   6.293   6.515  1.00  0.00    -0.075 N 
HETATM   16  C   UNL     1      60.311   5.990   5.905  1.00  0.00     0.267 C 
HETATM   17  H   UNL     1      61.625   7.284   6.759  1.00  0.00     0.277 HD
HETATM   18  H   UNL     1      61.706   5.717   7.349  1.00  0.00     0.277 HD
ENDBRANCH  14  15
ENDBRANCH   1  14
TORSDOF 3
ENDMDL
MODEL 6
REMARK VINA RESULT:      -4.9      2.532      3.868
REMARK  3 active torsions:
REMARK  status: ('A' for Active; 'I' for Inactive)
REMARK    1  A    between atoms: C_1  and  C_8 
REMARK    2  A    between atoms: C_4  and  C_7 
REMARK    3  A    between atoms: C_8  and  N_9 
ROOT
HETATM    1  C   UNL     1      62.864   9.599   4.503  1.00  0.00     0.028 A 
HETATM    2  N   UNL     1      61.539  10.999   3.278  1.00  0.00    -0.260 N 
ATOM      3  HN  UNL     1      60.931  11.378   2.552  1.00  0.00     0.195 HD
HETATM    4  C   UNL     1      62.011   9.743   3.352  1.00  0.00     0.075 A 
HETATM    5  O   UNL     1      62.034  11.673   4.367  1.00  0.00    -0.242 OA
HETATM    6  C   UNL     1      62.811  10.843   5.104  1.00  0.00     0.083 A 
HETATM    7  C   UNL     1      63.390  11.436   6.325  1.00  0.00     0.079 C 
ENDROOT
BRANCH   4   8
HETATM    8  C   UNL     1      61.645   8.764   2.323  1.00  0.00    -0.007 A 
HETATM    9  C   UNL     1      60.484   7.989   2.468  1.00  0.00     0.014 A 
HETATM   10  C   UNL     1      60.117   7.056   1.494  1.00  0.00     0.001 A 
HETATM   11  C   UNL     1      60.903   6.889   0.356  1.00  0.00     0.000 A 
HETATM   12  C   UNL     1      62.063   7.641   0.200  1.00  0.00     0.001 A 
HETATM   13  C   UNL     1      62.438   8.562   1.184  1.00  0.00     0.014 A 
ENDBRANCH   4   8
BRANCH   1  14
HETATM   14  C   UNL     1      63.626   8.413   4.982  1.00  0.00     0.275 C 
BRANCH  14  15
HETATM   15  N   UNL     1      62.959   7.853   6.155  1.00  0.00    -0.075 N 
HETATM   16  C   UNL     1      63.091   6.403   6.190  1.00  0.00     0.267 C 
HETATM   17  H   UNL     1      61.969   8.097   6.124  1.00  0.00     0.277 HD
HETATM   18  H   UNL     1      63.395   8.239   6.992  1.00  0.00     0.277 HD
ENDBRANCH  14  15
ENDBRANCH   1  14
TORSDOF 3
ENDMDL
MODEL 7
REMARK VINA RESULT:      -4.9      2.398      3.548
REMARK  3 active torsions:
REMARK  status: ('A' for Active; 'I' for Inactive)
REMARK    1  A    between atoms: C_1  and  C_8 
REMARK    2  A    between atoms: C_4  and  C_7 
REMARK    3  A    between atoms: C_8  and  N_9 
ROOT
HETATM    1  C   UNL     1      61.903   6.921   4.895  1.00  0.00     0.028 A 
HETATM    2  N   UNL     1      63.259   8.456   5.904  1.00  0.00    -0.260 N 
ATOM      3  HN  UNL     1      63.790   9.302   6.108  1.00  0.00     0.195 HD
HETATM    4  C   UNL     1      62.447   8.253   4.854  1.00  0.00     0.075 A 
HETATM    5  O   UNL     1      63.236   7.303   6.650  1.00  0.00    -0.242 OA
HETATM    6  C   UNL     1      62.423   6.393   6.061  1.00  0.00     0.083 A 
HETATM    7  C   UNL     1      62.288   5.109   6.776  1.00  0.00     0.079 C 
ENDROOT
BRANCH   4   8
HETATM    8  C   UNL     1      62.250   9.321   3.867  1.00  0.00    -0.007 A 
HETATM    9  C   UNL     1      62.233   9.020   2.496  1.00  0.00     0.014 A 
HETATM   10  C   UNL     1      62.041  10.025   1.544  1.00  0.00     0.001 A 
HETATM   11  C   UNL     1      61.858  11.345   1.948  1.00  0.00     0.000 A 
HETATM   12  C   UNL     1      61.883  11.663   3.302  1.00  0.00     0.001 A 
HETATM   13  C   UNL     1      62.092  10.659   4.254  1.00  0.00     0.014 A 
ENDBRANCH   4   8
BRANCH   1  14
HETATM   14  C   UNL     1      60.983   6.237   3.943  1.00  0.00     0.275 C 
BRANCH  14  15
HETATM   15  N   UNL     1      59.601   6.541   4.306  1.00  0.00    -0.075 N 
HETATM   16  C   UNL     1      58.903   5.344   4.753  1.00  0.00     0.267 C 
HETATM   17  H   UNL     1      59.119   6.923   3.492  1.00  0.00     0.277 HD
HETATM   18  H   UNL     1      59.606   7.218   5.068  1.00  0.00     0.277 HD
ENDBRANCH  14  15
ENDBRANCH   1  14
TORSDOF 3
ENDMDL
MODEL 8
REMARK VINA RESULT:      -4.6      1.969      2.316
REMARK  3 active torsions:
REMARK  status: ('A' for Active; 'I' for Inactive)
REMARK    1  A    between atoms: C_1  and  C_8 
REMARK    2  A    between atoms: C_4  and  C_7 
REMARK    3  A    between atoms: C_8  and  N_9 
ROOT
HETATM    1  C   UNL     1      64.566   7.711   4.352  1.00  0.00     0.028 A 
HETATM    2  N   UNL     1      63.493   9.655   4.884  1.00  0.00    -0.260 N 
ATOM      3  HN  UNL     1      62.834  10.433   4.894  1.00  0.00     0.195 HD
HETATM    4  C   UNL     1      63.440   8.569   4.095  1.00  0.00     0.075 A 
HETATM    5  O   UNL     1      64.608   9.515   5.674  1.00  0.00    -0.242 OA
HETATM    6  C   UNL     1      65.242   8.357   5.370  1.00  0.00     0.083 A 
HETATM    7  C   UNL     1      66.450   8.069   6.167  1.00  0.00     0.079 C 
ENDROOT
BRANCH   4   8
HETATM    8  C   UNL     1      62.340   8.419   3.135  1.00  0.00    -0.007 A 
HETATM    9  C   UNL     1      61.168   7.743   3.506  1.00  0.00     0.014 A 
HETATM   10  C   UNL     1      60.109   7.596   2.606  1.00  0.00     0.001 A 
HETATM   11  C   UNL     1      60.204   8.128   1.323  1.00  0.00     0.000 A 
HETATM   12  C   UNL     1      61.364   8.792   0.934  1.00  0.00     0.001 A 
HETATM   13  C   UNL     1      62.429   8.924   1.830  1.00  0.00     0.014 A 
ENDBRANCH   4   8
BRANCH   1  14
HETATM   14  C   UNL     1      64.946   6.420   3.714  1.00  0.00     0.275 C 
BRANCH  14  15
HETATM   15  N   UNL     1      64.303   5.321   4.429  1.00  0.00    -0.075 N 
HETATM   16  C   UNL     1      63.329   4.645   3.583  1.00  0.00     0.267 C 
HETATM   17  H   UNL     1      63.827   5.691   5.252  1.00  0.00     0.277 HD
HETATM   18  H   UNL     1      65.018   4.648   4.703  1.00  0.00     0.277 HD
ENDBRANCH  14  15
ENDBRANCH   1  14
TORSDOF 3
ENDMDL
MODEL 9
REMARK VINA RESULT:      -4.3      1.939      4.928
REMARK  3 active torsions:
REMARK  status: ('A' for Active; 'I' for Inactive)
REMARK    1  A    between atoms: C_1  and  C_8 
REMARK    2  A    between atoms: C_4  and  C_7 
REMARK    3  A    between atoms: C_8  and  N_9 
ROOT
HETATM    1  C   UNL     1      63.343   8.138   4.284  1.00  0.00     0.028 A 
HETATM    2  N   UNL     1      64.190   9.726   5.688  1.00  0.00    -0.260 N 
ATOM      3  HN  UNL     1      64.767  10.213   6.374  1.00  0.00     0.195 HD
HETATM    4  C   UNL     1      64.388   8.487   5.209  1.00  0.00     0.075 A 
HETATM    5  O   UNL     1      63.059  10.211   5.077  1.00  0.00    -0.242 OA
HETATM    6  C   UNL     1      62.559   9.275   4.234  1.00  0.00     0.083 A 
HETATM    7  C   UNL     1      61.350   9.677   3.489  1.00  0.00     0.079 C 
ENDROOT
BRANCH   4   8
HETATM    8  C   UNL     1      65.540   7.704   5.668  1.00  0.00    -0.007 A 
HETATM    9  C   UNL     1      65.439   6.910   6.821  1.00  0.00     0.014 A 
HETATM   10  C   UNL     1      66.526   6.153   7.269  1.00  0.00     0.001 A 
HETATM   11  C   UNL     1      67.728   6.174   6.568  1.00  0.00     0.000 A 
HETATM   12  C   UNL     1      67.851   6.965   5.429  1.00  0.00     0.001 A 
HETATM   13  C   UNL     1      66.768   7.734   4.991  1.00  0.00     0.014 A 
ENDBRANCH   4   8
BRANCH   1  14
HETATM   14  C   UNL     1      63.124   6.874   3.526  1.00  0.00     0.275 C 
BRANCH  14  15
HETATM   15  N   UNL     1      63.349   7.121   2.104  1.00  0.00    -0.075 N 
HETATM   16  C   UNL     1      63.563   5.873   1.384  1.00  0.00     0.267 C 
HETATM   17  H   UNL     1      64.172   7.713   1.994  1.00  0.00     0.277 HD
HETATM   18  H   UNL     1      62.524   7.580   1.719  1.00  0.00     0.277 HD
ENDBRANCH  14  15
ENDBRANCH   1  14
TORSDOF 3
ENDMDL
