MODEL 1
REMARK VINA RESULT:      -5.4      0.000      0.000
REMARK  3 active torsions:
REMARK  status: ('A' for Active; 'I' for Inactive)
REMARK    1  A    between atoms: C_1  and  C_8 
REMARK    2  A    between atoms: C_4  and  C_7 
REMARK    3  A    between atoms: C_8  and  N_9 
ROOT
HETATM    1  C   UNL     1      64.753   7.527   5.258  1.00  0.00     0.028 A 
HETATM    2  N   UNL     1      62.784   8.059   6.284  1.00  0.00    -0.260 N 
ATOM      3  HN  UNL     1      61.853   8.430   6.476  1.00  0.00     0.195 HD
HETATM    4  C   UNL     1      63.483   8.198   5.143  1.00  0.00     0.075 A 
HETATM    5  O   UNL     1      63.563   7.322   7.141  1.00  0.00    -0.242 OA
HETATM    6  C   UNL     1      64.732   7.003   6.535  1.00  0.00     0.083 A 
HETATM    7  C   UNL     1      65.667   6.200   7.348  1.00  0.00     0.079 C 
ENDROOT
BRANCH   4   8
HETATM    8  C   UNL     1      62.901   8.937   4.013  1.00  0.00    -0.007 A 
HETATM    9  C   UNL     1      62.428  10.250   4.154  1.00  0.00     0.014 A 
HETATM   10  C   UNL     1      61.914  10.952   3.062  1.00  0.00     0.001 A 
HETATM   11  C   UNL     1      61.838  10.344   1.814  1.00  0.00     0.000 A 
HETATM   12  C   UNL     1      62.277   9.032   1.656  1.00  0.00     0.001 A 
HETATM   13  C   UNL     1      62.805   8.334   2.746  1.00  0.00     0.014 A 
ENDBRANCH   4   8
BRANCH   1  14
HETATM   14  C   UNL     1      65.864   7.407   4.277  1.00  0.00     0.273 C 
BRANCH  14  15
HETATM   15  N   UNL     1      65.739   6.160   3.541  1.00  0.00    -0.075 N 
HETATM   16  H   UNL     1      64.867   5.700   3.798  1.00  0.00     0.274 HD
HETATM   17  H   UNL     1      66.526   5.551   3.769  1.00  0.00     0.274 HD
HETATM   18  H   UNL     1      65.740   6.355   2.540  1.00  0.00     0.274 HD
ENDBRANCH  14  15
ENDBRANCH   1  14
TORSDOF 3
ENDMDL
MODEL 2
REMARK VINA RESULT:      -5.3      0.936      1.592
REMARK  3 active torsions:
REMARK  status: ('A' for Active; 'I' for Inactive)
REMARK    1  A    between atoms: C_1  and  C_8 
REMARK    2  A    between atoms: C_4  and  C_7 
REMARK    3  A    between atoms: C_8  and  N_9 
ROOT
HETATM    1  C   UNL     1      65.582   7.681   5.564  1.00  0.00     0.028 A 
HETATM    2  N   UNL     1      63.528   7.529   6.549  1.00  0.00    -0.260 N 
ATOM      3  HN  UNL     1      62.527   7.601   6.734  1.00  0.00     0.195 HD
HETATM    4  C   UNL     1      64.175   7.974   5.457  1.00  0.00     0.075 A 
HETATM    5  O   UNL     1      64.472   6.960   7.367  1.00  0.00    -0.242 OA
HETATM    6  C   UNL     1      65.692   7.046   6.786  1.00  0.00     0.083 A 
HETATM    7  C   UNL     1      66.805   6.463   7.561  1.00  0.00     0.079 C 
ENDROOT
BRANCH   4   8
HETATM    8  C   UNL     1      63.424   8.627   4.375  1.00  0.00    -0.007 A 
HETATM    9  C   UNL     1      63.260   8.022   3.120  1.00  0.00     0.014 A 
HETATM   10  C   UNL     1      62.509   8.638   2.116  1.00  0.00     0.001 A 
HETATM   11  C   UNL     1      61.931   9.882   2.340  1.00  0.00     0.000 A 
HETATM   12  C   UNL     1      62.103  10.514   3.570  1.00  0.00     0.001 A 
HETATM   13  C   UNL     1      62.842   9.890   4.580  1.00  0.00     0.014 A 
ENDBRANCH   4   8
BRANCH   1  14
HETATM   14  C   UNL     1      66.696   7.978   4.626  1.00  0.00     0.273 C 
BRANCH  14  15
HETATM   15  N   UNL     1      67.166   6.747   4.013  1.00  0.00    -0.075 N 
HETATM   16  H   UNL     1      67.928   6.957   3.369  1.00  0.00     0.274 HD
HETATM   17  H   UNL     1      66.399   6.309   3.502  1.00  0.00     0.274 HD
HETATM   18  H   UNL     1      67.498   6.111   4.738  1.00  0.00     0.274 HD
ENDBRANCH  14  15
ENDBRANCH   1  14
TORSDOF 3
ENDMDL
MODEL 3
REMARK VINA RESULT:      -5.2      1.556      2.095
REMARK  3 active torsions:
REMARK  status: ('A' for Active; 'I' for Inactive)
REMARK    1  A    between atoms: C_1  and  C_8 
REMARK    2  A    between atoms: C_4  and  C_7 
REMARK    3  A    between atoms: C_8  and  N_9 
ROOT
HETATM    1  C   UNL     1      63.813   6.912   5.919  1.00  0.00     0.028 A 
HETATM    2  N   UNL     1      65.256   8.681   5.957  1.00  0.00    -0.260 N 
ATOM      3  HN  UNL     1      65.685   9.593   5.799  1.00  0.00     0.195 HD
HETATM    4  C   UNL     1      64.078   8.254   5.466  1.00  0.00     0.075 A 
HETATM    5  O   UNL     1      65.768   7.656   6.711  1.00  0.00    -0.242 OA
HETATM    6  C   UNL     1      64.915   6.605   6.694  1.00  0.00     0.083 A 
HETATM    7  C   UNL     1      65.344   5.428   7.476  1.00  0.00     0.079 C 
ENDROOT
BRANCH   4   8
HETATM    8  C   UNL     1      63.271   9.145   4.620  1.00  0.00    -0.007 A 
HETATM    9  C   UNL     1      62.861  10.412   5.061  1.00  0.00     0.014 A 
HETATM   10  C   UNL     1      62.128  11.262   4.231  1.00  0.00     0.001 A 
HETATM   11  C   UNL     1      61.769  10.850   2.952  1.00  0.00     0.000 A 
HETATM   12  C   UNL     1      62.142   9.586   2.502  1.00  0.00     0.001 A 
HETATM   13  C   UNL     1      62.888   8.741   3.329  1.00  0.00     0.014 A 
ENDBRANCH   4   8
BRANCH   1  14
HETATM   14  C   UNL     1      62.658   6.018   5.642  1.00  0.00     0.273 C 
BRANCH  14  15
HETATM   15  N   UNL     1      61.516   6.426   6.442  1.00  0.00    -0.075 N 
HETATM   16  H   UNL     1      61.805   6.542   7.413  1.00  0.00     0.274 HD
HETATM   17  H   UNL     1      60.789   5.713   6.385  1.00  0.00     0.274 HD
HETATM   18  H   UNL     1      61.151   7.311   6.088  1.00  0.00     0.274 HD
ENDBRANCH  14  15
ENDBRANCH   1  14
TORSDOF 3
ENDMDL
MODEL 4
REMARK VINA RESULT:      -5.0      1.395      1.886
REMARK  3 active torsions:
REMARK  status: ('A' for Active; 'I' for Inactive)
REMARK    1  A    between atoms: C_1  and  C_8 
REMARK    2  A    between atoms: C_4  and  C_7 
REMARK    3  A    between atoms: C_8  and  N_9 
ROOT
HETATM    1  C   UNL     1      64.306   7.505   5.344  1.00  0.00     0.028 A 
HETATM    2  N   UNL     1      62.084   6.988   5.259  1.00  0.00    -0.260 N 
ATOM      3  HN  UNL     1      61.087   7.000   5.041  1.00  0.00     0.195 HD
HETATM    4  C   UNL     1      63.011   7.860   4.822  1.00  0.00     0.075 A 
HETATM    5  O   UNL     1      62.735   6.079   6.053  1.00  0.00    -0.242 OA
HETATM    6  C   UNL     1      64.054   6.380   6.105  1.00  0.00     0.083 A 
HETATM    7  C   UNL     1      64.880   5.472   6.927  1.00  0.00     0.079 C 
ENDROOT
BRANCH   4   8
HETATM    8  C   UNL     1      62.618   8.958   3.926  1.00  0.00    -0.007 A 
HETATM    9  C   UNL     1      62.470   8.767   2.544  1.00  0.00     0.014 A 
HETATM   10  C   UNL     1      62.059   9.810   1.712  1.00  0.00     0.001 A 
HETATM   11  C   UNL     1      61.813  11.071   2.244  1.00  0.00     0.000 A 
HETATM   12  C   UNL     1      61.980  11.292   3.609  1.00  0.00     0.001 A 
HETATM   13  C   UNL     1      62.378  10.243   4.444  1.00  0.00     0.014 A 
ENDBRANCH   4   8
BRANCH   1  14
HETATM   14  C   UNL     1      65.627   8.161   5.154  1.00  0.00     0.273 C 
BRANCH  14  15
HETATM   15  N   UNL     1      66.101   8.689   6.422  1.00  0.00    -0.075 N 
HETATM   16  H   UNL     1      65.336   9.167   6.899  1.00  0.00     0.274 HD
HETATM   17  H   UNL     1      66.861   9.348   6.253  1.00  0.00     0.274 HD
HETATM   18  H   UNL     1      66.439   7.923   7.005  1.00  0.00     0.274 HD
ENDBRANCH  14  15
ENDBRANCH   1  14
TORSDOF 3
ENDMDL
MODEL 5
REMARK VINA RESULT:      -5.0      2.488      3.877
REMARK  3 active torsions:
REMARK  status: ('A' for Active; 'I' for Inactive)
REMARK    1  A    between atoms: C_1  and  C_8 
REMARK    2  A    between atoms: C_4  and  C_7 
REMARK    3  A    between atoms: C_8  and  N_9 
ROOT
HETATM    1  C   UNL     1      62.809   9.637   4.616  1.00  0.00     0.028 A 
HETATM    2  N   UNL     1      61.537  10.999   3.297  1.00  0.00    -0.260 N 
ATOM      3  HN  UNL     1      60.941  11.352   2.548  1.00  0.00     0.195 HD
HETATM    4  C   UNL     1      62.007   9.745   3.424  1.00  0.00     0.075 A 
HETATM    5  O   UNL     1      62.014  11.713   4.367  1.00  0.00    -0.242 OA
HETATM    6  C   UNL     1      62.768  10.909   5.154  1.00  0.00     0.083 A 
HETATM    7  C   UNL     1      63.341  11.552   6.353  1.00  0.00     0.079 C 
ENDROOT
BRANCH   4   8
HETATM    8  C   UNL     1      61.652   8.725   2.425  1.00  0.00    -0.007 A 
HETATM    9  C   UNL     1      62.179   8.752   1.125  1.00  0.00     0.014 A 
HETATM   10  C   UNL     1      61.864   7.754   0.200  1.00  0.00     0.001 A 
HETATM   11  C   UNL     1      60.995   6.727   0.550  1.00  0.00     0.000 A 
HETATM   12  C   UNL     1      60.439   6.695   1.827  1.00  0.00     0.001 A 
HETATM   13  C   UNL     1      60.766   7.686   2.758  1.00  0.00     0.014 A 
ENDBRANCH   4   8
BRANCH   1  14
HETATM   14  C   UNL     1      63.541   8.470   5.175  1.00  0.00     0.273 C 
BRANCH  14  15
HETATM   15  N   UNL     1      62.846   7.970   6.349  1.00  0.00    -0.075 N 
HETATM   16  H   UNL     1      62.044   7.412   6.058  1.00  0.00     0.274 HD
HETATM   17  H   UNL     1      62.528   8.756   6.917  1.00  0.00     0.274 HD
HETATM   18  H   UNL     1      63.482   7.390   6.899  1.00  0.00     0.274 HD
ENDBRANCH  14  15
ENDBRANCH   1  14
TORSDOF 3
ENDMDL
MODEL 6
REMARK VINA RESULT:      -4.6      1.742      2.119
REMARK  3 active torsions:
REMARK  status: ('A' for Active; 'I' for Inactive)
REMARK    1  A    between atoms: C_1  and  C_8 
REMARK    2  A    between atoms: C_4  and  C_7 
REMARK    3  A    between atoms: C_8  and  N_9 
ROOT
HETATM    1  C   UNL     1      64.631   7.709   4.438  1.00  0.00     0.028 A 
HETATM    2  N   UNL     1      63.543   9.646   4.965  1.00  0.00    -0.260 N 
ATOM      3  HN  UNL     1      62.868  10.411   4.985  1.00  0.00     0.195 HD
HETATM    4  C   UNL     1      63.505   8.566   4.164  1.00  0.00     0.075 A 
HETATM    5  O   UNL     1      64.662   9.522   5.748  1.00  0.00    -0.242 OA
HETATM    6  C   UNL     1      65.310   8.374   5.441  1.00  0.00     0.083 A 
HETATM    7  C   UNL     1      66.536   8.110   6.220  1.00  0.00     0.079 C 
ENDROOT
BRANCH   4   8
HETATM    8  C   UNL     1      62.400   8.401   3.207  1.00  0.00    -0.007 A 
HETATM    9  C   UNL     1      61.228   7.708   3.545  1.00  0.00     0.014 A 
HETATM   10  C   UNL     1      60.172   7.595   2.638  1.00  0.00     0.001 A 
HETATM   11  C   UNL     1      60.279   8.150   1.368  1.00  0.00     0.000 A 
HETATM   12  C   UNL     1      61.444   8.819   1.001  1.00  0.00     0.001 A 
HETATM   13  C   UNL     1      62.496   8.945   1.914  1.00  0.00     0.014 A 
ENDBRANCH   4   8
BRANCH   1  14
HETATM   14  C   UNL     1      65.026   6.418   3.815  1.00  0.00     0.273 C 
BRANCH  14  15
HETATM   15  N   UNL     1      64.368   5.319   4.501  1.00  0.00    -0.075 N 
HETATM   16  H   UNL     1      63.970   5.654   5.378  1.00  0.00     0.274 HD
HETATM   17  H   UNL     1      65.049   4.584   4.695  1.00  0.00     0.274 HD
HETATM   18  H   UNL     1      63.625   4.945   3.911  1.00  0.00     0.274 HD
ENDBRANCH  14  15
ENDBRANCH   1  14
TORSDOF 3
ENDMDL
MODEL 7
REMARK VINA RESULT:      -4.6      1.997      4.924
REMARK  3 active torsions:
REMARK  status: ('A' for Active; 'I' for Inactive)
REMARK    1  A    between atoms: C_1  and  C_8 
REMARK    2  A    between atoms: C_4  and  C_7 
REMARK    3  A    between atoms: C_8  and  N_9 
ROOT
HETATM    1  C   UNL     1      62.786   9.241   3.598  1.00  0.00     0.028 A 
HETATM    2  N   UNL     1      63.128  10.185   5.648  1.00  0.00    -0.260 N 
ATOM      3  HN  UNL     1      63.403  10.335   6.620  1.00  0.00     0.195 HD
HETATM    4  C   UNL     1      63.300   9.059   4.932  1.00  0.00     0.075 A 
HETATM    5  O   UNL     1      62.512  11.092   4.824  1.00  0.00    -0.242 OA
HETATM    6  C   UNL     1      62.309  10.537   3.605  1.00  0.00     0.083 A 
HETATM    7  C   UNL     1      61.656  11.413   2.612  1.00  0.00     0.079 C 
ENDROOT
BRANCH   4   8
HETATM    8  C   UNL     1      63.956   7.894   5.544  1.00  0.00    -0.007 A 
HETATM    9  C   UNL     1      63.232   6.752   5.919  1.00  0.00     0.014 A 
HETATM   10  C   UNL     1      63.874   5.638   6.462  1.00  0.00     0.001 A 
HETATM   11  C   UNL     1      65.249   5.656   6.666  1.00  0.00     0.000 A 
HETATM   12  C   UNL     1      65.985   6.789   6.327  1.00  0.00     0.001 A 
HETATM   13  C   UNL     1      65.343   7.899   5.769  1.00  0.00     0.014 A 
ENDBRANCH   4   8
BRANCH   1  14
HETATM   14  C   UNL     1      62.740   8.294   2.453  1.00  0.00     0.273 C 
BRANCH  14  15
HETATM   15  N   UNL     1      61.640   7.361   2.630  1.00  0.00    -0.075 N 
HETATM   16  H   UNL     1      62.008   6.450   2.904  1.00  0.00     0.274 HD
HETATM   17  H   UNL     1      61.126   7.271   1.754  1.00  0.00     0.274 HD
HETATM   18  H   UNL     1      61.014   7.707   3.357  1.00  0.00     0.274 HD
ENDBRANCH  14  15
ENDBRANCH   1  14
TORSDOF 3
ENDMDL
MODEL 8
REMARK VINA RESULT:      -4.6      1.723      2.075
REMARK  3 active torsions:
REMARK  status: ('A' for Active; 'I' for Inactive)
REMARK    1  A    between atoms: C_1  and  C_8 
REMARK    2  A    between atoms: C_4  and  C_7 
REMARK    3  A    between atoms: C_8  and  N_9 
ROOT
HETATM    1  C   UNL     1      65.081   7.502   4.438  1.00  0.00     0.028 A 
HETATM    2  N   UNL     1      64.057   9.340   5.324  1.00  0.00    -0.260 N 
ATOM      3  HN  UNL     1      63.383  10.080   5.523  1.00  0.00     0.195 HD
HETATM    4  C   UNL     1      63.919   8.354   4.419  1.00  0.00     0.075 A 
HETATM    5  O   UNL     1      65.275   9.159   5.929  1.00  0.00    -0.242 OA
HETATM    6  C   UNL     1      65.886   8.069   5.407  1.00  0.00     0.083 A 
HETATM    7  C   UNL     1      67.211   7.752   5.976  1.00  0.00     0.079 C 
ENDROOT
BRANCH   4   8
HETATM    8  C   UNL     1      62.695   8.269   3.610  1.00  0.00    -0.007 A 
HETATM    9  C   UNL     1      62.547   8.989   2.415  1.00  0.00     0.014 A 
HETATM   10  C   UNL     1      61.394   8.866   1.637  1.00  0.00     0.001 A 
HETATM   11  C   UNL     1      60.355   8.041   2.054  1.00  0.00     0.000 A 
HETATM   12  C   UNL     1      60.468   7.337   3.251  1.00  0.00     0.001 A 
HETATM   13  C   UNL     1      61.629   7.449   4.021  1.00  0.00     0.014 A 
ENDBRANCH   4   8
BRANCH   1  14
HETATM   14  C   UNL     1      65.399   6.299   3.624  1.00  0.00     0.273 C 
BRANCH  14  15
HETATM   15  N   UNL     1      64.669   5.152   4.136  1.00  0.00    -0.075 N 
HETATM   16  H   UNL     1      63.787   5.463   4.541  1.00  0.00     0.274 HD
HETATM   17  H   UNL     1      65.227   4.685   4.851  1.00  0.00     0.274 HD
HETATM   18  H   UNL     1      64.482   4.500   3.373  1.00  0.00     0.274 HD
ENDBRANCH  14  15
ENDBRANCH   1  14
TORSDOF 3
ENDMDL
MODEL 9
REMARK VINA RESULT:      -4.4      1.937      5.974
REMARK  3 active torsions:
REMARK  status: ('A' for Active; 'I' for Inactive)
REMARK    1  A    between atoms: C_1  and  C_8 
REMARK    2  A    between atoms: C_4  and  C_7 
REMARK    3  A    between atoms: C_8  and  N_9 
ROOT
HETATM    1  C   UNL     1      65.300   6.611   5.014  1.00  0.00     0.028 A 
HETATM    2  N   UNL     1      64.425   7.331   6.996  1.00  0.00    -0.260 N 
ATOM      3  HN  UNL     1      64.256   7.479   7.992  1.00  0.00     0.195 HD
HETATM    4  C   UNL     1      65.381   6.556   6.452  1.00  0.00     0.075 A 
HETATM    5  O   UNL     1      63.721   7.884   5.957  1.00  0.00    -0.242 OA
HETATM    6  C   UNL     1      64.238   7.461   4.779  1.00  0.00     0.083 A 
HETATM    7  C   UNL     1      63.574   7.990   3.570  1.00  0.00     0.079 C 
ENDROOT
BRANCH   4   8
HETATM    8  C   UNL     1      66.319   5.831   7.321  1.00  0.00    -0.007 A 
HETATM    9  C   UNL     1      67.142   6.500   8.240  1.00  0.00     0.014 A 
HETATM   10  C   UNL     1      67.999   5.794   9.086  1.00  0.00     0.001 A 
HETATM   11  C   UNL     1      68.069   4.408   9.011  1.00  0.00     0.000 A 
HETATM   12  C   UNL     1      67.282   3.724   8.088  1.00  0.00     0.001 A 
HETATM   13  C   UNL     1      66.412   4.430   7.251  1.00  0.00     0.014 A 
ENDBRANCH   4   8
BRANCH   1  14
HETATM   14  C   UNL     1      66.124   5.927   3.982  1.00  0.00     0.273 C 
BRANCH  14  15
HETATM   15  N   UNL     1      67.405   6.601   3.850  1.00  0.00    -0.075 N 
HETATM   16  H   UNL     1      67.639   7.063   4.728  1.00  0.00     0.274 HD
HETATM   17  H   UNL     1      67.348   7.295   3.104  1.00  0.00     0.274 HD
HETATM   18  H   UNL     1      68.127   5.917   3.622  1.00  0.00     0.274 HD
ENDBRANCH  14  15
ENDBRANCH   1  14
TORSDOF 3
ENDMDL
