MODEL 1
REMARK VINA RESULT:      -5.3      0.000      0.000
REMARK  1 active torsions:
REMARK  status: ('A' for Active; 'I' for Inactive)
REMARK    1  A    between atoms: C_1  and  C_5 
ROOT
HETATM    1  C   UNL     1      62.712   9.692   4.344  1.00  0.00     0.059 A 
HETATM    2  C   UNL     1      63.782   8.711   4.385  1.00  0.00     0.000 A 
HETATM    3  C   UNL     1      61.725   9.318   3.451  1.00  0.00     0.069 A 
HETATM    4  S   UNL     1      62.049   7.841   2.673  1.00  0.00    -0.100 SA
HETATM    5  C   UNL     1      63.537   7.645   3.511  1.00  0.00     0.016 A 
HETATM    6  C   UNL     1      64.984   8.671   5.143  1.00  0.00     0.037 A 
HETATM    7  C   UNL     1      64.437   6.568   3.376  1.00  0.00     0.021 A 
HETATM    8  C   UNL     1      65.876   7.604   5.008  1.00  0.00     0.035 A 
HETATM    9  C   UNL     1      65.608   6.562   4.136  1.00  0.00     0.025 A 
HETATM   10 CL   UNL     1      67.324   7.584   5.940  1.00  0.00    -0.084 Cl
ENDROOT
BRANCH   1  11
HETATM   11  C   UNL     1      62.648  10.920   5.124  1.00  0.00     0.210 C 
HETATM   12  O   UNL     1      63.119  11.088   6.239  1.00  0.00    -0.644 OA
HETATM   13  O   UNL     1      61.997  11.941   4.517  1.00  0.00    -0.644 OA
ENDBRANCH   1  11
TORSDOF 1
ENDMDL
MODEL 2
REMARK VINA RESULT:      -5.3      3.142      4.135
REMARK  1 active torsions:
REMARK  status: ('A' for Active; 'I' for Inactive)
REMARK    1  A    between atoms: C_1  and  C_5 
ROOT
HETATM    1  C   UNL     1      63.271   7.302   4.527  1.00  0.00     0.059 A 
HETATM    2  C   UNL     1      62.823   8.113   3.407  1.00  0.00     0.000 A 
HETATM    3  C   UNL     1      63.462   5.986   4.145  1.00  0.00     0.069 A 
HETATM    4  S   UNL     1      63.121   5.708   2.503  1.00  0.00    -0.100 SA
HETATM    5  C   UNL     1      62.700   7.354   2.238  1.00  0.00     0.016 A 
HETATM    6  C   UNL     1      62.505   9.496   3.325  1.00  0.00     0.037 A 
HETATM    7  C   UNL     1      62.280   7.924   1.018  1.00  0.00     0.021 A 
HETATM    8  C   UNL     1      62.087  10.060   2.116  1.00  0.00     0.035 A 
HETATM    9  C   UNL     1      61.976   9.285   0.974  1.00  0.00     0.025 A 
HETATM   10 CL   UNL     1      61.709  11.738   2.047  1.00  0.00    -0.084 Cl
ENDROOT
BRANCH   1  11
HETATM   11  C   UNL     1      63.501   7.773   5.885  1.00  0.00     0.210 C 
HETATM   12  O   UNL     1      62.736   7.644   6.829  1.00  0.00    -0.644 OA
HETATM   13  O   UNL     1      64.685   8.404   6.071  1.00  0.00    -0.644 OA
ENDBRANCH   1  11
TORSDOF 1
ENDMDL
MODEL 3
REMARK VINA RESULT:      -5.1      2.856      3.759
REMARK  1 active torsions:
REMARK  status: ('A' for Active; 'I' for Inactive)
REMARK    1  A    between atoms: C_1  and  C_5 
ROOT
HETATM    1  C   UNL     1      63.065   9.297   4.418  1.00  0.00     0.059 A 
HETATM    2  C   UNL     1      62.852   8.658   3.130  1.00  0.00     0.000 A 
HETATM    3  C   UNL     1      62.521  10.568   4.440  1.00  0.00     0.069 A 
HETATM    4  S   UNL     1      61.776  11.005   2.976  1.00  0.00    -0.100 SA
HETATM    5  C   UNL     1      62.156   9.494   2.249  1.00  0.00     0.016 A 
HETATM    6  C   UNL     1      63.228   7.373   2.653  1.00  0.00     0.037 A 
HETATM    7  C   UNL     1      61.832   9.091   0.937  1.00  0.00     0.021 A 
HETATM    8  C   UNL     1      62.908   6.975   1.352  1.00  0.00     0.035 A 
HETATM    9  C   UNL     1      62.216   7.822   0.501  1.00  0.00     0.025 A 
HETATM   10 CL   UNL     1      63.376   5.412   0.801  1.00  0.00    -0.084 Cl
ENDROOT
BRANCH   1  11
HETATM   11  C   UNL     1      63.753   8.711   5.560  1.00  0.00     0.210 C 
HETATM   12  O   UNL     1      63.291   7.883   6.330  1.00  0.00    -0.644 OA
HETATM   13  O   UNL     1      65.019   9.156   5.744  1.00  0.00    -0.644 OA
ENDBRANCH   1  11
TORSDOF 1
ENDMDL
MODEL 4
REMARK VINA RESULT:      -5.0      2.928      3.799
REMARK  1 active torsions:
REMARK  status: ('A' for Active; 'I' for Inactive)
REMARK    1  A    between atoms: C_1  and  C_5 
ROOT
HETATM    1  C   UNL     1      63.280   9.524   4.601  1.00  0.00     0.059 A 
HETATM    2  C   UNL     1      62.766   8.733   3.496  1.00  0.00     0.000 A 
HETATM    3  C   UNL     1      64.380   8.918   5.179  1.00  0.00     0.069 A 
HETATM    4  S   UNL     1      64.801   7.446   4.440  1.00  0.00    -0.100 SA
HETATM    5  C   UNL     1      63.515   7.565   3.306  1.00  0.00     0.016 A 
HETATM    6  C   UNL     1      61.668   8.955   2.619  1.00  0.00     0.037 A 
HETATM    7  C   UNL     1      63.206   6.637   2.290  1.00  0.00     0.021 A 
HETATM    8  C   UNL     1      61.363   8.034   1.614  1.00  0.00     0.035 A 
HETATM    9  C   UNL     1      62.122   6.887   1.448  1.00  0.00     0.025 A 
HETATM   10 CL   UNL     1      60.027   8.330   0.568  1.00  0.00    -0.084 Cl
ENDROOT
BRANCH   1  11
HETATM   11  C   UNL     1      62.738  10.792   5.068  1.00  0.00     0.210 C 
HETATM   12  O   UNL     1      62.000  11.534   4.438  1.00  0.00    -0.644 OA
HETATM   13  O   UNL     1      63.115  11.138   6.322  1.00  0.00    -0.644 OA
ENDBRANCH   1  11
TORSDOF 1
ENDMDL
MODEL 5
REMARK VINA RESULT:      -4.6      3.145      4.337
REMARK  1 active torsions:
REMARK  status: ('A' for Active; 'I' for Inactive)
REMARK    1  A    between atoms: C_1  and  C_5 
ROOT
HETATM    1  C   UNL     1      64.656   7.323   5.579  1.00  0.00     0.059 A 
HETATM    2  C   UNL     1      63.514   7.863   4.861  1.00  0.00     0.000 A 
HETATM    3  C   UNL     1      64.372   6.073   6.101  1.00  0.00     0.069 A 
HETATM    4  S   UNL     1      62.794   5.545   5.755  1.00  0.00    -0.100 SA
HETATM    5  C   UNL     1      62.426   6.981   4.885  1.00  0.00     0.016 A 
HETATM    6  C   UNL     1      63.342   9.094   4.171  1.00  0.00     0.037 A 
HETATM    7  C   UNL     1      61.203   7.288   4.254  1.00  0.00     0.021 A 
HETATM    8  C   UNL     1      62.129   9.397   3.547  1.00  0.00     0.035 A 
HETATM    9  C   UNL     1      61.070   8.505   3.585  1.00  0.00     0.025 A 
HETATM   10 CL   UNL     1      61.951  10.895   2.718  1.00  0.00    -0.084 Cl
ENDROOT
BRANCH   1  11
HETATM   11  C   UNL     1      65.945   7.977   5.750  1.00  0.00     0.210 C 
HETATM   12  O   UNL     1      66.167   8.955   6.447  1.00  0.00    -0.644 OA
HETATM   13  O   UNL     1      66.960   7.413   5.053  1.00  0.00    -0.644 OA
ENDBRANCH   1  11
TORSDOF 1
ENDMDL
MODEL 6
REMARK VINA RESULT:      -4.5      2.769      3.710
REMARK  1 active torsions:
REMARK  status: ('A' for Active; 'I' for Inactive)
REMARK    1  A    between atoms: C_1  and  C_5 
ROOT
HETATM    1  C   UNL     1      64.951   7.301   5.150  1.00  0.00     0.059 A 
HETATM    2  C   UNL     1      65.955   6.561   5.896  1.00  0.00     0.000 A 
HETATM    3  C   UNL     1      64.849   6.833   3.852  1.00  0.00     0.069 A 
HETATM    4  S   UNL     1      65.913   5.551   3.516  1.00  0.00    -0.100 SA
HETATM    5  C   UNL     1      66.557   5.572   5.110  1.00  0.00     0.016 A 
HETATM    6  C   UNL     1      66.397   6.686   7.242  1.00  0.00     0.037 A 
HETATM    7  C   UNL     1      67.563   4.724   5.618  1.00  0.00     0.021 A 
HETATM    8  C   UNL     1      67.395   5.846   7.743  1.00  0.00     0.035 A 
HETATM    9  C   UNL     1      67.973   4.874   6.943  1.00  0.00     0.025 A 
HETATM   10 CL   UNL     1      67.910   6.020   9.377  1.00  0.00    -0.084 Cl
ENDROOT
BRANCH   1  11
HETATM   11  C   UNL     1      64.138   8.395   5.663  1.00  0.00     0.210 C 
HETATM   12  O   UNL     1      63.024   8.293   6.154  1.00  0.00    -0.644 OA
HETATM   13  O   UNL     1      64.711   9.617   5.564  1.00  0.00    -0.644 OA
ENDBRANCH   1  11
TORSDOF 1
ENDMDL
MODEL 7
REMARK VINA RESULT:      -4.5      2.936      3.114
REMARK  1 active torsions:
REMARK  status: ('A' for Active; 'I' for Inactive)
REMARK    1  A    between atoms: C_1  and  C_5 
ROOT
HETATM    1  C   UNL     1      62.001   9.614   2.307  1.00  0.00     0.059 A 
HETATM    2  C   UNL     1      61.966   8.342   3.007  1.00  0.00     0.000 A 
HETATM    3  C   UNL     1      62.146   9.429   0.943  1.00  0.00     0.069 A 
HETATM    4  S   UNL     1      62.241   7.792   0.495  1.00  0.00    -0.100 SA
HETATM    5  C   UNL     1      62.089   7.263   2.124  1.00  0.00     0.016 A 
HETATM    6  C   UNL     1      61.831   8.042   4.391  1.00  0.00     0.037 A 
HETATM    7  C   UNL     1      62.082   5.926   2.572  1.00  0.00     0.021 A 
HETATM    8  C   UNL     1      61.826   6.717   4.834  1.00  0.00     0.035 A 
HETATM    9  C   UNL     1      61.948   5.668   3.937  1.00  0.00     0.025 A 
HETATM   10 CL   UNL     1      61.661   6.384   6.515  1.00  0.00    -0.084 Cl
ENDROOT
BRANCH   1  11
HETATM   11  C   UNL     1      61.900  10.931   2.920  1.00  0.00     0.210 C 
HETATM   12  O   UNL     1      61.777  11.160   4.114  1.00  0.00    -0.644 OA
HETATM   13  O   UNL     1      61.951  11.965   2.047  1.00  0.00    -0.644 OA
ENDBRANCH   1  11
TORSDOF 1
ENDMDL
MODEL 8
REMARK VINA RESULT:      -4.2      4.093      5.110
REMARK  1 active torsions:
REMARK  status: ('A' for Active; 'I' for Inactive)
REMARK    1  A    between atoms: C_1  and  C_5 
ROOT
HETATM    1  C   UNL     1      61.963   6.858   3.139  1.00  0.00     0.059 A 
HETATM    2  C   UNL     1      62.053   8.291   3.363  1.00  0.00     0.000 A 
HETATM    3  C   UNL     1      62.311   6.152   4.277  1.00  0.00     0.069 A 
HETATM    4  S   UNL     1      62.735   7.153   5.583  1.00  0.00    -0.100 SA
HETATM    5  C   UNL     1      62.468   8.583   4.668  1.00  0.00     0.016 A 
HETATM    6  C   UNL     1      61.795   9.389   2.498  1.00  0.00     0.037 A 
HETATM    7  C   UNL     1      62.628   9.909   5.121  1.00  0.00     0.021 A 
HETATM    8  C   UNL     1      61.956  10.702   2.947  1.00  0.00     0.035 A 
HETATM    9  C   UNL     1      62.367  10.963   4.244  1.00  0.00     0.025 A 
HETATM   10 CL   UNL     1      61.636  12.012   1.876  1.00  0.00    -0.084 Cl
ENDROOT
BRANCH   1  11
HETATM   11  C   UNL     1      61.564   6.210   1.898  1.00  0.00     0.210 C 
HETATM   12  O   UNL     1      62.056   6.405   0.796  1.00  0.00    -0.644 OA
HETATM   13  O   UNL     1      60.553   5.319   2.026  1.00  0.00    -0.644 OA
ENDBRANCH   1  11
TORSDOF 1
ENDMDL
MODEL 9
REMARK VINA RESULT:      -4.1      4.423      5.843
REMARK  1 active torsions:
REMARK  status: ('A' for Active; 'I' for Inactive)
REMARK    1  A    between atoms: C_1  and  C_5 
ROOT
HETATM    1  C   UNL     1      66.706   5.762   6.701  1.00  0.00     0.059 A 
HETATM    2  C   UNL     1      65.500   6.458   6.287  1.00  0.00     0.000 A 
HETATM    3  C   UNL     1      67.838   6.400   6.229  1.00  0.00     0.069 A 
HETATM    4  S   UNL     1      67.492   7.791   5.315  1.00  0.00    -0.100 SA
HETATM    5  C   UNL     1      65.797   7.590   5.519  1.00  0.00     0.016 A 
HETATM    6  C   UNL     1      64.128   6.176   6.532  1.00  0.00     0.037 A 
HETATM    7  C   UNL     1      64.787   8.428   5.002  1.00  0.00     0.021 A 
HETATM    8  C   UNL     1      63.128   7.006   6.019  1.00  0.00     0.035 A 
HETATM    9  C   UNL     1      63.450   8.121   5.262  1.00  0.00     0.025 A 
HETATM   10 CL   UNL     1      61.475   6.639   6.333  1.00  0.00    -0.084 Cl
ENDROOT
BRANCH   1  11
HETATM   11  C   UNL     1      66.759   4.550   7.507  1.00  0.00     0.210 C 
HETATM   12  O   UNL     1      67.063   3.435   7.108  1.00  0.00    -0.644 OA
HETATM   13  O   UNL     1      66.435   4.724   8.810  1.00  0.00    -0.644 OA
ENDBRANCH   1  11
TORSDOF 1
ENDMDL
