MODEL 1
REMARK VINA RESULT:      -4.8      0.000      0.000
REMARK  2 active torsions:
REMARK  status: ('A' for Active; 'I' for Inactive)
REMARK    1  A    between atoms: C_6  and  C_11 
REMARK    2  A    between atoms: N_9  and  C_11 
ROOT
HETATM    1  C   UNL     1      62.361   9.784   3.061  1.00  0.00    -0.022 A 
HETATM    2  C   UNL     1      62.315  10.856   3.902  1.00  0.00     0.075 A 
HETATM    3  O   UNL     1      61.869  11.959   3.292  1.00  0.00    -0.350 OA
HETATM    4  C   UNL     1      62.807   8.534   3.490  1.00  0.00     0.019 A 
HETATM    5  C   UNL     1      62.713  10.753   5.234  1.00  0.00     0.038 A 
HETATM    6  C   UNL     1      63.235   8.395   4.828  1.00  0.00    -0.032 A 
HETATM    7  C   UNL     1      63.180   9.512   5.697  1.00  0.00     0.011 A 
HETATM    8  C   UNL     1      61.663  11.717   1.943  1.00  0.00     0.180 C 
HETATM    9  C   UNL     1      61.843  10.195   1.738  1.00  0.00     0.068 C 
ENDROOT
BRANCH   6  10
HETATM   10  C   UNL     1      63.767   7.073   5.313  1.00  0.00     0.268 C 
BRANCH  10  11
HETATM   11  N   UNL     1      64.281   7.191   6.673  1.00  0.00    -0.075 N 
HETATM   12  H   UNL     1      63.967   8.072   7.080  1.00  0.00     0.274 HD
HETATM   13  H   UNL     1      65.301   7.170   6.654  1.00  0.00     0.274 HD
HETATM   14  H   UNL     1      63.936   6.415   7.237  1.00  0.00     0.274 HD
ENDBRANCH  10  11
ENDBRANCH   6  10
TORSDOF 2
ENDMDL
MODEL 2
REMARK VINA RESULT:      -4.6      2.367      3.259
REMARK  2 active torsions:
REMARK  status: ('A' for Active; 'I' for Inactive)
REMARK    1  A    between atoms: C_6  and  C_11 
REMARK    2  A    between atoms: N_9  and  C_11 
ROOT
HETATM    1  C   UNL     1      62.212   9.115   2.304  1.00  0.00    -0.022 A 
HETATM    2  C   UNL     1      62.942   8.014   2.642  1.00  0.00     0.075 A 
HETATM    3  O   UNL     1      62.916   7.077   1.688  1.00  0.00    -0.350 OA
HETATM    4  C   UNL     1      62.094  10.208   3.162  1.00  0.00     0.019 A 
HETATM    5  C   UNL     1      63.606   7.929   3.865  1.00  0.00     0.038 A 
HETATM    6  C   UNL     1      62.739  10.152   4.417  1.00  0.00    -0.032 A 
HETATM    7  C   UNL     1      63.499   9.007   4.759  1.00  0.00     0.011 A 
HETATM    8  C   UNL     1      62.075   7.460   0.655  1.00  0.00     0.180 C 
HETATM    9  C   UNL     1      61.666   8.923   0.943  1.00  0.00     0.068 C 
ENDROOT
BRANCH   6  10
HETATM   10  C   UNL     1      62.595  11.294   5.387  1.00  0.00     0.268 C 
BRANCH  10  11
HETATM   11  N   UNL     1      63.761  11.380   6.259  1.00  0.00    -0.075 N 
HETATM   12  H   UNL     1      63.495  11.821   7.140  1.00  0.00     0.274 HD
HETATM   13  H   UNL     1      64.485  11.937   5.805  1.00  0.00     0.274 HD
HETATM   14  H   UNL     1      64.119  10.443   6.443  1.00  0.00     0.274 HD
ENDBRANCH  10  11
ENDBRANCH   6  10
TORSDOF 2
ENDMDL
MODEL 3
REMARK VINA RESULT:      -4.6      2.008      3.316
REMARK  2 active torsions:
REMARK  status: ('A' for Active; 'I' for Inactive)
REMARK    1  A    between atoms: C_6  and  C_11 
REMARK    2  A    between atoms: N_9  and  C_11 
ROOT
HETATM    1  C   UNL     1      62.701   9.476   3.799  1.00  0.00    -0.022 A 
HETATM    2  C   UNL     1      62.178  10.582   3.198  1.00  0.00     0.075 A 
HETATM    3  O   UNL     1      62.121  11.630   4.028  1.00  0.00    -0.350 OA
HETATM    4  C   UNL     1      62.840   8.268   3.117  1.00  0.00     0.019 A 
HETATM    5  C   UNL     1      61.757  10.558   1.870  1.00  0.00     0.038 A 
HETATM    6  C   UNL     1      62.409   8.198   1.774  1.00  0.00    -0.032 A 
HETATM    7  C   UNL     1      61.871   9.353   1.156  1.00  0.00     0.011 A 
HETATM    8  C   UNL     1      62.531  11.263   5.300  1.00  0.00     0.180 C 
HETATM    9  C   UNL     1      63.086   9.824   5.184  1.00  0.00     0.068 C 
ENDROOT
BRANCH   6  10
HETATM   10  C   UNL     1      62.500   6.898   1.022  1.00  0.00     0.268 C 
BRANCH  10  11
HETATM   11  N   UNL     1      63.600   6.085   1.529  1.00  0.00    -0.075 N 
HETATM   12  H   UNL     1      63.670   6.200   2.539  1.00  0.00     0.274 HD
HETATM   13  H   UNL     1      64.472   6.382   1.090  1.00  0.00     0.274 HD
HETATM   14  H   UNL     1      63.426   5.103   1.310  1.00  0.00     0.274 HD
ENDBRANCH  10  11
ENDBRANCH   6  10
TORSDOF 2
ENDMDL
MODEL 4
REMARK VINA RESULT:      -4.4      2.714      4.057
REMARK  2 active torsions:
REMARK  status: ('A' for Active; 'I' for Inactive)
REMARK    1  A    between atoms: C_6  and  C_11 
REMARK    2  A    between atoms: N_9  and  C_11 
ROOT
HETATM    1  C   UNL     1      64.196   8.065   4.246  1.00  0.00    -0.022 A 
HETATM    2  C   UNL     1      64.130   9.148   5.072  1.00  0.00     0.075 A 
HETATM    3  O   UNL     1      65.151   9.189   5.934  1.00  0.00    -0.350 OA
HETATM    4  C   UNL     1      63.223   7.821   3.277  1.00  0.00     0.019 A 
HETATM    5  C   UNL     1      63.084  10.065   4.986  1.00  0.00     0.038 A 
HETATM    6  C   UNL     1      62.138   8.719   3.171  1.00  0.00    -0.032 A 
HETATM    7  C   UNL     1      62.079   9.844   4.029  1.00  0.00     0.011 A 
HETATM    8  C   UNL     1      65.945   8.061   5.800  1.00  0.00     0.180 C 
HETATM    9  C   UNL     1      65.429   7.308   4.552  1.00  0.00     0.068 C 
ENDROOT
BRANCH   6  10
HETATM   10  C   UNL     1      61.046   8.463   2.168  1.00  0.00     0.268 C 
BRANCH  10  11
HETATM   11  N   UNL     1      59.785   8.174   2.842  1.00  0.00    -0.075 N 
HETATM   12  H   UNL     1      59.251   7.501   2.291  1.00  0.00     0.274 HD
HETATM   13  H   UNL     1      59.247   9.035   2.941  1.00  0.00     0.274 HD
HETATM   14  H   UNL     1      59.973   7.783   3.765  1.00  0.00     0.274 HD
ENDBRANCH  10  11
ENDBRANCH   6  10
TORSDOF 2
ENDMDL
MODEL 5
REMARK VINA RESULT:      -4.4      2.721      3.844
REMARK  2 active torsions:
REMARK  status: ('A' for Active; 'I' for Inactive)
REMARK    1  A    between atoms: C_6  and  C_11 
REMARK    2  A    between atoms: N_9  and  C_11 
ROOT
HETATM    1  C   UNL     1      62.349  10.135   3.604  1.00  0.00    -0.022 A 
HETATM    2  C   UNL     1      63.035   9.239   4.369  1.00  0.00     0.075 A 
HETATM    3  O   UNL     1      63.348   9.735   5.571  1.00  0.00    -0.350 OA
HETATM    4  C   UNL     1      61.934   9.827   2.308  1.00  0.00     0.019 A 
HETATM    5  C   UNL     1      63.357   7.971   3.891  1.00  0.00     0.038 A 
HETATM    6  C   UNL     1      62.256   8.557   1.782  1.00  0.00    -0.032 A 
HETATM    7  C   UNL     1      62.965   7.631   2.585  1.00  0.00     0.011 A 
HETATM    8  C   UNL     1      62.958  11.062   5.664  1.00  0.00     0.180 C 
HETATM    9  C   UNL     1      62.129  11.366   4.394  1.00  0.00     0.068 C 
ENDROOT
BRANCH   6  10
HETATM   10  C   UNL     1      61.866   8.208   0.371  1.00  0.00     0.268 C 
BRANCH  10  11
HETATM   11  N   UNL     1      60.474   7.777   0.312  1.00  0.00    -0.075 N 
HETATM   12  H   UNL     1      60.399   6.947  -0.276  1.00  0.00     0.274 HD
HETATM   13  H   UNL     1      59.903   8.526  -0.081  1.00  0.00     0.274 HD
HETATM   14  H   UNL     1      60.145   7.557   1.253  1.00  0.00     0.274 HD
ENDBRANCH  10  11
ENDBRANCH   6  10
TORSDOF 2
ENDMDL
MODEL 6
REMARK VINA RESULT:      -4.3      1.169      2.034
REMARK  2 active torsions:
REMARK  status: ('A' for Active; 'I' for Inactive)
REMARK    1  A    between atoms: C_6  and  C_11 
REMARK    2  A    between atoms: N_9  and  C_11 
ROOT
HETATM    1  C   UNL     1      62.362   9.892   3.799  1.00  0.00    -0.022 A 
HETATM    2  C   UNL     1      62.397   9.323   2.561  1.00  0.00     0.075 A 
HETATM    3  O   UNL     1      62.063  10.188   1.597  1.00  0.00    -0.350 OA
HETATM    4  C   UNL     1      62.665   9.164   4.950  1.00  0.00     0.019 A 
HETATM    5  C   UNL     1      62.737   7.984   2.385  1.00  0.00     0.038 A 
HETATM    6  C   UNL     1      62.997   7.798   4.814  1.00  0.00    -0.032 A 
HETATM    7  C   UNL     1      63.036   7.216   3.524  1.00  0.00     0.011 A 
HETATM    8  C   UNL     1      61.688  11.405   2.146  1.00  0.00     0.180 C 
HETATM    9  C   UNL     1      62.009  11.321   3.657  1.00  0.00     0.068 C 
ENDROOT
BRANCH   6  10
HETATM   10  C   UNL     1      63.283   6.969   6.037  1.00  0.00     0.268 C 
BRANCH  10  11
HETATM   11  N   UNL     1      64.525   7.398   6.672  1.00  0.00    -0.075 N 
HETATM   12  H   UNL     1      65.147   6.597   6.778  1.00  0.00     0.274 HD
HETATM   13  H   UNL     1      64.318   7.793   7.590  1.00  0.00     0.274 HD
HETATM   14  H   UNL     1      64.978   8.105   6.093  1.00  0.00     0.274 HD
ENDBRANCH  10  11
ENDBRANCH   6  10
TORSDOF 2
ENDMDL
MODEL 7
REMARK VINA RESULT:      -4.1      2.579      3.348
REMARK  2 active torsions:
REMARK  status: ('A' for Active; 'I' for Inactive)
REMARK    1  A    between atoms: C_6  and  C_11 
REMARK    2  A    between atoms: N_9  and  C_11 
ROOT
HETATM    1  C   UNL     1      63.167   8.970   4.113  1.00  0.00    -0.022 A 
HETATM    2  C   UNL     1      64.186   9.047   5.014  1.00  0.00     0.075 A 
HETATM    3  O   UNL     1      64.095  10.133   5.789  1.00  0.00    -0.350 OA
HETATM    4  C   UNL     1      63.074   7.920   3.198  1.00  0.00     0.019 A 
HETATM    5  C   UNL     1      65.187   8.079   5.065  1.00  0.00     0.038 A 
HETATM    6  C   UNL     1      64.080   6.929   3.207  1.00  0.00    -0.032 A 
HETATM    7  C   UNL     1      65.133   7.014   4.150  1.00  0.00     0.011 A 
HETATM    8  C   UNL     1      63.029  10.924   5.391  1.00  0.00     0.180 C 
HETATM    9  C   UNL     1      62.251  10.111   4.330  1.00  0.00     0.068 C 
ENDROOT
BRANCH   6  10
HETATM   10  C   UNL     1      64.038   5.807   2.204  1.00  0.00     0.268 C 
BRANCH  10  11
HETATM   11  N   UNL     1      63.284   6.203   1.020  1.00  0.00    -0.075 N 
HETATM   12  H   UNL     1      63.401   7.203   0.860  1.00  0.00     0.274 HD
HETATM   13  H   UNL     1      62.295   5.994   1.161  1.00  0.00     0.274 HD
HETATM   14  H   UNL     1      63.628   5.687   0.209  1.00  0.00     0.274 HD
ENDBRANCH  10  11
ENDBRANCH   6  10
TORSDOF 2
ENDMDL
MODEL 8
REMARK VINA RESULT:      -3.9      3.190      5.074
REMARK  2 active torsions:
REMARK  status: ('A' for Active; 'I' for Inactive)
REMARK    1  A    between atoms: C_6  and  C_11 
REMARK    2  A    between atoms: N_9  and  C_11 
ROOT
HETATM    1  C   UNL     1      65.043   7.977   5.727  1.00  0.00    -0.022 A 
HETATM    2  C   UNL     1      64.343   7.027   6.409  1.00  0.00     0.075 A 
HETATM    3  O   UNL     1      65.100   6.386   7.306  1.00  0.00    -0.350 OA
HETATM    4  C   UNL     1      64.448   8.756   4.736  1.00  0.00     0.019 A 
HETATM    5  C   UNL     1      62.995   6.789   6.147  1.00  0.00     0.038 A 
HETATM    6  C   UNL     1      63.088   8.532   4.429  1.00  0.00    -0.032 A 
HETATM    7  C   UNL     1      62.366   7.547   5.145  1.00  0.00     0.011 A 
HETATM    8  C   UNL     1      66.416   6.815   7.224  1.00  0.00     0.180 C 
HETATM    9  C   UNL     1      66.425   8.019   6.253  1.00  0.00     0.068 C 
ENDROOT
BRANCH   6  10
HETATM   10  C   UNL     1      62.425   9.322   3.332  1.00  0.00     0.268 C 
BRANCH  10  11
HETATM   11  N   UNL     1      60.974   9.297   3.483  1.00  0.00    -0.075 N 
HETATM   12  H   UNL     1      60.622  10.252   3.546  1.00  0.00     0.274 HD
HETATM   13  H   UNL     1      60.730   8.787   4.333  1.00  0.00     0.274 HD
HETATM   14  H   UNL     1      60.556   8.833   2.676  1.00  0.00     0.274 HD
ENDBRANCH  10  11
ENDBRANCH   6  10
TORSDOF 2
ENDMDL
MODEL 9
REMARK VINA RESULT:      -3.8      3.160      4.512
REMARK  2 active torsions:
REMARK  status: ('A' for Active; 'I' for Inactive)
REMARK    1  A    between atoms: C_6  and  C_11 
REMARK    2  A    between atoms: N_9  and  C_11 
ROOT
HETATM    1  C   UNL     1      61.514   7.261   4.574  1.00  0.00    -0.022 A 
HETATM    2  C   UNL     1      62.372   7.714   5.531  1.00  0.00     0.075 A 
HETATM    3  O   UNL     1      62.395   6.919   6.607  1.00  0.00    -0.350 OA
HETATM    4  C   UNL     1      61.326   7.947   3.374  1.00  0.00     0.019 A 
HETATM    5  C   UNL     1      63.103   8.887   5.357  1.00  0.00     0.038 A 
HETATM    6  C   UNL     1      62.038   9.149   3.167  1.00  0.00    -0.032 A 
HETATM    7  C   UNL     1      62.930   9.610   4.164  1.00  0.00     0.011 A 
HETATM    8  C   UNL     1      61.465   5.899   6.476  1.00  0.00     0.180 C 
HETATM    9  C   UNL     1      60.920   5.986   5.031  1.00  0.00     0.068 C 
ENDROOT
BRANCH   6  10
HETATM   10  C   UNL     1      61.825   9.940   1.904  1.00  0.00     0.268 C 
BRANCH  10  11
HETATM   11  N   UNL     1      61.566  11.342   2.211  1.00  0.00    -0.075 N 
HETATM   12  H   UNL     1      60.889  11.716   1.546  1.00  0.00     0.274 HD
HETATM   13  H   UNL     1      62.436  11.871   2.145  1.00  0.00     0.274 HD
HETATM   14  H   UNL     1      61.192  11.420   3.157  1.00  0.00     0.274 HD
ENDBRANCH  10  11
ENDBRANCH   6  10
TORSDOF 2
ENDMDL
