MODEL 1
REMARK VINA RESULT:      -4.6      0.000      0.000
REMARK  2 active torsions:
REMARK  status: ('A' for Active; 'I' for Inactive)
REMARK    1  A    between atoms: C_1  and  C_2 
REMARK    2  A    between atoms: C_1  and  N_12 
ROOT
HETATM    1  C   UNL     1      62.527   8.384   2.287  1.00  0.00     0.004 A 
HETATM    2  C   UNL     1      62.801   9.647   4.293  1.00  0.00     0.105 A 
HETATM    3  C   UNL     1      62.981   8.461   3.614  1.00  0.00     0.054 A 
HETATM    4  C   UNL     1      62.212  10.740   3.705  1.00  0.00     0.105 A 
HETATM    5  O   UNL     1      63.161   9.882   5.583  1.00  0.00    -0.323 OA
HETATM    6  O   UNL     1      62.128  11.801   4.552  1.00  0.00    -0.323 OA
HETATM    7  C   UNL     1      62.693  11.237   5.752  1.00  0.00     0.352 A 
HETATM    8  C   UNL     1      61.931   9.520   1.686  1.00  0.00     0.017 A 
HETATM    9  C   UNL     1      61.774  10.712   2.401  1.00  0.00     0.040 A 
ENDROOT
BRANCH   1  10
HETATM   10  C   UNL     1      62.664   7.106   1.534  1.00  0.00     0.104 C 
HETATM   11  S   UNL     1      63.728   5.869   1.898  1.00  0.00    -0.060 SA
BRANCH  10  12
HETATM   12  N   UNL     1      61.847   6.949   0.442  1.00  0.00    -0.390 N 
HETATM   13  H   UNL     1      61.505   7.739  -0.035  1.00  0.00     0.157 HD
HETATM   14  H   UNL     1      61.603   6.046   0.135  1.00  0.00     0.157 HD
ENDBRANCH  10  12
ENDBRANCH   1  10
TORSDOF 2
ENDMDL
MODEL 2
REMARK VINA RESULT:      -4.6      3.077      4.015
REMARK  2 active torsions:
REMARK  status: ('A' for Active; 'I' for Inactive)
REMARK    1  A    between atoms: C_1  and  C_2 
REMARK    2  A    between atoms: C_1  and  N_12 
ROOT
HETATM    1  C   UNL     1      62.975   8.763   3.721  1.00  0.00     0.004 A 
HETATM    2  C   UNL     1      64.838   8.622   5.204  1.00  0.00     0.105 A 
HETATM    3  C   UNL     1      63.717   9.304   4.784  1.00  0.00     0.054 A 
HETATM    4  C   UNL     1      65.231   7.438   4.626  1.00  0.00     0.105 A 
HETATM    5  O   UNL     1      65.676   9.015   6.201  1.00  0.00    -0.323 OA
HETATM    6  O   UNL     1      66.364   6.938   5.187  1.00  0.00    -0.323 OA
HETATM    7  C   UNL     1      66.664   7.963   6.155  1.00  0.00     0.352 A 
HETATM    8  C   UNL     1      63.381   7.538   3.138  1.00  0.00     0.017 A 
HETATM    9  C   UNL     1      64.519   6.866   3.596  1.00  0.00     0.040 A 
ENDROOT
BRANCH   1  10
HETATM   10  C   UNL     1      61.782   9.494   3.208  1.00  0.00     0.104 C 
HETATM   11  S   UNL     1      61.796  11.007   2.498  1.00  0.00    -0.060 SA
BRANCH  10  12
HETATM   12  N   UNL     1      60.571   8.863   3.350  1.00  0.00    -0.390 N 
HETATM   13  H   UNL     1      59.997   8.716   2.564  1.00  0.00     0.157 HD
HETATM   14  H   UNL     1      60.276   8.557   4.238  1.00  0.00     0.157 HD
ENDBRANCH  10  12
ENDBRANCH   1  10
TORSDOF 2
ENDMDL
MODEL 3
REMARK VINA RESULT:      -4.6      2.677      3.394
REMARK  2 active torsions:
REMARK  status: ('A' for Active; 'I' for Inactive)
REMARK    1  A    between atoms: C_1  and  C_2 
REMARK    2  A    between atoms: C_1  and  N_12 
ROOT
HETATM    1  C   UNL     1      62.893   8.105   4.600  1.00  0.00     0.004 A 
HETATM    2  C   UNL     1      62.315  10.240   3.706  1.00  0.00     0.105 A 
HETATM    3  C   UNL     1      62.639   9.472   4.804  1.00  0.00     0.054 A 
HETATM    4  C   UNL     1      62.253   9.712   2.439  1.00  0.00     0.105 A 
HETATM    5  O   UNL     1      62.020  11.568   3.729  1.00  0.00    -0.323 OA
HETATM    6  O   UNL     1      61.912  10.640   1.506  1.00  0.00    -0.323 OA
HETATM    7  C   UNL     1      61.725  11.804   2.336  1.00  0.00     0.352 A 
HETATM    8  C   UNL     1      62.836   7.572   3.290  1.00  0.00     0.017 A 
HETATM    9  C   UNL     1      62.516   8.383   2.196  1.00  0.00     0.040 A 
ENDROOT
BRANCH   1  10
HETATM   10  C   UNL     1      63.202   7.232   5.767  1.00  0.00     0.104 C 
HETATM   11  S   UNL     1      62.390   5.830   6.178  1.00  0.00    -0.060 SA
BRANCH  10  12
HETATM   12  N   UNL     1      64.238   7.632   6.574  1.00  0.00    -0.390 N 
HETATM   13  H   UNL     1      64.670   8.505   6.424  1.00  0.00     0.157 HD
HETATM   14  H   UNL     1      64.549   7.049   7.303  1.00  0.00     0.157 HD
ENDBRANCH  10  12
ENDBRANCH   1  10
TORSDOF 2
ENDMDL
MODEL 4
REMARK VINA RESULT:      -4.5      1.513      2.276
REMARK  2 active torsions:
REMARK  status: ('A' for Active; 'I' for Inactive)
REMARK    1  A    between atoms: C_1  and  C_2 
REMARK    2  A    between atoms: C_1  and  N_12 
ROOT
HETATM    1  C   UNL     1      62.154   8.449   2.339  1.00  0.00     0.004 A 
HETATM    2  C   UNL     1      62.280  10.174   3.982  1.00  0.00     0.105 A 
HETATM    3  C   UNL     1      61.738   9.708   2.803  1.00  0.00     0.054 A 
HETATM    4  C   UNL     1      63.188   9.441   4.707  1.00  0.00     0.105 A 
HETATM    5  O   UNL     1      62.004  11.375   4.558  1.00  0.00    -0.323 OA
HETATM    6  O   UNL     1      63.598  10.088   5.830  1.00  0.00    -0.323 OA
HETATM    7  C   UNL     1      62.876  11.329   5.708  1.00  0.00     0.352 A 
HETATM    8  C   UNL     1      63.082   7.696   3.098  1.00  0.00     0.017 A 
HETATM    9  C   UNL     1      63.604   8.195   4.296  1.00  0.00     0.040 A 
ENDROOT
BRANCH   1  10
HETATM   10  C   UNL     1      61.625   7.929   1.046  1.00  0.00     0.104 C 
HETATM   11  S   UNL     1      60.030   7.993   0.549  1.00  0.00    -0.060 SA
BRANCH  10  12
HETATM   12  N   UNL     1      62.535   7.338   0.206  1.00  0.00    -0.390 N 
HETATM   13  H   UNL     1      62.228   6.882  -0.611  1.00  0.00     0.157 HD
HETATM   14  H   UNL     1      63.496   7.370   0.419  1.00  0.00     0.157 HD
ENDBRANCH  10  12
ENDBRANCH   1  10
TORSDOF 2
ENDMDL
MODEL 5
REMARK VINA RESULT:      -4.4      2.387      3.124
REMARK  2 active torsions:
REMARK  status: ('A' for Active; 'I' for Inactive)
REMARK    1  A    between atoms: C_1  and  C_2 
REMARK    2  A    between atoms: C_1  and  N_12 
ROOT
HETATM    1  C   UNL     1      62.142   8.644   3.363  1.00  0.00     0.004 A 
HETATM    2  C   UNL     1      64.245   8.013   4.298  1.00  0.00     0.105 A 
HETATM    3  C   UNL     1      63.228   7.753   3.404  1.00  0.00     0.054 A 
HETATM    4  C   UNL     1      64.228   9.113   5.122  1.00  0.00     0.105 A 
HETATM    5  O   UNL     1      65.352   7.245   4.481  1.00  0.00    -0.323 OA
HETATM    6  O   UNL     1      65.322   9.175   5.926  1.00  0.00    -0.323 OA
HETATM    7  C   UNL     1      66.009   7.967   5.545  1.00  0.00     0.352 A 
HETATM    8  C   UNL     1      62.138   9.780   4.208  1.00  0.00     0.017 A 
HETATM    9  C   UNL     1      63.193  10.020   5.096  1.00  0.00     0.040 A 
ENDROOT
BRANCH   1  10
HETATM   10  C   UNL     1      61.003   8.374   2.442  1.00  0.00     0.104 C 
HETATM   11  S   UNL     1      61.096   8.283   0.775  1.00  0.00    -0.060 SA
BRANCH  10  12
HETATM   12  N   UNL     1      59.773   8.198   3.026  1.00  0.00    -0.390 N 
HETATM   13  H   UNL     1      58.974   8.610   2.624  1.00  0.00     0.157 HD
HETATM   14  H   UNL     1      59.689   7.659   3.845  1.00  0.00     0.157 HD
ENDBRANCH  10  12
ENDBRANCH   1  10
TORSDOF 2
ENDMDL
MODEL 6
REMARK VINA RESULT:      -4.3      2.996      3.466
REMARK  2 active torsions:
REMARK  status: ('A' for Active; 'I' for Inactive)
REMARK    1  A    between atoms: C_1  and  C_2 
REMARK    2  A    between atoms: C_1  and  N_12 
ROOT
HETATM    1  C   UNL     1      65.244   7.061   4.285  1.00  0.00     0.004 A 
HETATM    2  C   UNL     1      64.284   9.102   5.063  1.00  0.00     0.105 A 
HETATM    3  C   UNL     1      65.307   8.181   5.131  1.00  0.00     0.054 A 
HETATM    4  C   UNL     1      63.232   8.960   4.190  1.00  0.00     0.105 A 
HETATM    5  O   UNL     1      64.179  10.225   5.823  1.00  0.00    -0.323 OA
HETATM    6  O   UNL     1      62.334   9.976   4.291  1.00  0.00    -0.323 OA
HETATM    7  C   UNL     1      62.919  10.752   5.356  1.00  0.00     0.352 A 
HETATM    8  C   UNL     1      64.162   6.929   3.381  1.00  0.00     0.017 A 
HETATM    9  C   UNL     1      63.146   7.889   3.330  1.00  0.00     0.040 A 
ENDROOT
BRANCH   1  10
HETATM   10  C   UNL     1      66.308   6.021   4.360  1.00  0.00     0.104 C 
HETATM   11  S   UNL     1      66.053   4.373   4.485  1.00  0.00    -0.060 SA
BRANCH  10  12
HETATM   12  N   UNL     1      67.605   6.468   4.335  1.00  0.00    -0.390 N 
HETATM   13  H   UNL     1      67.819   7.376   4.653  1.00  0.00     0.157 HD
HETATM   14  H   UNL     1      68.322   5.883   4.000  1.00  0.00     0.157 HD
ENDBRANCH  10  12
ENDBRANCH   1  10
TORSDOF 2
ENDMDL
MODEL 7
REMARK VINA RESULT:      -4.3      1.923      2.749
REMARK  2 active torsions:
REMARK  status: ('A' for Active; 'I' for Inactive)
REMARK    1  A    between atoms: C_1  and  C_2 
REMARK    2  A    between atoms: C_1  and  N_12 
ROOT
HETATM    1  C   UNL     1      63.081   7.862   3.700  1.00  0.00     0.004 A 
HETATM    2  C   UNL     1      62.263   9.804   2.581  1.00  0.00     0.105 A 
HETATM    3  C   UNL     1      62.622   8.474   2.521  1.00  0.00     0.054 A 
HETATM    4  C   UNL     1      62.326  10.525   3.749  1.00  0.00     0.105 A 
HETATM    5  O   UNL     1      61.820  10.551   1.534  1.00  0.00    -0.323 OA
HETATM    6  O   UNL     1      61.932  11.815   3.584  1.00  0.00    -0.323 OA
HETATM    7  C   UNL     1      61.653  11.836   2.169  1.00  0.00     0.352 A 
HETATM    8  C   UNL     1      63.134   8.610   4.901  1.00  0.00     0.017 A 
HETATM    9  C   UNL     1      62.750   9.955   4.928  1.00  0.00     0.040 A 
ENDROOT
BRANCH   1  10
HETATM   10  C   UNL     1      63.522   6.439   3.666  1.00  0.00     0.104 C 
HETATM   11  S   UNL     1      64.199   5.659   2.353  1.00  0.00    -0.060 SA
BRANCH  10  12
HETATM   12  N   UNL     1      63.338   5.715   4.818  1.00  0.00    -0.390 N 
HETATM   13  H   UNL     1      63.725   4.812   4.899  1.00  0.00     0.157 HD
HETATM   14  H   UNL     1      62.821   6.096   5.563  1.00  0.00     0.157 HD
ENDBRANCH  10  12
ENDBRANCH   1  10
TORSDOF 2
ENDMDL
MODEL 8
REMARK VINA RESULT:      -4.2      3.195      4.015
REMARK  2 active torsions:
REMARK  status: ('A' for Active; 'I' for Inactive)
REMARK    1  A    between atoms: C_1  and  C_2 
REMARK    2  A    between atoms: C_1  and  N_12 
ROOT
HETATM    1  C   UNL     1      63.871   8.322   4.664  1.00  0.00     0.004 A 
HETATM    2  C   UNL     1      62.840   8.203   2.515  1.00  0.00     0.105 A 
HETATM    3  C   UNL     1      63.681   7.639   3.451  1.00  0.00     0.054 A 
HETATM    4  C   UNL     1      62.183   9.387   2.746  1.00  0.00     0.105 A 
HETATM    5  O   UNL     1      62.563   7.687   1.288  1.00  0.00    -0.323 OA
HETATM    6  O   UNL     1      61.411   9.765   1.693  1.00  0.00    -0.323 OA
HETATM    7  C   UNL     1      61.689   8.705   0.757  1.00  0.00     0.352 A 
HETATM    8  C   UNL     1      63.183   9.537   4.896  1.00  0.00     0.017 A 
HETATM    9  C   UNL     1      62.327  10.076   3.929  1.00  0.00     0.040 A 
ENDROOT
BRANCH   1  10
HETATM   10  C   UNL     1      64.808   7.769   5.682  1.00  0.00     0.104 C 
HETATM   11  S   UNL     1      66.476   7.780   5.581  1.00  0.00    -0.060 SA
BRANCH  10  12
HETATM   12  N   UNL     1      64.236   7.191   6.788  1.00  0.00    -0.390 N 
HETATM   13  H   UNL     1      63.734   7.745   7.430  1.00  0.00     0.157 HD
HETATM   14  H   UNL     1      64.327   6.223   6.941  1.00  0.00     0.157 HD
ENDBRANCH  10  12
ENDBRANCH   1  10
TORSDOF 2
ENDMDL
MODEL 9
REMARK VINA RESULT:      -4.2      2.931      3.934
REMARK  2 active torsions:
REMARK  status: ('A' for Active; 'I' for Inactive)
REMARK    1  A    between atoms: C_1  and  C_2 
REMARK    2  A    between atoms: C_1  and  N_12 
ROOT
HETATM    1  C   UNL     1      62.179   8.107   4.301  1.00  0.00     0.004 A 
HETATM    2  C   UNL     1      64.399   8.390   5.129  1.00  0.00     0.105 A 
HETATM    3  C   UNL     1      63.421   8.760   4.231  1.00  0.00     0.054 A 
HETATM    4  C   UNL     1      64.184   7.425   6.084  1.00  0.00     0.105 A 
HETATM    5  O   UNL     1      65.657   8.903   5.185  1.00  0.00    -0.323 OA
HETATM    6  O   UNL     1      65.279   7.211   6.861  1.00  0.00    -0.323 OA
HETATM    7  C   UNL     1      66.222   8.121   6.259  1.00  0.00     0.352 A 
HETATM    8  C   UNL     1      61.963   7.122   5.295  1.00  0.00     0.017 A 
HETATM    9  C   UNL     1      62.974   6.778   6.198  1.00  0.00     0.040 A 
ENDROOT
BRANCH   1  10
HETATM   10  C   UNL     1      61.112   8.448   3.319  1.00  0.00     0.104 C 
HETATM   11  S   UNL     1      59.787   7.497   2.950  1.00  0.00    -0.060 SA
BRANCH  10  12
HETATM   12  N   UNL     1      61.247   9.643   2.658  1.00  0.00    -0.390 N 
HETATM   13  H   UNL     1      60.448  10.167   2.419  1.00  0.00     0.157 HD
HETATM   14  H   UNL     1      62.142   9.978   2.422  1.00  0.00     0.157 HD
ENDBRANCH  10  12
ENDBRANCH   1  10
TORSDOF 2
ENDMDL
