MODEL 1
REMARK VINA RESULT:      -5.7      0.000      0.000
REMARK  2 active torsions:
REMARK  status: ('A' for Active; 'I' for Inactive)
REMARK    1  A    between atoms: C_2  and  C_7 
REMARK    2  A    between atoms: C_7  and  O_8 
ROOT
HETATM    1  C   UNL     1      63.431   9.279   4.740  1.00  0.00     0.110 A 
HETATM    2  C   UNL     1      62.849  10.545   4.934  1.00  0.00     0.001 A 
HETATM    3  C   UNL     1      63.175   8.560   3.559  1.00  0.00     0.102 A 
HETATM    4  O   UNL     1      64.230   8.820   5.759  1.00  0.00    -0.348 OA
HETATM    5  O   UNL     1      63.646   7.304   3.262  1.00  0.00    -0.348 OA
HETATM    6  C   UNL     1      65.126   6.673   5.083  1.00  0.00     0.053 C 
HETATM    7  C   UNL     1      62.052  11.092   3.914  1.00  0.00     0.012 A 
HETATM    8  C   UNL     1      65.400   8.151   5.296  1.00  0.00     0.178 C 
HETATM    9  C   UNL     1      63.792   6.447   4.394  1.00  0.00     0.178 C 
HETATM   10  C   UNL     1      61.835  10.395   2.726  1.00  0.00     0.003 A 
HETATM   11  C   UNL     1      62.398   9.134   2.549  1.00  0.00     0.040 A 
ENDROOT
BRANCH   2  12
HETATM   12  C   UNL     1      63.067  11.344   6.193  1.00  0.00     0.205 C 
BRANCH  12  13
HETATM   13  O   UNL     1      64.461  11.511   6.433  1.00  0.00    -0.396 OA
HETATM   14  H   UNL     1      64.836  12.104   5.764  1.00  0.00     0.209 HD
ENDBRANCH  12  13
ENDBRANCH   2  12
TORSDOF 2
ENDMDL
MODEL 2
REMARK VINA RESULT:      -4.8      1.144      1.301
REMARK  2 active torsions:
REMARK  status: ('A' for Active; 'I' for Inactive)
REMARK    1  A    between atoms: C_2  and  C_7 
REMARK    2  A    between atoms: C_7  and  O_8 
ROOT
HETATM    1  C   UNL     1      63.427   8.829   4.350  1.00  0.00     0.110 A 
HETATM    2  C   UNL     1      62.653   9.977   4.100  1.00  0.00     0.001 A 
HETATM    3  C   UNL     1      63.455   7.781   3.412  1.00  0.00     0.102 A 
HETATM    4  O   UNL     1      64.118   8.813   5.537  1.00  0.00    -0.348 OA
HETATM    5  O   UNL     1      64.134   6.595   3.549  1.00  0.00    -0.348 OA
HETATM    6  C   UNL     1      65.394   6.755   5.621  1.00  0.00     0.053 C 
HETATM    7  C   UNL     1      61.952  10.075   2.886  1.00  0.00     0.012 A 
HETATM    8  C   UNL     1      65.426   8.260   5.418  1.00  0.00     0.178 C 
HETATM    9  C   UNL     1      64.224   6.120   4.892  1.00  0.00     0.178 C 
HETATM   10  C   UNL     1      62.016   9.054   1.940  1.00  0.00     0.003 A 
HETATM   11  C   UNL     1      62.768   7.912   2.202  1.00  0.00     0.040 A 
ENDROOT
BRANCH   2  12
HETATM   12  C   UNL     1      62.565  11.116   5.084  1.00  0.00     0.205 C 
BRANCH  12  13
HETATM   13  O   UNL     1      62.092  12.291   4.434  1.00  0.00    -0.396 OA
HETATM   14  H   UNL     1      62.319  12.254   3.492  1.00  0.00     0.209 HD
ENDBRANCH  12  13
ENDBRANCH   2  12
TORSDOF 2
ENDMDL
MODEL 3
REMARK VINA RESULT:      -4.7      1.164      3.219
REMARK  2 active torsions:
REMARK  status: ('A' for Active; 'I' for Inactive)
REMARK    1  A    between atoms: C_2  and  C_7 
REMARK    2  A    between atoms: C_7  and  O_8 
ROOT
HETATM    1  C   UNL     1      62.980   8.914   3.528  1.00  0.00     0.110 A 
HETATM    2  C   UNL     1      62.247   9.762   2.676  1.00  0.00     0.001 A 
HETATM    3  C   UNL     1      63.338   9.351   4.816  1.00  0.00     0.102 A 
HETATM    4  O   UNL     1      63.307   7.681   3.018  1.00  0.00    -0.348 OA
HETATM    5  O   UNL     1      64.081   8.642   5.729  1.00  0.00    -0.348 OA
HETATM    6  C   UNL     1      64.484   6.457   4.746  1.00  0.00     0.053 C 
HETATM    7  C   UNL     1      61.846  11.022   3.150  1.00  0.00     0.012 A 
HETATM    8  C   UNL     1      63.189   6.630   3.973  1.00  0.00     0.178 C 
HETATM    9  C   UNL     1      65.074   7.796   5.150  1.00  0.00     0.178 C 
HETATM   10  C   UNL     1      62.166  11.435   4.442  1.00  0.00     0.003 A 
HETATM   11  C   UNL     1      62.908  10.599   5.273  1.00  0.00     0.040 A 
ENDROOT
BRANCH   2  12
HETATM   12  C   UNL     1      61.863   9.354   1.276  1.00  0.00     0.205 C 
BRANCH  12  13
HETATM   13  O   UNL     1      60.921   8.287   1.317  1.00  0.00    -0.396 OA
HETATM   14  H   UNL     1      60.133   8.568   1.808  1.00  0.00     0.209 HD
ENDBRANCH  12  13
ENDBRANCH   2  12
TORSDOF 2
ENDMDL
MODEL 4
REMARK VINA RESULT:      -4.6      1.824      3.453
REMARK  2 active torsions:
REMARK  status: ('A' for Active; 'I' for Inactive)
REMARK    1  A    between atoms: C_2  and  C_7 
REMARK    2  A    between atoms: C_7  and  O_8 
ROOT
HETATM    1  C   UNL     1      62.398   8.633   3.445  1.00  0.00     0.110 A 
HETATM    2  C   UNL     1      62.854   8.850   4.759  1.00  0.00     0.001 A 
HETATM    3  C   UNL     1      61.896   9.707   2.688  1.00  0.00     0.102 A 
HETATM    4  O   UNL     1      62.474   7.340   2.986  1.00  0.00    -0.348 OA
HETATM    5  O   UNL     1      61.386   9.626   1.415  1.00  0.00    -0.348 OA
HETATM    6  C   UNL     1      61.692   7.326   0.693  1.00  0.00     0.053 C 
HETATM    7  C   UNL     1      62.840  10.156   5.278  1.00  0.00     0.012 A 
HETATM    8  C   UNL     1      62.888   7.253   1.624  1.00  0.00     0.178 C 
HETATM    9  C   UNL     1      60.712   8.401   1.127  1.00  0.00     0.178 C 
HETATM   10  C   UNL     1      62.381  11.225   4.510  1.00  0.00     0.003 A 
HETATM   11  C   UNL     1      61.913  11.000   3.218  1.00  0.00     0.040 A 
ENDROOT
BRANCH   2  12
HETATM   12  C   UNL     1      63.374   7.730   5.623  1.00  0.00     0.205 C 
BRANCH  12  13
HETATM   13  O   UNL     1      62.755   7.772   6.905  1.00  0.00    -0.396 OA
HETATM   14  H   UNL     1      63.364   8.171   7.546  1.00  0.00     0.209 HD
ENDBRANCH  12  13
ENDBRANCH   2  12
TORSDOF 2
ENDMDL
MODEL 5
REMARK VINA RESULT:      -4.5      1.416      1.873
REMARK  2 active torsions:
REMARK  status: ('A' for Active; 'I' for Inactive)
REMARK    1  A    between atoms: C_2  and  C_7 
REMARK    2  A    between atoms: C_7  and  O_8 
ROOT
HETATM    1  C   UNL     1      62.844   8.679   3.404  1.00  0.00     0.110 A 
HETATM    2  C   UNL     1      62.609   9.874   4.110  1.00  0.00     0.001 A 
HETATM    3  C   UNL     1      62.501   8.587   2.043  1.00  0.00     0.102 A 
HETATM    4  O   UNL     1      63.406   7.653   4.124  1.00  0.00    -0.348 OA
HETATM    5  O   UNL     1      62.641   7.473   1.251  1.00  0.00    -0.348 OA
HETATM    6  C   UNL     1      63.746   5.791   2.612  1.00  0.00     0.053 C 
HETATM    7  C   UNL     1      62.072  10.976   3.423  1.00  0.00     0.012 A 
HETATM    8  C   UNL     1      64.388   6.926   3.391  1.00  0.00     0.178 C 
HETATM    9  C   UNL     1      62.461   6.235   1.938  1.00  0.00     0.178 C 
HETATM   10  C   UNL     1      61.772  10.895   2.064  1.00  0.00     0.003 A 
HETATM   11  C   UNL     1      61.990   9.703   1.377  1.00  0.00     0.040 A 
ENDROOT
BRANCH   2  12
HETATM   12  C   UNL     1      62.930  10.016   5.575  1.00  0.00     0.205 C 
BRANCH  12  13
HETATM   13  O   UNL     1      63.348  11.348   5.859  1.00  0.00    -0.396 OA
HETATM   14  H   UNL     1      63.402  11.853   5.033  1.00  0.00     0.209 HD
ENDBRANCH  12  13
ENDBRANCH   2  12
TORSDOF 2
ENDMDL
MODEL 6
REMARK VINA RESULT:      -4.5      2.334      3.847
REMARK  2 active torsions:
REMARK  status: ('A' for Active; 'I' for Inactive)
REMARK    1  A    between atoms: C_2  and  C_7 
REMARK    2  A    between atoms: C_7  and  O_8 
ROOT
HETATM    1  C   UNL     1      62.097   9.256   2.562  1.00  0.00     0.110 A 
HETATM    2  C   UNL     1      62.230  10.370   3.411  1.00  0.00     0.001 A 
HETATM    3  C   UNL     1      62.629   8.012   2.945  1.00  0.00     0.102 A 
HETATM    4  O   UNL     1      61.437   9.476   1.377  1.00  0.00    -0.348 OA
HETATM    5  O   UNL     1      62.602   6.859   2.198  1.00  0.00    -0.348 OA
HETATM    6  C   UNL     1      61.313   7.362   0.200  1.00  0.00     0.053 C 
HETATM    7  C   UNL     1      62.860  10.206   4.656  1.00  0.00     0.012 A 
HETATM    8  C   UNL     1      60.568   8.406   1.012  1.00  0.00     0.178 C 
HETATM    9  C   UNL     1      62.682   7.070   0.788  1.00  0.00     0.178 C 
HETATM   10  C   UNL     1      63.350   8.963   5.051  1.00  0.00     0.003 A 
HETATM   11  C   UNL     1      63.231   7.868   4.198  1.00  0.00     0.040 A 
ENDROOT
BRANCH   2  12
HETATM   12  C   UNL     1      61.704  11.732   3.036  1.00  0.00     0.205 C 
BRANCH  12  13
HETATM   13  O   UNL     1      62.089  12.057   1.704  1.00  0.00    -0.396 OA
HETATM   14  H   UNL     1      62.980  12.440   1.708  1.00  0.00     0.209 HD
ENDBRANCH  12  13
ENDBRANCH   2  12
TORSDOF 2
ENDMDL
MODEL 7
REMARK VINA RESULT:      -4.5      2.617      5.048
REMARK  2 active torsions:
REMARK  status: ('A' for Active; 'I' for Inactive)
REMARK    1  A    between atoms: C_2  and  C_7 
REMARK    2  A    between atoms: C_7  and  O_8 
ROOT
HETATM    1  C   UNL     1      65.417   7.188   6.538  1.00  0.00     0.110 A 
HETATM    2  C   UNL     1      66.453   6.631   7.310  1.00  0.00     0.001 A 
HETATM    3  C   UNL     1      65.678   7.643   5.233  1.00  0.00     0.102 A 
HETATM    4  O   UNL     1      64.183   7.255   7.140  1.00  0.00    -0.348 OA
HETATM    5  O   UNL     1      64.771   8.239   4.390  1.00  0.00    -0.348 OA
HETATM    6  C   UNL     1      62.627   8.181   5.532  1.00  0.00     0.053 C 
HETATM    7  C   UNL     1      67.731   6.498   6.741  1.00  0.00     0.012 A 
HETATM    8  C   UNL     1      63.110   6.938   6.257  1.00  0.00     0.178 C 
HETATM    9  C   UNL     1      63.787   9.034   5.052  1.00  0.00     0.178 C 
HETATM   10  C   UNL     1      67.976   6.910   5.433  1.00  0.00     0.003 A 
HETATM   11  C   UNL     1      66.951   7.478   4.681  1.00  0.00     0.040 A 
ENDROOT
BRANCH   2  12
HETATM   12  C   UNL     1      66.233   6.156   8.724  1.00  0.00     0.205 C 
BRANCH  12  13
HETATM   13  O   UNL     1      66.272   4.734   8.775  1.00  0.00    -0.396 OA
HETATM   14  H   UNL     1      65.509   4.406   9.276  1.00  0.00     0.209 HD
ENDBRANCH  12  13
ENDBRANCH   2  12
TORSDOF 2
ENDMDL
MODEL 8
REMARK VINA RESULT:      -4.4      2.943      4.904
REMARK  2 active torsions:
REMARK  status: ('A' for Active; 'I' for Inactive)
REMARK    1  A    between atoms: C_2  and  C_7 
REMARK    2  A    between atoms: C_7  and  O_8 
ROOT
HETATM    1  C   UNL     1      66.090   6.576   6.217  1.00  0.00     0.110 A 
HETATM    2  C   UNL     1      65.457   7.159   5.104  1.00  0.00     0.001 A 
HETATM    3  C   UNL     1      67.000   5.519   6.035  1.00  0.00     0.102 A 
HETATM    4  O   UNL     1      65.757   7.098   7.444  1.00  0.00    -0.348 OA
HETATM    5  O   UNL     1      67.655   4.838   7.033  1.00  0.00    -0.348 OA
HETATM    6  C   UNL     1      67.066   5.936   9.119  1.00  0.00     0.053 C 
HETATM    7  C   UNL     1      65.782   6.699   3.817  1.00  0.00     0.012 A 
HETATM    8  C   UNL     1      66.872   7.215   8.325  1.00  0.00     0.178 C 
HETATM    9  C   UNL     1      66.909   4.707   8.243  1.00  0.00     0.178 C 
HETATM   10  C   UNL     1      66.715   5.680   3.637  1.00  0.00     0.003 A 
HETATM   11  C   UNL     1      67.324   5.094   4.744  1.00  0.00     0.040 A 
ENDROOT
BRANCH   2  12
HETATM   12  C   UNL     1      64.453   8.275   5.246  1.00  0.00     0.205 C 
BRANCH  12  13
HETATM   13  O   UNL     1      65.084   9.439   5.771  1.00  0.00    -0.396 OA
HETATM   14  H   UNL     1      65.431   9.976   5.042  1.00  0.00     0.209 HD
ENDBRANCH  12  13
ENDBRANCH   2  12
TORSDOF 2
ENDMDL
MODEL 9
REMARK VINA RESULT:      -4.1      2.295      4.059
REMARK  2 active torsions:
REMARK  status: ('A' for Active; 'I' for Inactive)
REMARK    1  A    between atoms: C_2  and  C_7 
REMARK    2  A    between atoms: C_7  and  O_8 
ROOT
HETATM    1  C   UNL     1      61.894   7.992   3.991  1.00  0.00     0.110 A 
HETATM    2  C   UNL     1      62.105   7.015   4.981  1.00  0.00     0.001 A 
HETATM    3  C   UNL     1      60.996   7.744   2.937  1.00  0.00     0.102 A 
HETATM    4  O   UNL     1      62.611   9.156   4.129  1.00  0.00    -0.348 OA
HETATM    5  O   UNL     1      60.727   8.593   1.890  1.00  0.00    -0.348 OA
HETATM    6  C   UNL     1      61.964  10.639   2.326  1.00  0.00     0.053 C 
HETATM    7  C   UNL     1      61.375   5.816   4.921  1.00  0.00     0.012 A 
HETATM    8  C   UNL     1      61.856  10.321   3.806  1.00  0.00     0.178 C 
HETATM    9  C   UNL     1      61.839   9.387   1.477  1.00  0.00     0.178 C 
HETATM   10  C   UNL     1      60.454   5.590   3.899  1.00  0.00     0.003 A 
HETATM   11  C   UNL     1      60.264   6.554   2.912  1.00  0.00     0.040 A 
ENDROOT
BRANCH   2  12
HETATM   12  C   UNL     1      63.078   7.218   6.114  1.00  0.00     0.205 C 
BRANCH  12  13
HETATM   13  O   UNL     1      62.542   8.135   7.062  1.00  0.00    -0.396 OA
HETATM   14  H   UNL     1      63.260   8.497   7.605  1.00  0.00     0.209 HD
ENDBRANCH  12  13
ENDBRANCH   2  12
TORSDOF 2
ENDMDL
