MODEL 1
REMARK VINA RESULT:      -5.0      0.000      0.000
REMARK  2 active torsions:
REMARK  status: ('A' for Active; 'I' for Inactive)
REMARK    1  A    between atoms: C_5  and  C_8 
REMARK    2  A    between atoms: N_7  and  C_8 
ROOT
HETATM    1  O   UNL     1      64.871   9.138   5.876  1.00  0.00    -0.339 OA
HETATM    2  O   UNL     1      64.102   7.444   3.643  1.00  0.00    -0.346 OA
HETATM    3  C   UNL     1      63.860   9.452   5.001  1.00  0.00     0.102 A 
HETATM    4  C   UNL     1      63.493   8.639   3.926  1.00  0.00     0.102 A 
HETATM    5  C   UNL     1      65.691   8.063   5.380  1.00  0.00     0.178 C 
HETATM    6  C   UNL     1      64.833   6.955   4.776  1.00  0.00     0.210 C 
HETATM    7  C   UNL     1      63.180  10.647   5.236  1.00  0.00     0.039 A 
HETATM    8  C   UNL     1      62.468   9.034   3.069  1.00  0.00     0.039 A 
HETATM    9  C   UNL     1      62.146  11.038   4.383  1.00  0.00     0.003 A 
HETATM   10  C   UNL     1      61.791  10.234   3.298  1.00  0.00     0.003 A 
ENDROOT
BRANCH   5  11
HETATM   11  C   UNL     1      66.570   7.543   6.535  1.00  0.00     0.264 C 
BRANCH  11  12
HETATM   12  N   UNL     1      67.089   8.607   7.401  1.00  0.00    -0.077 N 
HETATM   13  H   UNL     1      67.099   8.283   8.368  1.00  0.00     0.274 HD
HETATM   14  H   UNL     1      66.490   9.430   7.325  1.00  0.00     0.274 HD
HETATM   15  H   UNL     1      68.037   8.848   7.113  1.00  0.00     0.274 HD
ENDBRANCH  11  12
ENDBRANCH   5  11
TORSDOF 2
ENDMDL
MODEL 2
REMARK VINA RESULT:      -4.8      1.705      4.091
REMARK  2 active torsions:
REMARK  status: ('A' for Active; 'I' for Inactive)
REMARK    1  A    between atoms: C_5  and  C_8 
REMARK    2  A    between atoms: N_7  and  C_8 
ROOT
HETATM    1  O   UNL     1      64.897   9.271   5.512  1.00  0.00    -0.339 OA
HETATM    2  O   UNL     1      63.688   7.424   3.621  1.00  0.00    -0.346 OA
HETATM    3  C   UNL     1      65.522   8.136   5.058  1.00  0.00     0.102 A 
HETATM    4  C   UNL     1      64.939   7.247   4.152  1.00  0.00     0.102 A 
HETATM    5  C   UNL     1      63.491   9.267   5.200  1.00  0.00     0.178 C 
HETATM    6  C   UNL     1      63.250   8.782   3.773  1.00  0.00     0.210 C 
HETATM    7  C   UNL     1      66.809   7.896   5.541  1.00  0.00     0.039 A 
HETATM    8  C   UNL     1      65.630   6.104   3.751  1.00  0.00     0.039 A 
HETATM    9  C   UNL     1      67.504   6.757   5.132  1.00  0.00     0.003 A 
HETATM   10  C   UNL     1      66.915   5.860   4.239  1.00  0.00     0.003 A 
ENDROOT
BRANCH   5  11
HETATM   11  C   UNL     1      62.934  10.687   5.425  1.00  0.00     0.264 C 
BRANCH  11  12
HETATM   12  N   UNL     1      63.760  11.505   6.319  1.00  0.00    -0.077 N 
HETATM   13  H   UNL     1      63.281  12.384   6.514  1.00  0.00     0.274 HD
HETATM   14  H   UNL     1      64.656  11.699   5.871  1.00  0.00     0.274 HD
HETATM   15  H   UNL     1      63.917  11.002   7.192  1.00  0.00     0.274 HD
ENDBRANCH  11  12
ENDBRANCH   5  11
TORSDOF 2
ENDMDL
MODEL 3
REMARK VINA RESULT:      -4.5      1.385      2.459
REMARK  2 active torsions:
REMARK  status: ('A' for Active; 'I' for Inactive)
REMARK    1  A    between atoms: C_5  and  C_8 
REMARK    2  A    between atoms: N_7  and  C_8 
ROOT
HETATM    1  O   UNL     1      64.317   7.223   3.772  1.00  0.00    -0.339 OA
HETATM    2  O   UNL     1      65.055   9.075   5.887  1.00  0.00    -0.346 OA
HETATM    3  C   UNL     1      63.653   8.401   4.012  1.00  0.00     0.102 A 
HETATM    4  C   UNL     1      64.007   9.289   5.031  1.00  0.00     0.102 A 
HETATM    5  C   UNL     1      65.191   6.871   4.862  1.00  0.00     0.178 C 
HETATM    6  C   UNL     1      65.958   8.092   5.363  1.00  0.00     0.210 C 
HETATM    7  C   UNL     1      62.583   8.698   3.168  1.00  0.00     0.039 A 
HETATM    8  C   UNL     1      63.272  10.458   5.225  1.00  0.00     0.039 A 
HETATM    9  C   UNL     1      61.854   9.873   3.357  1.00  0.00     0.003 A 
HETATM   10  C   UNL     1      62.196  10.752   4.386  1.00  0.00     0.003 A 
ENDROOT
BRANCH   5  11
HETATM   11  C   UNL     1      66.138   5.751   4.389  1.00  0.00     0.264 C 
BRANCH  11  12
HETATM   12  N   UNL     1      67.372   6.250   3.772  1.00  0.00    -0.077 N 
HETATM   13  H   UNL     1      67.372   6.020   2.778  1.00  0.00     0.274 HD
HETATM   14  H   UNL     1      68.177   5.812   4.221  1.00  0.00     0.274 HD
HETATM   15  H   UNL     1      67.426   7.262   3.887  1.00  0.00     0.274 HD
ENDBRANCH  11  12
ENDBRANCH   5  11
TORSDOF 2
ENDMDL
MODEL 4
REMARK VINA RESULT:      -4.2      2.437      4.890
REMARK  2 active torsions:
REMARK  status: ('A' for Active; 'I' for Inactive)
REMARK    1  A    between atoms: C_5  and  C_8 
REMARK    2  A    between atoms: N_7  and  C_8 
ROOT
HETATM    1  O   UNL     1      63.664   7.567   3.539  1.00  0.00    -0.339 OA
HETATM    2  O   UNL     1      64.893   9.246   5.568  1.00  0.00    -0.346 OA
HETATM    3  C   UNL     1      64.904   7.320   4.076  1.00  0.00     0.102 A 
HETATM    4  C   UNL     1      65.495   8.130   5.049  1.00  0.00     0.102 A 
HETATM    5  C   UNL     1      63.199   8.893   3.855  1.00  0.00     0.178 C 
HETATM    6  C   UNL     1      63.481   9.236   5.315  1.00  0.00     0.210 C 
HETATM    7  C   UNL     1      65.573   6.189   3.609  1.00  0.00     0.039 A 
HETATM    8  C   UNL     1      66.766   7.826   5.532  1.00  0.00     0.039 A 
HETATM    9  C   UNL     1      66.842   5.879   4.101  1.00  0.00     0.003 A 
HETATM   10  C   UNL     1      67.440   6.697   5.061  1.00  0.00     0.003 A 
ENDROOT
BRANCH   5  11
HETATM   11  C   UNL     1      61.696   8.978   3.525  1.00  0.00     0.264 C 
BRANCH  11  12
HETATM   12  N   UNL     1      61.290  10.275   2.976  1.00  0.00    -0.077 N 
HETATM   13  H   UNL     1      60.848  10.137   2.066  1.00  0.00     0.274 HD
HETATM   14  H   UNL     1      62.110  10.871   2.867  1.00  0.00     0.274 HD
HETATM   15  H   UNL     1      60.627  10.721   3.610  1.00  0.00     0.274 HD
ENDBRANCH  11  12
ENDBRANCH   5  11
TORSDOF 2
ENDMDL
MODEL 5
REMARK VINA RESULT:      -4.2      1.703      2.697
REMARK  2 active torsions:
REMARK  status: ('A' for Active; 'I' for Inactive)
REMARK    1  A    between atoms: C_5  and  C_8 
REMARK    2  A    between atoms: N_7  and  C_8 
ROOT
HETATM    1  O   UNL     1      64.720   6.182   6.457  1.00  0.00    -0.339 OA
HETATM    2  O   UNL     1      65.443   8.929   5.840  1.00  0.00    -0.346 OA
HETATM    3  C   UNL     1      63.977   6.994   5.635  1.00  0.00     0.102 A 
HETATM    4  C   UNL     1      64.324   8.315   5.342  1.00  0.00     0.102 A 
HETATM    5  C   UNL     1      65.694   6.931   7.209  1.00  0.00     0.178 C 
HETATM    6  C   UNL     1      66.388   7.965   6.327  1.00  0.00     0.210 C 
HETATM    7  C   UNL     1      62.830   6.433   5.075  1.00  0.00     0.039 A 
HETATM    8  C   UNL     1      63.508   9.084   4.514  1.00  0.00     0.039 A 
HETATM    9  C   UNL     1      62.018   7.200   4.237  1.00  0.00     0.003 A 
HETATM   10  C   UNL     1      62.355   8.526   3.958  1.00  0.00     0.003 A 
ENDROOT
BRANCH   5  11
HETATM   11  C   UNL     1      66.698   5.943   7.834  1.00  0.00     0.264 C 
BRANCH  11  12
HETATM   12  N   UNL     1      67.798   6.599   8.547  1.00  0.00    -0.077 N 
HETATM   13  H   UNL     1      67.928   6.153   9.456  1.00  0.00     0.274 HD
HETATM   14  H   UNL     1      67.576   7.585   8.683  1.00  0.00     0.274 HD
HETATM   15  H   UNL     1      68.656   6.514   8.002  1.00  0.00     0.274 HD
ENDBRANCH  11  12
ENDBRANCH   5  11
TORSDOF 2
ENDMDL
MODEL 6
REMARK VINA RESULT:      -4.2      2.580      5.518
REMARK  2 active torsions:
REMARK  status: ('A' for Active; 'I' for Inactive)
REMARK    1  A    between atoms: C_5  and  C_8 
REMARK    2  A    between atoms: N_7  and  C_8 
ROOT
HETATM    1  O   UNL     1      65.372   7.645   6.896  1.00  0.00    -0.339 OA
HETATM    2  O   UNL     1      66.964   6.013   5.094  1.00  0.00    -0.346 OA
HETATM    3  C   UNL     1      66.279   6.709   7.327  1.00  0.00     0.102 A 
HETATM    4  C   UNL     1      67.042   5.922   6.459  1.00  0.00     0.102 A 
HETATM    5  C   UNL     1      65.077   7.499   5.494  1.00  0.00     0.178 C 
HETATM    6  C   UNL     1      66.351   7.246   4.693  1.00  0.00     0.210 C 
HETATM    7  C   UNL     1      66.428   6.570   8.706  1.00  0.00     0.039 A 
HETATM    8  C   UNL     1      67.930   4.978   6.971  1.00  0.00     0.039 A 
HETATM    9  C   UNL     1      67.325   5.631   9.219  1.00  0.00     0.003 A 
HETATM   10  C   UNL     1      68.075   4.833   8.352  1.00  0.00     0.003 A 
ENDROOT
BRANCH   5  11
HETATM   11  C   UNL     1      64.338   8.763   5.014  1.00  0.00     0.264 C 
BRANCH  11  12
HETATM   12  N   UNL     1      63.165   9.100   5.826  1.00  0.00    -0.077 N 
HETATM   13  H   UNL     1      63.009   8.367   6.519  1.00  0.00     0.274 HD
HETATM   14  H   UNL     1      62.345   9.177   5.225  1.00  0.00     0.274 HD
HETATM   15  H   UNL     1      63.324   9.988   6.302  1.00  0.00     0.274 HD
ENDBRANCH  11  12
ENDBRANCH   5  11
TORSDOF 2
ENDMDL
MODEL 7
REMARK VINA RESULT:      -3.8      3.443      4.602
REMARK  2 active torsions:
REMARK  status: ('A' for Active; 'I' for Inactive)
REMARK    1  A    between atoms: C_5  and  C_8 
REMARK    2  A    between atoms: N_7  and  C_8 
ROOT
HETATM    1  O   UNL     1      61.547   8.864   2.059  1.00  0.00    -0.339 OA
HETATM    2  O   UNL     1      63.463   7.409   3.691  1.00  0.00    -0.346 OA
HETATM    3  C   UNL     1      62.142   9.392   3.179  1.00  0.00     0.102 A 
HETATM    4  C   UNL     1      63.060   8.690   3.965  1.00  0.00     0.102 A 
HETATM    5  C   UNL     1      61.734   7.438   1.977  1.00  0.00     0.178 C 
HETATM    6  C   UNL     1      63.168   7.054   2.333  1.00  0.00     0.210 C 
HETATM    7  C   UNL     1      61.795  10.700   3.512  1.00  0.00     0.039 A 
HETATM    8  C   UNL     1      63.608   9.287   5.099  1.00  0.00     0.039 A 
HETATM    9  C   UNL     1      62.351  11.301   4.643  1.00  0.00     0.003 A 
HETATM   10  C   UNL     1      63.256  10.595   5.438  1.00  0.00     0.003 A 
ENDROOT
BRANCH   5  11
HETATM   11  C   UNL     1      61.351   6.974   0.558  1.00  0.00     0.264 C 
BRANCH  11  12
HETATM   12  N   UNL     1      59.960   7.271   0.201  1.00  0.00    -0.077 N 
HETATM   13  H   UNL     1      59.831   8.281   0.145  1.00  0.00     0.274 HD
HETATM   14  H   UNL     1      59.336   6.888   0.912  1.00  0.00     0.274 HD
HETATM   15  H   UNL     1      59.744   6.851  -0.703  1.00  0.00     0.274 HD
ENDBRANCH  11  12
ENDBRANCH   5  11
TORSDOF 2
ENDMDL
MODEL 8
REMARK VINA RESULT:      -3.6     13.540     14.240
REMARK  2 active torsions:
REMARK  status: ('A' for Active; 'I' for Inactive)
REMARK    1  A    between atoms: C_5  and  C_8 
REMARK    2  A    between atoms: N_7  and  C_8 
ROOT
HETATM    1  O   UNL     1      55.495   1.123  14.221  1.00  0.00    -0.339 OA
HETATM    2  O   UNL     1      56.156   3.165  12.261  1.00  0.00    -0.346 OA
HETATM    3  C   UNL     1      56.758   1.303  13.713  1.00  0.00     0.102 A 
HETATM    4  C   UNL     1      57.075   2.283  12.768  1.00  0.00     0.102 A 
HETATM    5  C   UNL     1      54.504   1.831  13.452  1.00  0.00     0.178 C 
HETATM    6  C   UNL     1      54.990   3.232  13.093  1.00  0.00     0.210 C 
HETATM    7  C   UNL     1      57.753   0.453  14.195  1.00  0.00     0.039 A 
HETATM    8  C   UNL     1      58.377   2.392  12.284  1.00  0.00     0.039 A 
HETATM    9  C   UNL     1      59.060   0.569  13.718  1.00  0.00     0.003 A 
HETATM   10  C   UNL     1      59.372   1.537  12.761  1.00  0.00     0.003 A 
ENDROOT
BRANCH   5  11
HETATM   11  C   UNL     1      53.191   1.867  14.258  1.00  0.00     0.264 C 
BRANCH  11  12
HETATM   12  N   UNL     1      52.715   3.225  14.540  1.00  0.00    -0.077 N 
HETATM   13  H   UNL     1      52.476   3.690  13.664  1.00  0.00     0.274 HD
HETATM   14  H   UNL     1      53.449   3.751  15.015  1.00  0.00     0.274 HD
HETATM   15  H   UNL     1      51.888   3.178  15.136  1.00  0.00     0.274 HD
ENDBRANCH  11  12
ENDBRANCH   5  11
TORSDOF 2
ENDMDL
MODEL 9
REMARK VINA RESULT:      -3.6      3.517      4.960
REMARK  2 active torsions:
REMARK  status: ('A' for Active; 'I' for Inactive)
REMARK    1  A    between atoms: C_5  and  C_8 
REMARK    2  A    between atoms: N_7  and  C_8 
ROOT
HETATM    1  O   UNL     1      61.145   8.243   3.007  1.00  0.00    -0.339 OA
HETATM    2  O   UNL     1      63.134   8.817   5.047  1.00  0.00    -0.346 OA
HETATM    3  C   UNL     1      61.289   7.500   4.153  1.00  0.00     0.102 A 
HETATM    4  C   UNL     1      62.248   7.775   5.132  1.00  0.00     0.102 A 
HETATM    5  C   UNL     1      62.271   9.114   2.790  1.00  0.00     0.178 C 
HETATM    6  C   UNL     1      62.696   9.791   4.090  1.00  0.00     0.210 C 
HETATM    7  C   UNL     1      60.409   6.431   4.319  1.00  0.00     0.039 A 
HETATM    8  C   UNL     1      62.346   6.963   6.260  1.00  0.00     0.039 A 
HETATM    9  C   UNL     1      60.501   5.624   5.455  1.00  0.00     0.003 A 
HETATM   10  C   UNL     1      61.470   5.888   6.425  1.00  0.00     0.003 A 
ENDROOT
BRANCH   5  11
HETATM   11  C   UNL     1      61.895  10.141   1.704  1.00  0.00     0.264 C 
BRANCH  11  12
HETATM   12  N   UNL     1      61.561  11.465   2.240  1.00  0.00    -0.077 N 
HETATM   13  H   UNL     1      62.183  12.164   1.833  1.00  0.00     0.274 HD
HETATM   14  H   UNL     1      61.674  11.460   3.254  1.00  0.00     0.274 HD
HETATM   15  H   UNL     1      60.595  11.693   2.006  1.00  0.00     0.274 HD
ENDBRANCH  11  12
ENDBRANCH   5  11
TORSDOF 2
ENDMDL
