MODEL 1
REMARK VINA RESULT:      -4.8      0.000      0.000
REMARK  2 active torsions:
REMARK  status: ('A' for Active; 'I' for Inactive)
REMARK    1  A    between atoms: C_8  and  C_11 
REMARK    2  A    between atoms: N_10  and  C_11 
ROOT
HETATM    1  C   UNL     1      64.729   8.653   5.151  1.00  0.00     0.105 A 
HETATM    2  C   UNL     1      65.192   7.468   4.622  1.00  0.00     0.105 A 
HETATM    3  O   UNL     1      65.501   9.091   6.183  1.00  0.00    -0.323 OA
HETATM    4  O   UNL     1      66.313   7.022   5.246  1.00  0.00    -0.323 OA
HETATM    5  C   UNL     1      66.544   8.094   6.183  1.00  0.00     0.352 A 
HETATM    6  C   UNL     1      63.615   9.286   4.651  1.00  0.00     0.048 A 
HETATM    7  C   UNL     1      64.557   6.851   3.568  1.00  0.00     0.040 A 
HETATM    8  C   UNL     1      62.945   8.696   3.567  1.00  0.00    -0.030 A 
HETATM    9  C   UNL     1      63.428   7.476   3.035  1.00  0.00     0.012 A 
ENDROOT
BRANCH   8  10
HETATM   10  C   UNL     1      61.730   9.358   2.959  1.00  0.00     0.270 C 
BRANCH  10  11
HETATM   11  N   UNL     1      61.697  10.786   3.275  1.00  0.00    -0.075 N 
HETATM   12  C   UNL     1      61.781  11.590   2.068  1.00  0.00     0.267 C 
HETATM   13  H   UNL     1      62.485  11.011   3.881  1.00  0.00     0.277 HD
HETATM   14  H   UNL     1      60.815  10.995   3.743  1.00  0.00     0.277 HD
ENDBRANCH  10  11
ENDBRANCH   8  10
TORSDOF 2
ENDMDL
MODEL 2
REMARK VINA RESULT:      -4.8      2.537      3.494
REMARK  2 active torsions:
REMARK  status: ('A' for Active; 'I' for Inactive)
REMARK    1  A    between atoms: C_8  and  C_11 
REMARK    2  A    between atoms: N_10  and  C_11 
ROOT
HETATM    1  C   UNL     1      62.288  10.508   3.856  1.00  0.00     0.105 A 
HETATM    2  C   UNL     1      62.977   9.567   4.589  1.00  0.00     0.105 A 
HETATM    3  O   UNL     1      62.077  11.654   4.560  1.00  0.00    -0.323 OA
HETATM    4  O   UNL     1      63.291  10.006   5.836  1.00  0.00    -0.323 OA
HETATM    5  C   UNL     1      62.783  11.355   5.782  1.00  0.00     0.352 A 
HETATM    6  C   UNL     1      61.890  10.272   2.561  1.00  0.00     0.048 A 
HETATM    7  C   UNL     1      63.296   8.335   4.065  1.00  0.00     0.040 A 
HETATM    8  C   UNL     1      62.208   9.032   1.983  1.00  0.00    -0.030 A 
HETATM    9  C   UNL     1      62.912   8.071   2.749  1.00  0.00     0.012 A 
ENDROOT
BRANCH   8  10
HETATM   10  C   UNL     1      61.819   8.723   0.555  1.00  0.00     0.270 C 
BRANCH  10  11
HETATM   11  N   UNL     1      60.937   7.558   0.493  1.00  0.00    -0.075 N 
HETATM   12  C   UNL     1      59.540   7.960   0.487  1.00  0.00     0.267 C 
HETATM   13  H   UNL     1      61.109   6.966   1.305  1.00  0.00     0.277 HD
HETATM   14  H   UNL     1      61.131   7.049  -0.370  1.00  0.00     0.277 HD
ENDBRANCH  10  11
ENDBRANCH   8  10
TORSDOF 2
ENDMDL
MODEL 3
REMARK VINA RESULT:      -4.7      3.103      4.729
REMARK  2 active torsions:
REMARK  status: ('A' for Active; 'I' for Inactive)
REMARK    1  A    between atoms: C_8  and  C_11 
REMARK    2  A    between atoms: N_10  and  C_11 
ROOT
HETATM    1  C   UNL     1      62.346  10.303   3.742  1.00  0.00     0.105 A 
HETATM    2  C   UNL     1      62.301   9.695   2.507  1.00  0.00     0.105 A 
HETATM    3  O   UNL     1      62.019  11.623   3.677  1.00  0.00    -0.323 OA
HETATM    4  O   UNL     1      61.932  10.550   1.518  1.00  0.00    -0.323 OA
HETATM    5  C   UNL     1      61.683  11.750   2.280  1.00  0.00     0.352 A 
HETATM    6  C   UNL     1      62.680   9.610   4.882  1.00  0.00     0.048 A 
HETATM    7  C   UNL     1      62.597   8.361   2.348  1.00  0.00     0.040 A 
HETATM    8  C   UNL     1      62.976   8.242   4.766  1.00  0.00    -0.030 A 
HETATM    9  C   UNL     1      62.932   7.630   3.490  1.00  0.00     0.012 A 
ENDROOT
BRANCH   8  10
HETATM   10  C   UNL     1      63.326   7.422   5.987  1.00  0.00     0.270 C 
BRANCH  10  11
HETATM   11  N   UNL     1      64.686   7.713   6.440  1.00  0.00    -0.075 N 
HETATM   12  C   UNL     1      65.250   6.580   7.156  1.00  0.00     0.267 C 
HETATM   13  H   UNL     1      64.665   8.521   7.061  1.00  0.00     0.277 HD
HETATM   14  H   UNL     1      65.268   7.902   5.624  1.00  0.00     0.277 HD
ENDBRANCH  10  11
ENDBRANCH   8  10
TORSDOF 2
ENDMDL
MODEL 4
REMARK VINA RESULT:      -4.7      3.126      5.062
REMARK  2 active torsions:
REMARK  status: ('A' for Active; 'I' for Inactive)
REMARK    1  A    between atoms: C_8  and  C_11 
REMARK    2  A    between atoms: N_10  and  C_11 
ROOT
HETATM    1  C   UNL     1      62.285   9.840   3.036  1.00  0.00     0.105 A 
HETATM    2  C   UNL     1      62.282  10.921   3.888  1.00  0.00     0.105 A 
HETATM    3  O   UNL     1      61.834  10.164   1.793  1.00  0.00    -0.323 OA
HETATM    4  O   UNL     1      61.841  12.057   3.287  1.00  0.00    -0.323 OA
HETATM    5  C   UNL     1      61.631  11.584   1.941  1.00  0.00     0.352 A 
HETATM    6  C   UNL     1      62.713   8.597   3.440  1.00  0.00     0.048 A 
HETATM    7  C   UNL     1      62.701  10.812   5.195  1.00  0.00     0.040 A 
HETATM    8  C   UNL     1      63.162   8.445   4.762  1.00  0.00    -0.030 A 
HETATM    9  C   UNL     1      63.149   9.564   5.630  1.00  0.00     0.012 A 
ENDROOT
BRANCH   8  10
HETATM   10  C   UNL     1      63.667   7.109   5.256  1.00  0.00     0.270 C 
BRANCH  10  11
HETATM   11  N   UNL     1      64.203   7.221   6.613  1.00  0.00    -0.075 N 
HETATM   12  C   UNL     1      65.651   7.099   6.613  1.00  0.00     0.267 C 
HETATM   13  H   UNL     1      63.807   6.481   7.190  1.00  0.00     0.277 HD
HETATM   14  H   UNL     1      63.955   8.138   6.986  1.00  0.00     0.277 HD
ENDBRANCH  10  11
ENDBRANCH   8  10
TORSDOF 2
ENDMDL
MODEL 5
REMARK VINA RESULT:      -4.5      3.130      4.867
REMARK  2 active torsions:
REMARK  status: ('A' for Active; 'I' for Inactive)
REMARK    1  A    between atoms: C_8  and  C_11 
REMARK    2  A    between atoms: N_10  and  C_11 
ROOT
HETATM    1  C   UNL     1      62.301   9.789   2.757  1.00  0.00     0.105 A 
HETATM    2  C   UNL     1      62.317  10.645   3.836  1.00  0.00     0.105 A 
HETATM    3  O   UNL     1      61.867  10.401   1.621  1.00  0.00    -0.323 OA
HETATM    4  O   UNL     1      61.906  11.899   3.511  1.00  0.00    -0.323 OA
HETATM    5  C   UNL     1      61.695  11.753   2.092  1.00  0.00     0.352 A 
HETATM    6  C   UNL     1      62.698   8.476   2.865  1.00  0.00     0.048 A 
HETATM    7  C   UNL     1      62.724  10.229   5.082  1.00  0.00     0.040 A 
HETATM    8  C   UNL     1      63.134   8.014   4.117  1.00  0.00    -0.030 A 
HETATM    9  C   UNL     1      63.140   8.903   5.220  1.00  0.00     0.012 A 
ENDROOT
BRANCH   8  10
HETATM   10  C   UNL     1      63.605   6.589   4.292  1.00  0.00     0.270 C 
BRANCH  10  11
HETATM   11  N   UNL     1      64.742   6.301   3.417  1.00  0.00    -0.075 N 
HETATM   12  C   UNL     1      65.989   6.744   4.019  1.00  0.00     0.267 C 
HETATM   13  H   UNL     1      64.610   6.786   2.530  1.00  0.00     0.277 HD
HETATM   14  H   UNL     1      64.793   5.293   3.271  1.00  0.00     0.277 HD
ENDBRANCH  10  11
ENDBRANCH   8  10
TORSDOF 2
ENDMDL
MODEL 6
REMARK VINA RESULT:      -4.4      1.769      2.801
REMARK  2 active torsions:
REMARK  status: ('A' for Active; 'I' for Inactive)
REMARK    1  A    between atoms: C_8  and  C_11 
REMARK    2  A    between atoms: N_10  and  C_11 
ROOT
HETATM    1  C   UNL     1      63.908   8.351   4.014  1.00  0.00     0.105 A 
HETATM    2  C   UNL     1      63.769   9.410   4.884  1.00  0.00     0.105 A 
HETATM    3  O   UNL     1      64.944   7.537   4.358  1.00  0.00    -0.323 OA
HETATM    4  O   UNL     1      64.689   9.387   5.884  1.00  0.00    -0.323 OA
HETATM    5  C   UNL     1      65.380   8.157   5.584  1.00  0.00     0.352 A 
HETATM    6  C   UNL     1      63.066   8.176   2.941  1.00  0.00     0.048 A 
HETATM    7  C   UNL     1      62.782  10.354   4.720  1.00  0.00     0.040 A 
HETATM    8  C   UNL     1      62.036   9.110   2.745  1.00  0.00    -0.030 A 
HETATM    9  C   UNL     1      61.906  10.197   3.644  1.00  0.00     0.012 A 
ENDROOT
BRANCH   8  10
HETATM   10  C   UNL     1      61.064   8.957   1.598  1.00  0.00     0.270 C 
BRANCH  10  11
HETATM   11  N   UNL     1      59.866   8.229   2.019  1.00  0.00    -0.075 N 
HETATM   12  C   UNL     1      59.069   7.829   0.872  1.00  0.00     0.267 C 
HETATM   13  H   UNL     1      59.306   8.830   2.621  1.00  0.00     0.277 HD
HETATM   14  H   UNL     1      60.156   7.390   2.520  1.00  0.00     0.277 HD
ENDBRANCH  10  11
ENDBRANCH   8  10
TORSDOF 2
ENDMDL
MODEL 7
REMARK VINA RESULT:      -4.2      2.504      3.996
REMARK  2 active torsions:
REMARK  status: ('A' for Active; 'I' for Inactive)
REMARK    1  A    between atoms: C_8  and  C_11 
REMARK    2  A    between atoms: N_10  and  C_11 
ROOT
HETATM    1  C   UNL     1      63.194   9.576   4.662  1.00  0.00     0.105 A 
HETATM    2  C   UNL     1      62.324  10.381   3.961  1.00  0.00     0.105 A 
HETATM    3  O   UNL     1      63.608  10.154   5.822  1.00  0.00    -0.323 OA
HETATM    4  O   UNL     1      62.075  11.556   4.597  1.00  0.00    -0.323 OA
HETATM    5  C   UNL     1      62.834  11.371   5.810  1.00  0.00     0.352 A 
HETATM    6  C   UNL     1      63.564   8.333   4.202  1.00  0.00     0.048 A 
HETATM    7  C   UNL     1      61.784   9.986   2.758  1.00  0.00     0.040 A 
HETATM    8  C   UNL     1      63.026   7.887   2.985  1.00  0.00    -0.030 A 
HETATM    9  C   UNL     1      62.136   8.726   2.272  1.00  0.00     0.012 A 
ENDROOT
BRANCH   8  10
HETATM   10  C   UNL     1      63.376   6.520   2.441  1.00  0.00     0.270 C 
BRANCH  10  11
HETATM   11  N   UNL     1      62.665   6.256   1.190  1.00  0.00    -0.075 N 
HETATM   12  C   UNL     1      63.552   5.669   0.200  1.00  0.00     0.267 C 
HETATM   13  H   UNL     1      62.295   7.133   0.826  1.00  0.00     0.277 HD
HETATM   14  H   UNL     1      61.909   5.598   1.379  1.00  0.00     0.277 HD
ENDBRANCH  10  11
ENDBRANCH   8  10
TORSDOF 2
ENDMDL
MODEL 8
REMARK VINA RESULT:      -4.0      3.623      5.778
REMARK  2 active torsions:
REMARK  status: ('A' for Active; 'I' for Inactive)
REMARK    1  A    between atoms: C_8  and  C_11 
REMARK    2  A    between atoms: N_10  and  C_11 
ROOT
HETATM    1  C   UNL     1      64.654   7.264   6.234  1.00  0.00     0.105 A 
HETATM    2  C   UNL     1      65.437   8.027   5.397  1.00  0.00     0.105 A 
HETATM    3  O   UNL     1      63.385   7.746   6.333  1.00  0.00    -0.323 OA
HETATM    4  O   UNL     1      64.758   9.074   4.859  1.00  0.00    -0.323 OA
HETATM    5  C   UNL     1      63.440   8.844   5.399  1.00  0.00     0.352 A 
HETATM    6  C   UNL     1      65.143   6.145   6.868  1.00  0.00     0.048 A 
HETATM    7  C   UNL     1      66.755   7.714   5.156  1.00  0.00     0.040 A 
HETATM    8  C   UNL     1      66.480   5.783   6.638  1.00  0.00    -0.030 A 
HETATM    9  C   UNL     1      67.277   6.579   5.779  1.00  0.00     0.012 A 
ENDROOT
BRANCH   8  10
HETATM   10  C   UNL     1      67.068   4.550   7.287  1.00  0.00     0.270 C 
BRANCH  10  11
HETATM   11  N   UNL     1      67.009   4.647   8.746  1.00  0.00    -0.075 N 
HETATM   12  C   UNL     1      68.051   5.524   9.252  1.00  0.00     0.267 C 
HETATM   13  H   UNL     1      67.132   3.718   9.146  1.00  0.00     0.277 HD
HETATM   14  H   UNL     1      66.103   5.034   9.009  1.00  0.00     0.277 HD
ENDBRANCH  10  11
ENDBRANCH   8  10
TORSDOF 2
ENDMDL
MODEL 9
REMARK VINA RESULT:      -3.9      3.334      4.741
REMARK  2 active torsions:
REMARK  status: ('A' for Active; 'I' for Inactive)
REMARK    1  A    between atoms: C_8  and  C_11 
REMARK    2  A    between atoms: N_10  and  C_11 
ROOT
HETATM    1  C   UNL     1      62.050   9.722   3.313  1.00  0.00     0.105 A 
HETATM    2  C   UNL     1      62.083  10.222   2.030  1.00  0.00     0.105 A 
HETATM    3  O   UNL     1      61.922  10.706   4.245  1.00  0.00    -0.323 OA
HETATM    4  O   UNL     1      61.972  11.575   1.996  1.00  0.00    -0.323 OA
HETATM    5  C   UNL     1      61.796  11.866   3.398  1.00  0.00     0.352 A 
HETATM    6  C   UNL     1      62.129   8.373   3.570  1.00  0.00     0.048 A 
HETATM    7  C   UNL     1      62.207   9.396   0.937  1.00  0.00     0.040 A 
HETATM    8  C   UNL     1      62.242   7.494   2.481  1.00  0.00    -0.030 A 
HETATM    9  C   UNL     1      62.281   8.021   1.167  1.00  0.00     0.012 A 
ENDROOT
BRANCH   8  10
HETATM   10  C   UNL     1      62.308   6.000   2.698  1.00  0.00     0.270 C 
BRANCH  10  11
HETATM   11  N   UNL     1      63.495   5.429   2.061  1.00  0.00    -0.075 N 
HETATM   12  C   UNL     1      64.688   5.694   2.849  1.00  0.00     0.267 C 
HETATM   13  H   UNL     1      63.608   5.843   1.137  1.00  0.00     0.277 HD
HETATM   14  H   UNL     1      63.372   4.419   1.989  1.00  0.00     0.277 HD
ENDBRANCH  10  11
ENDBRANCH   8  10
TORSDOF 2
ENDMDL
