MODEL 1
REMARK VINA RESULT:      -4.5      0.000      0.000
REMARK  1 active torsions:
REMARK  status: ('A' for Active; 'I' for Inactive)
REMARK    1  A    between atoms: C_1  and  C_5 
ROOT
HETATM    1  C   UNL     1      62.162   9.890   2.557  1.00  0.00     0.072 A 
HETATM    2  C   UNL     1      62.846   8.916   3.267  1.00  0.00     0.066 A 
HETATM    3  O   UNL     1      62.926   7.766   2.536  1.00  0.00    -0.319 OA
HETATM    4  C   UNL     1      61.808   9.275   1.318  1.00  0.00     0.053 A 
HETATM    5  C   UNL     1      62.296   7.990   1.354  1.00  0.00     0.050 A 
HETATM    6  C   UNL     1      63.484   8.852   4.600  1.00  0.00     0.078 C 
HETATM    7  C   UNL     1      62.268   6.862   0.404  1.00  0.00     0.076 C 
ENDROOT
BRANCH   1   8
HETATM    8  C   UNL     1      61.878  11.236   2.996  1.00  0.00     0.211 C 
HETATM    9  O   UNL     1      61.662  11.593   4.145  1.00  0.00    -0.644 OA
HETATM   10  O   UNL     1      61.863  12.147   1.995  1.00  0.00    -0.644 OA
ENDBRANCH   1   8
TORSDOF 1
ENDMDL
MODEL 2
REMARK VINA RESULT:      -4.5      2.007      3.014
REMARK  1 active torsions:
REMARK  status: ('A' for Active; 'I' for Inactive)
REMARK    1  A    between atoms: C_1  and  C_5 
ROOT
HETATM    1  C   UNL     1      63.019   8.978   4.042  1.00  0.00     0.072 A 
HETATM    2  C   UNL     1      62.369  10.117   3.593  1.00  0.00     0.066 A 
HETATM    3  O   UNL     1      61.984   9.962   2.293  1.00  0.00    -0.319 OA
HETATM    4  C   UNL     1      63.024   8.084   2.928  1.00  0.00     0.053 A 
HETATM    5  C   UNL     1      62.384   8.726   1.895  1.00  0.00     0.050 A 
HETATM    6  C   UNL     1      62.015  11.421   4.195  1.00  0.00     0.078 C 
HETATM    7  C   UNL     1      62.062   8.352   0.505  1.00  0.00     0.076 C 
ENDROOT
BRANCH   1   8
HETATM    8  C   UNL     1      63.568   8.762   5.359  1.00  0.00     0.211 C 
HETATM    9  O   UNL     1      63.045   8.137   6.270  1.00  0.00    -0.644 OA
HETATM   10  O   UNL     1      64.783   9.329   5.546  1.00  0.00    -0.644 OA
ENDBRANCH   1   8
TORSDOF 1
ENDMDL
MODEL 3
REMARK VINA RESULT:      -4.4      1.030      2.635
REMARK  1 active torsions:
REMARK  status: ('A' for Active; 'I' for Inactive)
REMARK    1  A    between atoms: C_1  and  C_5 
ROOT
HETATM    1  C   UNL     1      62.241  10.051   3.355  1.00  0.00     0.072 A 
HETATM    2  C   UNL     1      62.281   9.083   2.365  1.00  0.00     0.066 A 
HETATM    3  O   UNL     1      62.591   7.867   2.902  1.00  0.00    -0.319 OA
HETATM    4  C   UNL     1      62.552   9.363   4.568  1.00  0.00     0.053 A 
HETATM    5  C   UNL     1      62.754   8.043   4.239  1.00  0.00     0.050 A 
HETATM    6  C   UNL     1      62.071   9.080   0.900  1.00  0.00     0.078 C 
HETATM    7  C   UNL     1      63.096   6.839   5.020  1.00  0.00     0.076 C 
ENDROOT
BRANCH   1   8
HETATM    8  C   UNL     1      61.945  11.453   3.178  1.00  0.00     0.211 C 
HETATM    9  O   UNL     1      61.820  12.039   2.113  1.00  0.00    -0.644 OA
HETATM   10  O   UNL     1      61.802  12.133   4.340  1.00  0.00    -0.644 OA
ENDBRANCH   1   8
TORSDOF 1
ENDMDL
MODEL 4
REMARK VINA RESULT:      -4.4      1.686      2.787
REMARK  1 active torsions:
REMARK  status: ('A' for Active; 'I' for Inactive)
REMARK    1  A    between atoms: C_1  and  C_5 
ROOT
HETATM    1  C   UNL     1      62.877   9.764   4.229  1.00  0.00     0.072 A 
HETATM    2  C   UNL     1      62.524   9.415   2.935  1.00  0.00     0.066 A 
HETATM    3  O   UNL     1      62.994   8.169   2.635  1.00  0.00    -0.319 OA
HETATM    4  C   UNL     1      63.612   8.648   4.733  1.00  0.00     0.053 A 
HETATM    5  C   UNL     1      63.652   7.708   3.730  1.00  0.00     0.050 A 
HETATM    6  C   UNL     1      61.776  10.077   1.844  1.00  0.00     0.078 C 
HETATM    7  C   UNL     1      64.244   6.362   3.618  1.00  0.00     0.076 C 
ENDROOT
BRANCH   1   8
HETATM    8  C   UNL     1      62.561  11.000   4.905  1.00  0.00     0.211 C 
HETATM    9  O   UNL     1      61.898  11.923   4.455  1.00  0.00    -0.644 OA
HETATM   10  O   UNL     1      63.073  11.087   6.155  1.00  0.00    -0.644 OA
ENDBRANCH   1   8
TORSDOF 1
ENDMDL
MODEL 5
REMARK VINA RESULT:      -4.1      2.314      3.969
REMARK  1 active torsions:
REMARK  status: ('A' for Active; 'I' for Inactive)
REMARK    1  A    between atoms: C_1  and  C_5 
ROOT
HETATM    1  C   UNL     1      63.357   8.757   4.189  1.00  0.00     0.072 A 
HETATM    2  C   UNL     1      63.554   9.782   5.100  1.00  0.00     0.066 A 
HETATM    3  O   UNL     1      64.690   9.561   5.823  1.00  0.00    -0.319 OA
HETATM    4  C   UNL     1      64.452   7.861   4.386  1.00  0.00     0.053 A 
HETATM    5  C   UNL     1      65.232   8.395   5.385  1.00  0.00     0.050 A 
HETATM    6  C   UNL     1      62.825  11.021   5.450  1.00  0.00     0.078 C 
HETATM    7  C   UNL     1      66.481   7.967   6.042  1.00  0.00     0.076 C 
ENDROOT
BRANCH   1   8
HETATM    8  C   UNL     1      62.268   8.638   3.249  1.00  0.00     0.211 C 
HETATM    9  O   UNL     1      61.075   8.677   3.512  1.00  0.00    -0.644 OA
HETATM   10  O   UNL     1      62.668   8.470   1.966  1.00  0.00    -0.644 OA
ENDBRANCH   1   8
TORSDOF 1
ENDMDL
MODEL 6
REMARK VINA RESULT:      -4.1      2.211      3.118
REMARK  1 active torsions:
REMARK  status: ('A' for Active; 'I' for Inactive)
REMARK    1  A    between atoms: C_1  and  C_5 
ROOT
HETATM    1  C   UNL     1      62.608   9.198   4.546  1.00  0.00     0.072 A 
HETATM    2  C   UNL     1      61.918   9.744   3.476  1.00  0.00     0.066 A 
HETATM    3  O   UNL     1      61.095   8.811   2.916  1.00  0.00    -0.319 OA
HETATM    4  C   UNL     1      62.168   7.842   4.626  1.00  0.00     0.053 A 
HETATM    5  C   UNL     1      61.250   7.658   3.618  1.00  0.00     0.050 A 
HETATM    6  C   UNL     1      61.880  11.074   2.829  1.00  0.00     0.078 C 
HETATM    7  C   UNL     1      60.442   6.508   3.173  1.00  0.00     0.076 C 
ENDROOT
BRANCH   1   8
HETATM    8  C   UNL     1      63.567   9.873   5.388  1.00  0.00     0.211 C 
HETATM    9  O   UNL     1      64.736   9.558   5.554  1.00  0.00    -0.644 OA
HETATM   10  O   UNL     1      63.065  10.955   6.030  1.00  0.00    -0.644 OA
ENDBRANCH   1   8
TORSDOF 1
ENDMDL
MODEL 7
REMARK VINA RESULT:      -4.0      2.204      2.941
REMARK  1 active torsions:
REMARK  status: ('A' for Active; 'I' for Inactive)
REMARK    1  A    between atoms: C_1  and  C_5 
ROOT
HETATM    1  C   UNL     1      63.303   8.631   4.003  1.00  0.00     0.072 A 
HETATM    2  C   UNL     1      63.708   7.499   3.313  1.00  0.00     0.066 A 
HETATM    3  O   UNL     1      63.147   7.476   2.069  1.00  0.00    -0.319 OA
HETATM    4  C   UNL     1      62.438   9.329   3.107  1.00  0.00     0.053 A 
HETATM    5  C   UNL     1      62.378   8.589   1.949  1.00  0.00     0.050 A 
HETATM    6  C   UNL     1      64.584   6.347   3.622  1.00  0.00     0.078 C 
HETATM    7  C   UNL     1      61.675   8.762   0.664  1.00  0.00     0.076 C 
ENDROOT
BRANCH   1   8
HETATM    8  C   UNL     1      63.686   9.006   5.343  1.00  0.00     0.211 C 
HETATM    9  O   UNL     1      64.558   9.805   5.652  1.00  0.00    -0.644 OA
HETATM   10  O   UNL     1      62.976   8.380   6.311  1.00  0.00    -0.644 OA
ENDBRANCH   1   8
TORSDOF 1
ENDMDL
MODEL 8
REMARK VINA RESULT:      -3.7      4.491      6.547
REMARK  1 active torsions:
REMARK  status: ('A' for Active; 'I' for Inactive)
REMARK    1  A    between atoms: C_1  and  C_5 
ROOT
HETATM    1  C   UNL     1      65.546   7.314   6.388  1.00  0.00     0.072 A 
HETATM    2  C   UNL     1      65.029   6.094   6.793  1.00  0.00     0.066 A 
HETATM    3  O   UNL     1      65.789   5.567   7.796  1.00  0.00    -0.319 OA
HETATM    4  C   UNL     1      66.698   7.526   7.206  1.00  0.00     0.053 A 
HETATM    5  C   UNL     1      66.800   6.440   8.043  1.00  0.00     0.050 A 
HETATM    6  C   UNL     1      63.873   5.265   6.388  1.00  0.00     0.078 C 
HETATM    7  C   UNL     1      67.749   6.058   9.106  1.00  0.00     0.076 C 
ENDROOT
BRANCH   1   8
HETATM    8  C   UNL     1      65.018   8.173   5.355  1.00  0.00     0.211 C 
HETATM    9  O   UNL     1      64.655   7.828   4.240  1.00  0.00    -0.644 OA
HETATM   10  O   UNL     1      64.939   9.476   5.713  1.00  0.00    -0.644 OA
ENDBRANCH   1   8
TORSDOF 1
ENDMDL
MODEL 9
REMARK VINA RESULT:      -3.7      2.549      3.323
REMARK  1 active torsions:
REMARK  status: ('A' for Active; 'I' for Inactive)
REMARK    1  A    between atoms: C_1  and  C_5 
ROOT
HETATM    1  C   UNL     1      63.350   8.552   4.599  1.00  0.00     0.072 A 
HETATM    2  C   UNL     1      62.492   7.612   5.147  1.00  0.00     0.066 A 
HETATM    3  O   UNL     1      61.455   7.364   4.296  1.00  0.00    -0.319 OA
HETATM    4  C   UNL     1      62.780   8.890   3.333  1.00  0.00     0.053 A 
HETATM    5  C   UNL     1      61.635   8.141   3.197  1.00  0.00     0.050 A 
HETATM    6  C   UNL     1      62.456   6.846   6.412  1.00  0.00     0.078 C 
HETATM    7  C   UNL     1      60.613   8.024   2.140  1.00  0.00     0.076 C 
ENDROOT
BRANCH   1   8
HETATM    8  C   UNL     1      64.558   9.069   5.197  1.00  0.00     0.211 C 
HETATM    9  O   UNL     1      65.661   8.544   5.172  1.00  0.00    -0.644 OA
HETATM   10  O   UNL     1      64.391  10.253   5.832  1.00  0.00    -0.644 OA
ENDBRANCH   1   8
TORSDOF 1
ENDMDL
