MODEL 1
REMARK VINA RESULT:      -5.1      0.000      0.000
REMARK  2 active torsions:
REMARK  status: ('A' for Active; 'I' for Inactive)
REMARK    1  A    between atoms: C_8  and  C_11 
REMARK    2  A    between atoms: O_10  and  C_11 
ROOT
HETATM    1  C   UNL     1      62.122   9.770   2.778  1.00  0.00     0.105 A 
HETATM    2  C   UNL     1      62.786   8.567   2.849  1.00  0.00     0.105 A 
HETATM    3  O   UNL     1      61.439   9.918   1.612  1.00  0.00    -0.323 OA
HETATM    4  O   UNL     1      62.599   7.807   1.738  1.00  0.00    -0.323 OA
HETATM    5  C   UNL     1      61.797   8.695   0.933  1.00  0.00     0.352 A 
HETATM    6  C   UNL     1      62.173  10.691   3.806  1.00  0.00     0.049 A 
HETATM    7  C   UNL     1      63.539   8.221   3.947  1.00  0.00     0.040 A 
HETATM    8  C   UNL     1      62.927  10.373   4.945  1.00  0.00    -0.032 A 
HETATM    9  C   UNL     1      63.614   9.136   5.003  1.00  0.00     0.012 A 
ENDROOT
BRANCH   8  10
HETATM   10  C   UNL     1      63.013  11.342   6.094  1.00  0.00     0.203 C 
BRANCH  10  11
HETATM   11  O   UNL     1      64.371  11.551   6.463  1.00  0.00    -0.396 OA
HETATM   12  H   UNL     1      64.452  11.532   7.429  1.00  0.00     0.209 HD
ENDBRANCH  10  11
ENDBRANCH   8  10
TORSDOF 2
ENDMDL
MODEL 2
REMARK VINA RESULT:      -4.9      0.894      1.962
REMARK  2 active torsions:
REMARK  status: ('A' for Active; 'I' for Inactive)
REMARK    1  A    between atoms: C_8  and  C_11 
REMARK    2  A    between atoms: O_10  and  C_11 
ROOT
HETATM    1  C   UNL     1      62.764   8.790   3.081  1.00  0.00     0.105 A 
HETATM    2  C   UNL     1      62.141   9.546   2.114  1.00  0.00     0.105 A 
HETATM    3  O   UNL     1      63.072   7.540   2.645  1.00  0.00    -0.323 OA
HETATM    4  O   UNL     1      61.985   8.866   0.948  1.00  0.00    -0.323 OA
HETATM    5  C   UNL     1      62.520   7.577   1.311  1.00  0.00     0.352 A 
HETATM    6  C   UNL     1      63.027   9.293   4.340  1.00  0.00     0.049 A 
HETATM    7  C   UNL     1      61.745  10.841   2.353  1.00  0.00     0.040 A 
HETATM    8  C   UNL     1      62.642  10.612   4.622  1.00  0.00    -0.032 A 
HETATM    9  C   UNL     1      61.993  11.377   3.622  1.00  0.00     0.012 A 
ENDROOT
BRANCH   8  10
HETATM   10  C   UNL     1      62.907  11.208   5.979  1.00  0.00     0.203 C 
BRANCH  10  11
HETATM   11  O   UNL     1      64.306  11.357   6.188  1.00  0.00    -0.396 OA
HETATM   12  H   UNL     1      64.703  10.489   6.361  1.00  0.00     0.209 HD
ENDBRANCH  10  11
ENDBRANCH   8  10
TORSDOF 2
ENDMDL
MODEL 3
REMARK VINA RESULT:      -4.8      1.799      2.639
REMARK  2 active torsions:
REMARK  status: ('A' for Active; 'I' for Inactive)
REMARK    1  A    between atoms: C_8  and  C_11 
REMARK    2  A    between atoms: O_10  and  C_11 
ROOT
HETATM    1  C   UNL     1      62.241  10.289   3.729  1.00  0.00     0.105 A 
HETATM    2  C   UNL     1      62.252   9.682   2.494  1.00  0.00     0.105 A 
HETATM    3  O   UNL     1      61.915  11.607   3.657  1.00  0.00    -0.323 OA
HETATM    4  O   UNL     1      61.928  10.542   1.493  1.00  0.00    -0.323 OA
HETATM    5  C   UNL     1      61.778  11.772   2.229  1.00  0.00     0.352 A 
HETATM    6  C   UNL     1      62.535   9.593   4.885  1.00  0.00     0.049 A 
HETATM    7  C   UNL     1      62.559   8.349   2.347  1.00  0.00     0.040 A 
HETATM    8  C   UNL     1      62.849   8.230   4.778  1.00  0.00    -0.032 A 
HETATM    9  C   UNL     1      62.866   7.618   3.501  1.00  0.00     0.012 A 
ENDROOT
BRANCH   8  10
HETATM   10  C   UNL     1      63.175   7.425   6.007  1.00  0.00     0.203 C 
BRANCH  10  11
HETATM   11  O   UNL     1      62.579   8.016   7.156  1.00  0.00    -0.396 OA
HETATM   12  H   UNL     1      62.247   7.319   7.744  1.00  0.00     0.209 HD
ENDBRANCH  10  11
ENDBRANCH   8  10
TORSDOF 2
ENDMDL
MODEL 4
REMARK VINA RESULT:      -4.7      1.530      4.579
REMARK  2 active torsions:
REMARK  status: ('A' for Active; 'I' for Inactive)
REMARK    1  A    between atoms: C_8  and  C_11 
REMARK    2  A    between atoms: O_10  and  C_11 
ROOT
HETATM    1  C   UNL     1      62.728   9.660   4.195  1.00  0.00     0.105 A 
HETATM    2  C   UNL     1      62.180  10.816   3.687  1.00  0.00     0.105 A 
HETATM    3  O   UNL     1      63.098   9.790   5.496  1.00  0.00    -0.323 OA
HETATM    4  O   UNL     1      62.132  11.814   4.607  1.00  0.00    -0.323 OA
HETATM    5  C   UNL     1      62.772  11.177   5.732  1.00  0.00     0.352 A 
HETATM    6  C   UNL     1      62.865   8.521   3.427  1.00  0.00     0.049 A 
HETATM    7  C   UNL     1      61.743  10.896   2.385  1.00  0.00     0.040 A 
HETATM    8  C   UNL     1      62.426   8.560   2.095  1.00  0.00    -0.032 A 
HETATM    9  C   UNL     1      61.873   9.758   1.580  1.00  0.00     0.012 A 
ENDROOT
BRANCH   8  10
HETATM   10  C   UNL     1      62.551   7.345   1.217  1.00  0.00     0.203 C 
BRANCH  10  11
HETATM   11  O   UNL     1      61.553   7.362   0.204  1.00  0.00    -0.396 OA
HETATM   12  H   UNL     1      61.924   7.020  -0.624  1.00  0.00     0.209 HD
ENDBRANCH  10  11
ENDBRANCH   8  10
TORSDOF 2
ENDMDL
MODEL 5
REMARK VINA RESULT:      -4.7      1.361      4.154
REMARK  2 active torsions:
REMARK  status: ('A' for Active; 'I' for Inactive)
REMARK    1  A    between atoms: C_8  and  C_11 
REMARK    2  A    between atoms: O_10  and  C_11 
ROOT
HETATM    1  C   UNL     1      62.268  10.406   3.915  1.00  0.00     0.105 A 
HETATM    2  C   UNL     1      63.127   9.507   4.505  1.00  0.00     0.105 A 
HETATM    3  O   UNL     1      62.133  11.548   4.641  1.00  0.00    -0.323 OA
HETATM    4  O   UNL     1      63.642   9.974   5.673  1.00  0.00    -0.323 OA
HETATM    5  C   UNL     1      62.960  11.240   5.784  1.00  0.00     0.352 A 
HETATM    6  C   UNL     1      61.640  10.133   2.717  1.00  0.00     0.049 A 
HETATM    7  C   UNL     1      63.401   8.287   3.932  1.00  0.00     0.040 A 
HETATM    8  C   UNL     1      61.897   8.901   2.097  1.00  0.00    -0.032 A 
HETATM    9  C   UNL     1      62.775   7.980   2.719  1.00  0.00     0.012 A 
ENDROOT
BRANCH   8  10
HETATM   10  C   UNL     1      61.239   8.556   0.788  1.00  0.00     0.203 C 
BRANCH  10  11
HETATM   11  O   UNL     1      59.824   8.646   0.908  1.00  0.00    -0.396 OA
HETATM   12  H   UNL     1      59.598   9.143   1.710  1.00  0.00     0.209 HD
ENDBRANCH  10  11
ENDBRANCH   8  10
TORSDOF 2
ENDMDL
MODEL 6
REMARK VINA RESULT:      -4.6      2.323      4.113
REMARK  2 active torsions:
REMARK  status: ('A' for Active; 'I' for Inactive)
REMARK    1  A    between atoms: C_8  and  C_11 
REMARK    2  A    between atoms: O_10  and  C_11 
ROOT
HETATM    1  C   UNL     1      64.700   8.715   5.210  1.00  0.00     0.105 A 
HETATM    2  C   UNL     1      65.110   7.521   4.663  1.00  0.00     0.105 A 
HETATM    3  O   UNL     1      65.528   9.145   6.199  1.00  0.00    -0.323 OA
HETATM    4  O   UNL     1      66.250   7.054   5.237  1.00  0.00    -0.323 OA
HETATM    5  C   UNL     1      66.474   8.055   6.250  1.00  0.00     0.352 A 
HETATM    6  C   UNL     1      63.566   9.367   4.767  1.00  0.00     0.049 A 
HETATM    7  C   UNL     1      64.408   6.913   3.648  1.00  0.00     0.040 A 
HETATM    8  C   UNL     1      62.825   8.782   3.729  1.00  0.00    -0.032 A 
HETATM    9  C   UNL     1      63.252   7.548   3.181  1.00  0.00     0.012 A 
ENDROOT
BRANCH   8  10
HETATM   10  C   UNL     1      61.583   9.453   3.209  1.00  0.00     0.203 C 
BRANCH  10  11
HETATM   11  O   UNL     1      61.325  10.648   3.937  1.00  0.00    -0.396 OA
HETATM   12  H   UNL     1      60.367  10.766   4.038  1.00  0.00     0.209 HD
ENDBRANCH  10  11
ENDBRANCH   8  10
TORSDOF 2
ENDMDL
MODEL 7
REMARK VINA RESULT:      -4.4      1.834      3.500
REMARK  2 active torsions:
REMARK  status: ('A' for Active; 'I' for Inactive)
REMARK    1  A    between atoms: C_8  and  C_11 
REMARK    2  A    between atoms: O_10  and  C_11 
ROOT
HETATM    1  C   UNL     1      63.208   8.618   5.024  1.00  0.00     0.105 A 
HETATM    2  C   UNL     1      63.199   7.639   4.058  1.00  0.00     0.105 A 
HETATM    3  O   UNL     1      63.698   8.172   6.211  1.00  0.00    -0.323 OA
HETATM    4  O   UNL     1      63.687   6.456   4.515  1.00  0.00    -0.323 OA
HETATM    5  C   UNL     1      63.943   6.784   5.896  1.00  0.00     0.352 A 
HETATM    6  C   UNL     1      62.759   9.898   4.766  1.00  0.00     0.049 A 
HETATM    7  C   UNL     1      62.738   7.884   2.785  1.00  0.00     0.040 A 
HETATM    8  C   UNL     1      62.286  10.190   3.479  1.00  0.00    -0.032 A 
HETATM    9  C   UNL     1      62.272   9.172   2.495  1.00  0.00     0.012 A 
ENDROOT
BRANCH   8  10
HETATM   10  C   UNL     1      61.788  11.571   3.146  1.00  0.00     0.203 C 
BRANCH  10  11
HETATM   11  O   UNL     1      62.122  11.907   1.805  1.00  0.00    -0.396 OA
HETATM   12  H   UNL     1      61.408  12.436   1.416  1.00  0.00     0.209 HD
ENDBRANCH  10  11
ENDBRANCH   8  10
TORSDOF 2
ENDMDL
MODEL 8
REMARK VINA RESULT:      -4.3      1.754      3.160
REMARK  2 active torsions:
REMARK  status: ('A' for Active; 'I' for Inactive)
REMARK    1  A    between atoms: C_8  and  C_11 
REMARK    2  A    between atoms: O_10  and  C_11 
ROOT
HETATM    1  C   UNL     1      62.315   9.762   2.759  1.00  0.00     0.105 A 
HETATM    2  C   UNL     1      62.331  10.622   3.833  1.00  0.00     0.105 A 
HETATM    3  O   UNL     1      61.921  10.374   1.610  1.00  0.00    -0.323 OA
HETATM    4  O   UNL     1      61.954  11.883   3.492  1.00  0.00    -0.323 OA
HETATM    5  C   UNL     1      61.636  11.703   2.096  1.00  0.00     0.352 A 
HETATM    6  C   UNL     1      62.670   8.434   2.885  1.00  0.00     0.049 A 
HETATM    7  C   UNL     1      62.699  10.202   5.090  1.00  0.00     0.040 A 
HETATM    8  C   UNL     1      63.056   7.967   4.150  1.00  0.00    -0.032 A 
HETATM    9  C   UNL     1      63.060   8.859   5.249  1.00  0.00     0.012 A 
ENDROOT
BRANCH   8  10
HETATM   10  C   UNL     1      63.455   6.528   4.340  1.00  0.00     0.203 C 
BRANCH  10  11
HETATM   11  O   UNL     1      64.638   6.442   5.125  1.00  0.00    -0.396 OA
HETATM   12  H   UNL     1      65.236   5.782   4.741  1.00  0.00     0.209 HD
ENDBRANCH  10  11
ENDBRANCH   8  10
TORSDOF 2
ENDMDL
MODEL 9
REMARK VINA RESULT:      -4.2      2.479      4.298
REMARK  2 active torsions:
REMARK  status: ('A' for Active; 'I' for Inactive)
REMARK    1  A    between atoms: C_8  and  C_11 
REMARK    2  A    between atoms: O_10  and  C_11 
ROOT
HETATM    1  C   UNL     1      64.289   9.037   5.013  1.00  0.00     0.105 A 
HETATM    2  C   UNL     1      63.172   8.931   4.216  1.00  0.00     0.105 A 
HETATM    3  O   UNL     1      64.248  10.129   5.821  1.00  0.00    -0.323 OA
HETATM    4  O   UNL     1      62.288   9.941   4.428  1.00  0.00    -0.323 OA
HETATM    5  C   UNL     1      63.005  10.729   5.400  1.00  0.00     0.352 A 
HETATM    6  C   UNL     1      65.310   8.109   4.962  1.00  0.00     0.049 A 
HETATM    7  C   UNL     1      63.018   7.896   3.323  1.00  0.00     0.040 A 
HETATM    8  C   UNL     1      65.188   7.035   4.068  1.00  0.00    -0.032 A 
HETATM    9  C   UNL     1      64.039   6.942   3.245  1.00  0.00     0.012 A 
ENDROOT
BRANCH   8  10
HETATM   10  C   UNL     1      66.272   5.995   3.975  1.00  0.00     0.203 C 
BRANCH  10  11
HETATM   11  O   UNL     1      67.553   6.608   4.063  1.00  0.00    -0.396 OA
HETATM   12  H   UNL     1      67.464   7.565   3.933  1.00  0.00     0.209 HD
ENDBRANCH  10  11
ENDBRANCH   8  10
TORSDOF 2
ENDMDL
