MODEL 1
REMARK VINA RESULT:      -4.6      0.000      0.000
REMARK  2 active torsions:
REMARK  status: ('A' for Active; 'I' for Inactive)
REMARK    1  A    between atoms: C_8  and  C_11 
REMARK    2  A    between atoms: N_10  and  C_11 
ROOT
HETATM    1  C   UNL     1      62.274  10.419   3.983  1.00  0.00     0.105 A 
HETATM    2  C   UNL     1      63.113   9.509   4.581  1.00  0.00     0.105 A 
HETATM    3  O   UNL     1      62.127  11.553   4.720  1.00  0.00    -0.323 OA
HETATM    4  O   UNL     1      63.604   9.957   5.768  1.00  0.00    -0.323 OA
HETATM    5  C   UNL     1      63.023  11.278   5.817  1.00  0.00     0.352 A 
HETATM    6  C   UNL     1      61.677  10.170   2.764  1.00  0.00     0.048 A 
HETATM    7  C   UNL     1      63.399   8.294   4.000  1.00  0.00     0.040 A 
HETATM    8  C   UNL     1      61.957   8.949   2.127  1.00  0.00    -0.030 A 
HETATM    9  C   UNL     1      62.813   8.017   2.761  1.00  0.00     0.012 A 
ENDROOT
BRANCH   8  10
HETATM   10  C   UNL     1      61.356   8.629   0.782  1.00  0.00     0.268 C 
BRANCH  10  11
HETATM   11  N   UNL     1      59.903   8.524   0.864  1.00  0.00    -0.075 N 
HETATM   12  H   UNL     1      59.479   9.358   0.459  1.00  0.00     0.274 HD
HETATM   13  H   UNL     1      59.623   8.441   1.842  1.00  0.00     0.274 HD
HETATM   14  H   UNL     1      59.592   7.700   0.351  1.00  0.00     0.274 HD
ENDBRANCH  10  11
ENDBRANCH   8  10
TORSDOF 2
ENDMDL
MODEL 2
REMARK VINA RESULT:      -4.6      1.522      2.356
REMARK  2 active torsions:
REMARK  status: ('A' for Active; 'I' for Inactive)
REMARK    1  A    between atoms: C_8  and  C_11 
REMARK    2  A    between atoms: N_10  and  C_11 
ROOT
HETATM    1  C   UNL     1      62.809   9.650   4.165  1.00  0.00     0.105 A 
HETATM    2  C   UNL     1      62.201  10.768   3.644  1.00  0.00     0.105 A 
HETATM    3  O   UNL     1      63.207   9.830   5.453  1.00  0.00    -0.323 OA
HETATM    4  O   UNL     1      62.134  11.789   4.540  1.00  0.00    -0.323 OA
HETATM    5  C   UNL     1      62.718  11.164   5.702  1.00  0.00     0.352 A 
HETATM    6  C   UNL     1      62.968   8.495   3.428  1.00  0.00     0.048 A 
HETATM    7  C   UNL     1      61.721  10.797   2.353  1.00  0.00     0.040 A 
HETATM    8  C   UNL     1      62.476   8.477   2.112  1.00  0.00    -0.030 A 
HETATM    9  C   UNL     1      61.863   9.638   1.584  1.00  0.00     0.012 A 
ENDROOT
BRANCH   8  10
HETATM   10  C   UNL     1      62.597   7.235   1.264  1.00  0.00     0.268 C 
BRANCH  10  11
HETATM   11  N   UNL     1      63.540   6.288   1.847  1.00  0.00    -0.075 N 
HETATM   12  H   UNL     1      63.050   5.429   2.095  1.00  0.00     0.274 HD
HETATM   13  H   UNL     1      63.959   6.695   2.683  1.00  0.00     0.274 HD
HETATM   14  H   UNL     1      64.273   6.077   1.169  1.00  0.00     0.274 HD
ENDBRANCH  10  11
ENDBRANCH   8  10
TORSDOF 2
ENDMDL
MODEL 3
REMARK VINA RESULT:      -4.4      2.515      3.498
REMARK  2 active torsions:
REMARK  status: ('A' for Active; 'I' for Inactive)
REMARK    1  A    between atoms: C_8  and  C_11 
REMARK    2  A    between atoms: N_10  and  C_11 
ROOT
HETATM    1  C   UNL     1      62.276   9.787   2.816  1.00  0.00     0.105 A 
HETATM    2  C   UNL     1      62.311  10.692   3.852  1.00  0.00     0.105 A 
HETATM    3  O   UNL     1      61.847  10.348   1.653  1.00  0.00    -0.323 OA
HETATM    4  O   UNL     1      61.915  11.935   3.470  1.00  0.00    -0.323 OA
HETATM    5  C   UNL     1      61.683  11.722   2.061  1.00  0.00     0.352 A 
HETATM    6  C   UNL     1      62.651   8.470   2.984  1.00  0.00     0.048 A 
HETATM    7  C   UNL     1      62.718  10.330   5.117  1.00  0.00     0.040 A 
HETATM    8  C   UNL     1      63.090   8.064   4.255  1.00  0.00    -0.030 A 
HETATM    9  C   UNL     1      63.110   9.003   5.315  1.00  0.00     0.012 A 
ENDROOT
BRANCH   8  10
HETATM   10  C   UNL     1      63.538   6.645   4.496  1.00  0.00     0.268 C 
BRANCH  10  11
HETATM   11  N   UNL     1      63.734   6.386   5.918  1.00  0.00    -0.075 N 
HETATM   12  H   UNL     1      64.720   6.199   6.096  1.00  0.00     0.274 HD
HETATM   13  H   UNL     1      63.179   5.577   6.196  1.00  0.00     0.274 HD
HETATM   14  H   UNL     1      63.438   7.201   6.456  1.00  0.00     0.274 HD
ENDBRANCH  10  11
ENDBRANCH   8  10
TORSDOF 2
ENDMDL
MODEL 4
REMARK VINA RESULT:      -4.3      2.348      3.146
REMARK  2 active torsions:
REMARK  status: ('A' for Active; 'I' for Inactive)
REMARK    1  A    between atoms: C_8  and  C_11 
REMARK    2  A    between atoms: N_10  and  C_11 
ROOT
HETATM    1  C   UNL     1      64.679   8.676   5.140  1.00  0.00     0.105 A 
HETATM    2  C   UNL     1      65.147   7.492   4.620  1.00  0.00     0.105 A 
HETATM    3  O   UNL     1      65.456   9.140   6.156  1.00  0.00    -0.323 OA
HETATM    4  O   UNL     1      66.280   7.065   5.239  1.00  0.00    -0.323 OA
HETATM    5  C   UNL     1      66.502   8.146   6.169  1.00  0.00     0.352 A 
HETATM    6  C   UNL     1      63.547   9.293   4.646  1.00  0.00     0.048 A 
HETATM    7  C   UNL     1      64.508   6.852   3.581  1.00  0.00     0.040 A 
HETATM    8  C   UNL     1      62.875   8.683   3.574  1.00  0.00    -0.030 A 
HETATM    9  C   UNL     1      63.362   7.458   3.057  1.00  0.00     0.012 A 
ENDROOT
BRANCH   8  10
HETATM   10  C   UNL     1      61.648   9.321   2.974  1.00  0.00     0.268 C 
BRANCH  10  11
HETATM   11  N   UNL     1      61.685  10.772   3.115  1.00  0.00    -0.075 N 
HETATM   12  H   UNL     1      62.433  11.150   2.533  1.00  0.00     0.274 HD
HETATM   13  H   UNL     1      61.857  11.015   4.090  1.00  0.00     0.274 HD
HETATM   14  H   UNL     1      60.792  11.166   2.819  1.00  0.00     0.274 HD
ENDBRANCH  10  11
ENDBRANCH   8  10
TORSDOF 2
ENDMDL
MODEL 5
REMARK VINA RESULT:      -4.2      3.093      4.592
REMARK  2 active torsions:
REMARK  status: ('A' for Active; 'I' for Inactive)
REMARK    1  A    between atoms: C_8  and  C_11 
REMARK    2  A    between atoms: N_10  and  C_11 
ROOT
HETATM    1  C   UNL     1      62.677   8.166   2.254  1.00  0.00     0.105 A 
HETATM    2  C   UNL     1      62.100   9.151   1.486  1.00  0.00     0.105 A 
HETATM    3  O   UNL     1      62.907   7.026   1.547  1.00  0.00    -0.323 OA
HETATM    4  O   UNL     1      61.899   8.757   0.201  1.00  0.00    -0.323 OA
HETATM    5  C   UNL     1      62.470   7.432   0.233  1.00  0.00     0.352 A 
HETATM    6  C   UNL     1      62.980   8.362   3.586  1.00  0.00     0.048 A 
HETATM    7  C   UNL     1      61.786  10.386   2.008  1.00  0.00     0.040 A 
HETATM    8  C   UNL     1      62.693   9.614   4.152  1.00  0.00    -0.030 A 
HETATM    9  C   UNL     1      62.087  10.615   3.354  1.00  0.00     0.012 A 
ENDROOT
BRANCH   8  10
HETATM   10  C   UNL     1      63.023   9.898   5.596  1.00  0.00     0.268 C 
BRANCH  10  11
HETATM   11  N   UNL     1      63.190  11.329   5.828  1.00  0.00    -0.075 N 
HETATM   12  H   UNL     1      63.906  11.476   6.539  1.00  0.00     0.274 HD
HETATM   13  H   UNL     1      62.307  11.726   6.148  1.00  0.00     0.274 HD
HETATM   14  H   UNL     1      63.473  11.784   4.961  1.00  0.00     0.274 HD
ENDBRANCH  10  11
ENDBRANCH   8  10
TORSDOF 2
ENDMDL
MODEL 6
REMARK VINA RESULT:      -4.2      1.669      2.723
REMARK  2 active torsions:
REMARK  status: ('A' for Active; 'I' for Inactive)
REMARK    1  A    between atoms: C_8  and  C_11 
REMARK    2  A    between atoms: N_10  and  C_11 
ROOT
HETATM    1  C   UNL     1      64.129   8.121   4.191  1.00  0.00     0.105 A 
HETATM    2  C   UNL     1      64.020   9.209   5.024  1.00  0.00     0.105 A 
HETATM    3  O   UNL     1      65.240   7.379   4.449  1.00  0.00    -0.323 OA
HETATM    4  O   UNL     1      65.046   9.287   5.914  1.00  0.00    -0.323 OA
HETATM    5  C   UNL     1      65.780   8.090   5.583  1.00  0.00     0.352 A 
HETATM    6  C   UNL     1      63.186   7.846   3.222  1.00  0.00     0.048 A 
HETATM    7  C   UNL     1      62.966  10.091   4.932  1.00  0.00     0.040 A 
HETATM    8  C   UNL     1      62.085   8.710   3.107  1.00  0.00    -0.030 A 
HETATM    9  C   UNL     1      61.992   9.834   3.962  1.00  0.00     0.012 A 
ENDROOT
BRANCH   8  10
HETATM   10  C   UNL     1      61.008   8.449   2.084  1.00  0.00     0.268 C 
BRANCH  10  11
HETATM   11  N   UNL     1      59.734   8.144   2.725  1.00  0.00    -0.075 N 
HETATM   12  H   UNL     1      59.572   7.137   2.698  1.00  0.00     0.274 HD
HETATM   13  H   UNL     1      58.981   8.622   2.230  1.00  0.00     0.274 HD
HETATM   14  H   UNL     1      59.756   8.459   3.695  1.00  0.00     0.274 HD
ENDBRANCH  10  11
ENDBRANCH   8  10
TORSDOF 2
ENDMDL
MODEL 7
REMARK VINA RESULT:      -4.2      2.152      3.086
REMARK  2 active torsions:
REMARK  status: ('A' for Active; 'I' for Inactive)
REMARK    1  A    between atoms: C_8  and  C_11 
REMARK    2  A    between atoms: N_10  and  C_11 
ROOT
HETATM    1  C   UNL     1      62.663   7.666   4.494  1.00  0.00     0.105 A 
HETATM    2  C   UNL     1      62.911   8.462   5.588  1.00  0.00     0.105 A 
HETATM    3  O   UNL     1      62.773   6.341   4.781  1.00  0.00    -0.323 OA
HETATM    4  O   UNL     1      63.202   7.738   6.701  1.00  0.00    -0.323 OA
HETATM    5  C   UNL     1      63.051   6.395   6.195  1.00  0.00     0.352 A 
HETATM    6  C   UNL     1      62.334   8.199   3.264  1.00  0.00     0.048 A 
HETATM    7  C   UNL     1      62.851   9.836   5.514  1.00  0.00     0.040 A 
HETATM    8  C   UNL     1      62.244   9.596   3.151  1.00  0.00    -0.030 A 
HETATM    9  C   UNL     1      62.514  10.403   4.282  1.00  0.00     0.012 A 
ENDROOT
BRANCH   8  10
HETATM   10  C   UNL     1      61.864  10.237   1.840  1.00  0.00     0.268 C 
BRANCH  10  11
HETATM   11  N   UNL     1      61.584  11.659   2.009  1.00  0.00    -0.075 N 
HETATM   12  H   UNL     1      62.242  12.057   2.678  1.00  0.00     0.274 HD
HETATM   13  H   UNL     1      60.632  11.779   2.355  1.00  0.00     0.274 HD
HETATM   14  H   UNL     1      61.680  12.134   1.111  1.00  0.00     0.274 HD
ENDBRANCH  10  11
ENDBRANCH   8  10
TORSDOF 2
ENDMDL
MODEL 8
REMARK VINA RESULT:      -4.0      3.390      4.623
REMARK  2 active torsions:
REMARK  status: ('A' for Active; 'I' for Inactive)
REMARK    1  A    between atoms: C_8  and  C_11 
REMARK    2  A    between atoms: N_10  and  C_11 
ROOT
HETATM    1  C   UNL     1      65.127   7.697   4.644  1.00  0.00     0.105 A 
HETATM    2  C   UNL     1      64.477   7.061   3.612  1.00  0.00     0.105 A 
HETATM    3  O   UNL     1      66.286   7.075   4.989  1.00  0.00    -0.323 OA
HETATM    4  O   UNL     1      65.147   5.962   3.175  1.00  0.00    -0.323 OA
HETATM    5  C   UNL     1      66.323   6.014   4.011  1.00  0.00     0.352 A 
HETATM    6  C   UNL     1      64.625   8.843   5.226  1.00  0.00     0.048 A 
HETATM    7  C   UNL     1      63.284   7.529   3.108  1.00  0.00     0.040 A 
HETATM    8  C   UNL     1      63.419   9.364   4.729  1.00  0.00    -0.030 A 
HETATM    9  C   UNL     1      62.754   8.692   3.675  1.00  0.00     0.012 A 
ENDROOT
BRANCH   8  10
HETATM   10  C   UNL     1      62.832  10.628   5.307  1.00  0.00     0.268 C 
BRANCH  10  11
HETATM   11  N   UNL     1      63.783  11.297   6.187  1.00  0.00    -0.075 N 
HETATM   12  H   UNL     1      64.716  11.250   5.778  1.00  0.00     0.274 HD
HETATM   13  H   UNL     1      63.788  10.835   7.097  1.00  0.00     0.274 HD
HETATM   14  H   UNL     1      63.512  12.273   6.303  1.00  0.00     0.274 HD
ENDBRANCH  10  11
ENDBRANCH   8  10
TORSDOF 2
ENDMDL
MODEL 9
REMARK VINA RESULT:      -4.0      3.137      4.497
REMARK  2 active torsions:
REMARK  status: ('A' for Active; 'I' for Inactive)
REMARK    1  A    between atoms: C_8  and  C_11 
REMARK    2  A    between atoms: N_10  and  C_11 
ROOT
HETATM    1  C   UNL     1      62.841   8.258   2.581  1.00  0.00     0.105 A 
HETATM    2  C   UNL     1      62.244   9.471   2.836  1.00  0.00     0.105 A 
HETATM    3  O   UNL     1      62.602   7.818   1.316  1.00  0.00    -0.323 OA
HETATM    4  O   UNL     1      61.561   9.949   1.762  1.00  0.00    -0.323 OA
HETATM    5  C   UNL     1      61.845   8.925   0.785  1.00  0.00     0.352 A 
HETATM    6  C   UNL     1      63.596   7.602   3.532  1.00  0.00     0.048 A 
HETATM    7  C   UNL     1      62.363  10.095   4.058  1.00  0.00     0.040 A 
HETATM    8  C   UNL     1      63.757   8.214   4.786  1.00  0.00    -0.030 A 
HETATM    9  C   UNL     1      63.127   9.456   5.038  1.00  0.00     0.012 A 
ENDROOT
BRANCH   8  10
HETATM   10  C   UNL     1      64.591   7.559   5.858  1.00  0.00     0.268 C 
BRANCH  10  11
HETATM   11  N   UNL     1      65.713   8.407   6.245  1.00  0.00    -0.075 N 
HETATM   12  H   UNL     1      66.122   8.830   5.413  1.00  0.00     0.274 HD
HETATM   13  H   UNL     1      66.418   7.842   6.721  1.00  0.00     0.274 HD
HETATM   14  H   UNL     1      65.385   9.140   6.874  1.00  0.00     0.274 HD
ENDBRANCH  10  11
ENDBRANCH   8  10
TORSDOF 2
ENDMDL
