MODEL 1
REMARK VINA RESULT:      -5.5      0.000      0.000
REMARK  2 active torsions:
REMARK  status: ('A' for Active; 'I' for Inactive)
REMARK    1  A    between atoms: C_2  and  C_6 
REMARK    2  A    between atoms: C_6  and  O_7 
ROOT
HETATM    1  C   UNL     1      63.435   9.267   4.763  1.00  0.00     0.110 A 
HETATM    2  C   UNL     1      62.856  10.535   4.921  1.00  0.00     0.001 A 
HETATM    3  C   UNL     1      63.205   8.528   3.591  1.00  0.00     0.102 A 
HETATM    4  O   UNL     1      64.213   8.790   5.789  1.00  0.00    -0.346 OA
HETATM    5  O   UNL     1      63.718   7.274   3.374  1.00  0.00    -0.346 OA
HETATM    6  C   UNL     1      62.063  11.050   3.881  1.00  0.00     0.012 A 
HETATM    7  C   UNL     1      61.852  10.319   2.710  1.00  0.00     0.003 A 
HETATM    8  C   UNL     1      62.426   9.059   2.565  1.00  0.00     0.040 A 
HETATM    9  C   UNL     1      65.017   7.678   5.381  1.00  0.00     0.202 C 
HETATM   10  C   UNL     1      64.191   6.682   4.587  1.00  0.00     0.202 C 
ENDROOT
BRANCH   2  11
HETATM   11  C   UNL     1      63.054  11.355   6.167  1.00  0.00     0.205 C 
BRANCH  11  12
HETATM   12  O   UNL     1      64.444  11.513   6.434  1.00  0.00    -0.396 OA
HETATM   13  H   UNL     1      64.712  10.894   7.130  1.00  0.00     0.209 HD
ENDBRANCH  11  12
ENDBRANCH   2  11
TORSDOF 2
ENDMDL
MODEL 2
REMARK VINA RESULT:      -4.5      1.508      3.540
REMARK  2 active torsions:
REMARK  status: ('A' for Active; 'I' for Inactive)
REMARK    1  A    between atoms: C_2  and  C_6 
REMARK    2  A    between atoms: C_6  and  O_7 
ROOT
HETATM    1  C   UNL     1      62.562   8.949   3.210  1.00  0.00     0.110 A 
HETATM    2  C   UNL     1      62.174   9.534   1.995  1.00  0.00     0.001 A 
HETATM    3  C   UNL     1      62.610   9.721   4.381  1.00  0.00     0.102 A 
HETATM    4  O   UNL     1      62.894   7.616   3.197  1.00  0.00    -0.346 OA
HETATM    5  O   UNL     1      63.000   9.225   5.600  1.00  0.00    -0.346 OA
HETATM    6  C   UNL     1      61.821  10.894   1.983  1.00  0.00     0.012 A 
HETATM    7  C   UNL     1      61.851  11.654   3.155  1.00  0.00     0.003 A 
HETATM    8  C   UNL     1      62.243  11.066   4.354  1.00  0.00     0.040 A 
HETATM    9  C   UNL     1      62.928   7.059   4.515  1.00  0.00     0.202 C 
HETATM   10  C   UNL     1      63.678   7.973   5.465  1.00  0.00     0.202 C 
ENDROOT
BRANCH   2  11
HETATM   11  C   UNL     1      62.130   8.753   0.709  1.00  0.00     0.205 C 
BRANCH  11  12
HETATM   12  O   UNL     1      61.157   7.717   0.798  1.00  0.00    -0.396 OA
HETATM   13  H   UNL     1      60.788   7.544  -0.082  1.00  0.00     0.209 HD
ENDBRANCH  11  12
ENDBRANCH   2  11
TORSDOF 2
ENDMDL
MODEL 3
REMARK VINA RESULT:      -4.5      1.457      3.403
REMARK  2 active torsions:
REMARK  status: ('A' for Active; 'I' for Inactive)
REMARK    1  A    between atoms: C_2  and  C_6 
REMARK    2  A    between atoms: C_6  and  O_7 
ROOT
HETATM    1  C   UNL     1      63.951   8.984   4.673  1.00  0.00     0.110 A 
HETATM    2  C   UNL     1      64.890   7.943   4.639  1.00  0.00     0.001 A 
HETATM    3  C   UNL     1      62.836   8.957   3.820  1.00  0.00     0.102 A 
HETATM    4  O   UNL     1      64.173  10.014   5.555  1.00  0.00    -0.346 OA
HETATM    5  O   UNL     1      61.889   9.949   3.780  1.00  0.00    -0.346 OA
HETATM    6  C   UNL     1      64.680   6.873   3.752  1.00  0.00     0.012 A 
HETATM    7  C   UNL     1      63.560   6.841   2.919  1.00  0.00     0.003 A 
HETATM    8  C   UNL     1      62.637   7.882   2.955  1.00  0.00     0.040 A 
HETATM    9  C   UNL     1      63.003  10.816   5.750  1.00  0.00     0.202 C 
HETATM   10  C   UNL     1      62.349  11.142   4.421  1.00  0.00     0.202 C 
ENDROOT
BRANCH   2  11
HETATM   11  C   UNL     1      66.112   7.939   5.518  1.00  0.00     0.205 C 
BRANCH  11  12
HETATM   12  O   UNL     1      65.732   7.837   6.886  1.00  0.00    -0.396 OA
HETATM   13  H   UNL     1      65.306   6.980   7.041  1.00  0.00     0.209 HD
ENDBRANCH  11  12
ENDBRANCH   2  11
TORSDOF 2
ENDMDL
MODEL 4
REMARK VINA RESULT:      -4.4      1.633      3.207
REMARK  2 active torsions:
REMARK  status: ('A' for Active; 'I' for Inactive)
REMARK    1  A    between atoms: C_2  and  C_6 
REMARK    2  A    between atoms: C_6  and  O_7 
ROOT
HETATM    1  C   UNL     1      62.576   8.746   3.359  1.00  0.00     0.110 A 
HETATM    2  C   UNL     1      62.978   8.941   4.688  1.00  0.00     0.001 A 
HETATM    3  C   UNL     1      62.030   9.811   2.624  1.00  0.00     0.102 A 
HETATM    4  O   UNL     1      62.728   7.490   2.825  1.00  0.00    -0.346 OA
HETATM    5  O   UNL     1      61.594   9.692   1.328  1.00  0.00    -0.346 OA
HETATM    6  C   UNL     1      62.842  10.220   5.255  1.00  0.00     0.012 A 
HETATM    7  C   UNL     1      62.316  11.281   4.514  1.00  0.00     0.003 A 
HETATM    8  C   UNL     1      61.914  11.076   3.197  1.00  0.00     0.040 A 
HETATM    9  C   UNL     1      62.619   7.497   1.397  1.00  0.00     0.202 C 
HETATM   10  C   UNL     1      61.426   8.321   0.954  1.00  0.00     0.202 C 
ENDROOT
BRANCH   2  11
HETATM   11  C   UNL     1      63.547   7.826   5.524  1.00  0.00     0.205 C 
BRANCH  11  12
HETATM   12  O   UNL     1      62.940   7.819   6.812  1.00  0.00    -0.396 OA
HETATM   13  H   UNL     1      62.348   8.582   6.895  1.00  0.00     0.209 HD
ENDBRANCH  11  12
ENDBRANCH   2  11
TORSDOF 2
ENDMDL
MODEL 5
REMARK VINA RESULT:      -4.4      1.907      2.705
REMARK  2 active torsions:
REMARK  status: ('A' for Active; 'I' for Inactive)
REMARK    1  A    between atoms: C_2  and  C_6 
REMARK    2  A    between atoms: C_6  and  O_7 
ROOT
HETATM    1  C   UNL     1      62.881   8.709   2.982  1.00  0.00     0.110 A 
HETATM    2  C   UNL     1      62.203   9.525   2.064  1.00  0.00     0.001 A 
HETATM    3  C   UNL     1      63.167   7.372   2.660  1.00  0.00     0.102 A 
HETATM    4  O   UNL     1      63.236   9.263   4.187  1.00  0.00    -0.346 OA
HETATM    5  O   UNL     1      63.806   6.508   3.512  1.00  0.00    -0.346 OA
HETATM    6  C   UNL     1      61.838   8.984   0.820  1.00  0.00     0.012 A 
HETATM    7  C   UNL     1      62.141   7.659   0.497  1.00  0.00     0.003 A 
HETATM    8  C   UNL     1      62.809   6.855   1.416  1.00  0.00     0.040 A 
HETATM    9  C   UNL     1      64.206   8.469   4.879  1.00  0.00     0.202 C 
HETATM   10  C   UNL     1      63.815   7.004   4.854  1.00  0.00     0.202 C 
ENDROOT
BRANCH   2  11
HETATM   11  C   UNL     1      61.854  10.956   2.373  1.00  0.00     0.205 C 
BRANCH  11  12
HETATM   12  O   UNL     1      61.272  11.051   3.669  1.00  0.00    -0.396 OA
HETATM   13  H   UNL     1      61.967  11.216   4.325  1.00  0.00     0.209 HD
ENDBRANCH  11  12
ENDBRANCH   2  11
TORSDOF 2
ENDMDL
MODEL 6
REMARK VINA RESULT:      -4.3      1.326      3.035
REMARK  2 active torsions:
REMARK  status: ('A' for Active; 'I' for Inactive)
REMARK    1  A    between atoms: C_2  and  C_6 
REMARK    2  A    between atoms: C_6  and  O_7 
ROOT
HETATM    1  C   UNL     1      63.006   8.866   3.751  1.00  0.00     0.110 A 
HETATM    2  C   UNL     1      63.654   9.406   4.872  1.00  0.00     0.001 A 
HETATM    3  C   UNL     1      63.480   7.682   3.165  1.00  0.00     0.102 A 
HETATM    4  O   UNL     1      61.916   9.542   3.260  1.00  0.00    -0.346 OA
HETATM    5  O   UNL     1      62.913   7.107   2.056  1.00  0.00    -0.346 OA
HETATM    6  C   UNL     1      64.766   8.729   5.401  1.00  0.00     0.012 A 
HETATM    7  C   UNL     1      65.222   7.541   4.825  1.00  0.00     0.003 A 
HETATM    8  C   UNL     1      64.577   7.016   3.709  1.00  0.00     0.040 A 
HETATM    9  C   UNL     1      61.144   8.735   2.363  1.00  0.00     0.202 C 
HETATM   10  C   UNL     1      62.046   8.019   1.376  1.00  0.00     0.202 C 
ENDROOT
BRANCH   2  11
HETATM   11  C   UNL     1      63.198  10.685   5.522  1.00  0.00     0.205 C 
BRANCH  11  12
HETATM   12  O   UNL     1      64.282  11.299   6.211  1.00  0.00    -0.396 OA
HETATM   13  H   UNL     1      63.991  11.569   7.096  1.00  0.00     0.209 HD
ENDBRANCH  11  12
ENDBRANCH   2  11
TORSDOF 2
ENDMDL
MODEL 7
REMARK VINA RESULT:      -4.1     11.663     12.812
REMARK  2 active torsions:
REMARK  status: ('A' for Active; 'I' for Inactive)
REMARK    1  A    between atoms: C_2  and  C_6 
REMARK    2  A    between atoms: C_6  and  O_7 
ROOT
HETATM    1  C   UNL     1      56.933   2.430  12.249  1.00  0.00     0.110 A 
HETATM    2  C   UNL     1      58.218   2.513  11.693  1.00  0.00     0.001 A 
HETATM    3  C   UNL     1      56.745   1.828  13.504  1.00  0.00     0.102 A 
HETATM    4  O   UNL     1      55.889   2.946  11.521  1.00  0.00    -0.346 OA
HETATM    5  O   UNL     1      55.517   1.691  14.102  1.00  0.00    -0.346 OA
HETATM    6  C   UNL     1      59.304   2.001  12.423  1.00  0.00     0.012 A 
HETATM    7  C   UNL     1      59.114   1.420  13.679  1.00  0.00     0.003 A 
HETATM    8  C   UNL     1      57.835   1.337  14.220  1.00  0.00     0.040 A 
HETATM    9  C   UNL     1      54.713   3.122  12.318  1.00  0.00     0.202 C 
HETATM   10  C   UNL     1      54.452   1.893  13.168  1.00  0.00     0.202 C 
ENDROOT
BRANCH   2  11
HETATM   11  C   UNL     1      58.466   3.128  10.342  1.00  0.00     0.205 C 
BRANCH  11  12
HETATM   12  O   UNL     1      58.525   4.546  10.452  1.00  0.00    -0.396 OA
HETATM   13  H   UNL     1      59.233   4.794  11.066  1.00  0.00     0.209 HD
ENDBRANCH  11  12
ENDBRANCH   2  11
TORSDOF 2
ENDMDL
MODEL 8
REMARK VINA RESULT:      -3.8     11.377     12.444
REMARK  2 active torsions:
REMARK  status: ('A' for Active; 'I' for Inactive)
REMARK    1  A    between atoms: C_2  and  C_6 
REMARK    2  A    between atoms: C_6  and  O_7 
ROOT
HETATM    1  C   UNL     1      57.087   2.467  11.929  1.00  0.00     0.110 A 
HETATM    2  C   UNL     1      56.657   2.266  13.249  1.00  0.00     0.001 A 
HETATM    3  C   UNL     1      58.417   2.193  11.571  1.00  0.00     0.102 A 
HETATM    4  O   UNL     1      56.169   2.943  11.025  1.00  0.00    -0.346 OA
HETATM    5  O   UNL     1      58.916   2.385  10.307  1.00  0.00    -0.346 OA
HETATM    6  C   UNL     1      57.575   1.771  14.191  1.00  0.00     0.012 A 
HETATM    7  C   UNL     1      58.892   1.482  13.825  1.00  0.00     0.003 A 
HETATM    8  C   UNL     1      59.311   1.690  12.515  1.00  0.00     0.040 A 
HETATM    9  C   UNL     1      56.609   2.775   9.673  1.00  0.00     0.202 C 
HETATM   10  C   UNL     1      58.053   3.213   9.522  1.00  0.00     0.202 C 
ENDROOT
BRANCH   2  11
HETATM   11  C   UNL     1      55.248   2.567  13.686  1.00  0.00     0.205 C 
BRANCH  11  12
HETATM   12  O   UNL     1      55.249   3.128  14.994  1.00  0.00    -0.396 OA
HETATM   13  H   UNL     1      54.789   2.530  15.603  1.00  0.00     0.209 HD
ENDBRANCH  11  12
ENDBRANCH   2  11
TORSDOF 2
ENDMDL
MODEL 9
REMARK VINA RESULT:      -3.7      1.801      4.065
REMARK  2 active torsions:
REMARK  status: ('A' for Active; 'I' for Inactive)
REMARK    1  A    between atoms: C_2  and  C_6 
REMARK    2  A    between atoms: C_6  and  O_7 
ROOT
HETATM    1  C   UNL     1      65.062   7.981   4.989  1.00  0.00     0.110 A 
HETATM    2  C   UNL     1      66.292   7.606   5.549  1.00  0.00     0.001 A 
HETATM    3  C   UNL     1      64.554   7.291   3.876  1.00  0.00     0.102 A 
HETATM    4  O   UNL     1      64.396   9.037   5.561  1.00  0.00    -0.346 OA
HETATM    5  O   UNL     1      63.371   7.613   3.260  1.00  0.00    -0.346 OA
HETATM    6  C   UNL     1      66.988   6.523   4.987  1.00  0.00     0.012 A 
HETATM    7  C   UNL     1      66.470   5.827   3.892  1.00  0.00     0.003 A 
HETATM    8  C   UNL     1      65.251   6.210   3.339  1.00  0.00     0.040 A 
HETATM    9  C   UNL     1      63.028   9.100   5.143  1.00  0.00     0.202 C 
HETATM   10  C   UNL     1      62.917   8.915   3.642  1.00  0.00     0.202 C 
ENDROOT
BRANCH   2  11
HETATM   11  C   UNL     1      66.887   8.330   6.727  1.00  0.00     0.205 C 
BRANCH  11  12
HETATM   12  O   UNL     1      67.174   7.409   7.775  1.00  0.00    -0.396 OA
HETATM   13  H   UNL     1      68.114   7.173   7.750  1.00  0.00     0.209 HD
ENDBRANCH  11  12
ENDBRANCH   2  11
TORSDOF 2
ENDMDL
