MODEL 1
REMARK VINA RESULT:      -5.8      0.000      0.000
REMARK  2 active torsions:
REMARK  status: ('A' for Active; 'I' for Inactive)
REMARK    1  A    between atoms: C_3  and  C_12 
REMARK    2  A    between atoms: C_12  and  O_13 
ROOT
HETATM    1  C   UNL     1      63.605   9.084   4.850  1.00  0.00     0.088 A 
HETATM    2  C   UNL     1      63.505   8.242   3.734  1.00  0.00     0.003 A 
HETATM    3  C   UNL     1      62.934  10.321   4.890  1.00  0.00     0.002 A 
HETATM    4  O   UNL     1      64.392   8.760   5.925  1.00  0.00    -0.325 OA
HETATM    5  C   UNL     1      62.692   8.620   2.661  1.00  0.00     0.054 A 
HETATM    6  C   UNL     1      62.128  10.680   3.801  1.00  0.00     0.054 A 
HETATM    7  C   UNL     1      62.015   9.832   2.705  1.00  0.00     0.117 A 
HETATM    8  O   UNL     1      65.285   6.934   4.683  1.00  0.00    -0.362 OA
HETATM    9  C   UNL     1      64.785   7.387   5.934  1.00  0.00     0.345 C 
HETATM   10  C   UNL     1      64.240   6.938   3.717  1.00  0.00     0.212 C 
HETATM   11  F   UNL     1      61.241  10.189   1.672  1.00  0.00    -0.206 F 
ENDROOT
BRANCH   3  12
HETATM   12  C   UNL     1      63.059  11.246   6.072  1.00  0.00     0.205 C 
BRANCH  12  13
HETATM   13  O   UNL     1      64.422  11.470   6.409  1.00  0.00    -0.396 OA
HETATM   14  H   UNL     1      64.496  11.632   7.363  1.00  0.00     0.209 HD
ENDBRANCH  12  13
ENDBRANCH   3  12
TORSDOF 2
ENDMDL
MODEL 2
REMARK VINA RESULT:      -5.0      1.724      2.384
REMARK  2 active torsions:
REMARK  status: ('A' for Active; 'I' for Inactive)
REMARK    1  A    between atoms: C_3  and  C_12 
REMARK    2  A    between atoms: C_12  and  O_13 
ROOT
HETATM    1  C   UNL     1      62.703   8.702   3.201  1.00  0.00     0.088 A 
HETATM    2  C   UNL     1      62.352   8.801   1.848  1.00  0.00     0.003 A 
HETATM    3  C   UNL     1      62.631   9.818   4.054  1.00  0.00     0.002 A 
HETATM    4  O   UNL     1      63.169   7.529   3.736  1.00  0.00    -0.325 OA
HETATM    5  C   UNL     1      61.885  10.021   1.349  1.00  0.00     0.054 A 
HETATM    6  C   UNL     1      62.163  11.031   3.532  1.00  0.00     0.054 A 
HETATM    7  C   UNL     1      61.797  11.121   2.194  1.00  0.00     0.117 A 
HETATM    8  O   UNL     1      63.296   6.613   1.541  1.00  0.00    -0.362 OA
HETATM    9  C   UNL     1      62.928   6.398   2.897  1.00  0.00     0.345 C 
HETATM   10  C   UNL     1      62.450   7.598   0.961  1.00  0.00     0.212 C 
HETATM   11  F   UNL     1      61.352  12.287   1.708  1.00  0.00    -0.206 F 
ENDROOT
BRANCH   3  12
HETATM   12  C   UNL     1      63.034   9.728   5.503  1.00  0.00     0.205 C 
BRANCH  12  13
HETATM   13  O   UNL     1      64.448   9.690   5.643  1.00  0.00    -0.396 OA
HETATM   14  H   UNL     1      64.861  10.040   4.838  1.00  0.00     0.209 HD
ENDBRANCH  12  13
ENDBRANCH   3  12
TORSDOF 2
ENDMDL
MODEL 3
REMARK VINA RESULT:      -5.0      1.898      3.554
REMARK  2 active torsions:
REMARK  status: ('A' for Active; 'I' for Inactive)
REMARK    1  A    between atoms: C_3  and  C_12 
REMARK    2  A    between atoms: C_12  and  O_13 
ROOT
HETATM    1  C   UNL     1      62.685   8.858   3.384  1.00  0.00     0.088 A 
HETATM    2  C   UNL     1      62.561  10.026   4.149  1.00  0.00     0.003 A 
HETATM    3  C   UNL     1      62.333   8.840   2.022  1.00  0.00     0.002 A 
HETATM    4  O   UNL     1      63.109   7.678   3.941  1.00  0.00    -0.325 OA
HETATM    5  C   UNL     1      62.120  11.203   3.536  1.00  0.00     0.054 A 
HETATM    6  C   UNL     1      61.890  10.031   1.430  1.00  0.00     0.054 A 
HETATM    7  C   UNL     1      61.788  11.192   2.187  1.00  0.00     0.117 A 
HETATM    8  O   UNL     1      62.964   8.678   6.097  1.00  0.00    -0.362 OA
HETATM    9  C   UNL     1      63.719   7.853   5.221  1.00  0.00     0.345 C 
HETATM   10  C   UNL     1      62.932  10.010   5.600  1.00  0.00     0.212 C 
HETATM   11  F   UNL     1      61.363  12.322   1.607  1.00  0.00    -0.206 F 
ENDROOT
BRANCH   3  12
HETATM   12  C   UNL     1      62.434   7.582   1.199  1.00  0.00     0.205 C 
BRANCH  12  13
HETATM   13  O   UNL     1      61.581   6.565   1.707  1.00  0.00    -0.396 OA
HETATM   14  H   UNL     1      61.238   6.034   0.970  1.00  0.00     0.209 HD
ENDBRANCH  12  13
ENDBRANCH   3  12
TORSDOF 2
ENDMDL
MODEL 4
REMARK VINA RESULT:      -5.0      1.800      3.539
REMARK  2 active torsions:
REMARK  status: ('A' for Active; 'I' for Inactive)
REMARK    1  A    between atoms: C_3  and  C_12 
REMARK    2  A    between atoms: C_12  and  O_13 
ROOT
HETATM    1  C   UNL     1      63.007   9.042   4.423  1.00  0.00     0.088 A 
HETATM    2  C   UNL     1      62.480   9.505   3.210  1.00  0.00     0.003 A 
HETATM    3  C   UNL     1      63.493   7.728   4.550  1.00  0.00     0.002 A 
HETATM    4  O   UNL     1      63.031   9.833   5.543  1.00  0.00    -0.325 OA
HETATM    5  C   UNL     1      62.474   8.659   2.098  1.00  0.00     0.054 A 
HETATM    6  C   UNL     1      63.475   6.896   3.422  1.00  0.00     0.054 A 
HETATM    7  C   UNL     1      62.970   7.366   2.215  1.00  0.00     0.117 A 
HETATM    8  O   UNL     1      61.692  11.438   4.401  1.00  0.00    -0.362 OA
HETATM    9  C   UNL     1      62.805  11.214   5.255  1.00  0.00     0.345 C 
HETATM   10  C   UNL     1      61.959  10.906   3.110  1.00  0.00     0.212 C 
HETATM   11  F   UNL     1      62.959   6.559   1.147  1.00  0.00    -0.206 F 
ENDROOT
BRANCH   3  12
HETATM   12  C   UNL     1      64.035   7.212   5.858  1.00  0.00     0.205 C 
BRANCH  12  13
HETATM   13  O   UNL     1      63.137   7.476   6.927  1.00  0.00    -0.396 OA
HETATM   14  H   UNL     1      63.344   8.341   7.316  1.00  0.00     0.209 HD
ENDBRANCH  12  13
ENDBRANCH   3  12
TORSDOF 2
ENDMDL
MODEL 5
REMARK VINA RESULT:      -5.0      2.090      3.200
REMARK  2 active torsions:
REMARK  status: ('A' for Active; 'I' for Inactive)
REMARK    1  A    between atoms: C_3  and  C_12 
REMARK    2  A    between atoms: C_12  and  O_13 
ROOT
HETATM    1  C   UNL     1      63.078   8.596   3.374  1.00  0.00     0.088 A 
HETATM    2  C   UNL     1      62.229   9.442   2.646  1.00  0.00     0.003 A 
HETATM    3  C   UNL     1      63.601   8.988   4.620  1.00  0.00     0.002 A 
HETATM    4  O   UNL     1      63.465   7.375   2.883  1.00  0.00    -0.325 OA
HETATM    5  C   UNL     1      61.866  10.679   3.188  1.00  0.00     0.054 A 
HETATM    6  C   UNL     1      63.226  10.233   5.141  1.00  0.00     0.054 A 
HETATM    7  C   UNL     1      62.368  11.061   4.426  1.00  0.00     0.117 A 
HETATM    8  O   UNL     1      62.479   7.936   0.789  1.00  0.00    -0.362 OA
HETATM    9  C   UNL     1      62.668   6.938   1.782  1.00  0.00     0.345 C 
HETATM   10  C   UNL     1      61.697   9.001   1.318  1.00  0.00     0.212 C 
HETATM   11  F   UNL     1      62.018  12.249   4.937  1.00  0.00    -0.206 F 
ENDROOT
BRANCH   3  12
HETATM   12  C   UNL     1      64.537   8.098   5.395  1.00  0.00     0.205 C 
BRANCH  12  13
HETATM   13  O   UNL     1      65.575   8.852   6.007  1.00  0.00    -0.396 OA
HETATM   14  H   UNL     1      66.213   9.131   5.331  1.00  0.00     0.209 HD
ENDBRANCH  12  13
ENDBRANCH   3  12
TORSDOF 2
ENDMDL
MODEL 6
REMARK VINA RESULT:      -4.9      2.182      3.223
REMARK  2 active torsions:
REMARK  status: ('A' for Active; 'I' for Inactive)
REMARK    1  A    between atoms: C_3  and  C_12 
REMARK    2  A    between atoms: C_12  and  O_13 
ROOT
HETATM    1  C   UNL     1      62.653   9.868   3.532  1.00  0.00     0.088 A 
HETATM    2  C   UNL     1      63.342   8.723   3.952  1.00  0.00     0.003 A 
HETATM    3  C   UNL     1      61.997   9.908   2.287  1.00  0.00     0.002 A 
HETATM    4  O   UNL     1      62.625  11.008   4.295  1.00  0.00    -0.325 OA
HETATM    5  C   UNL     1      63.344   7.587   3.136  1.00  0.00     0.054 A 
HETATM    6  C   UNL     1      62.015   8.759   1.485  1.00  0.00     0.054 A 
HETATM    7  C   UNL     1      62.683   7.617   1.914  1.00  0.00     0.117 A 
HETATM    8  O   UNL     1      64.251  10.043   5.742  1.00  0.00    -0.362 OA
HETATM    9  C   UNL     1      63.046  10.788   5.642  1.00  0.00     0.345 C 
HETATM   10  C   UNL     1      64.039   8.715   5.277  1.00  0.00     0.212 C 
HETATM   11  F   UNL     1      62.692   6.527   1.136  1.00  0.00    -0.206 F 
ENDROOT
BRANCH   3  12
HETATM   12  C   UNL     1      61.279  11.145   1.815  1.00  0.00     0.205 C 
BRANCH  12  13
HETATM   13  O   UNL     1      62.137  12.277   1.833  1.00  0.00    -0.396 OA
HETATM   14  H   UNL     1      62.152  12.686   0.952  1.00  0.00     0.209 HD
ENDBRANCH  12  13
ENDBRANCH   3  12
TORSDOF 2
ENDMDL
MODEL 7
REMARK VINA RESULT:      -4.8      2.734      3.606
REMARK  2 active torsions:
REMARK  status: ('A' for Active; 'I' for Inactive)
REMARK    1  A    between atoms: C_3  and  C_12 
REMARK    2  A    between atoms: C_12  and  O_13 
ROOT
HETATM    1  C   UNL     1      62.805   9.304   3.585  1.00  0.00     0.088 A 
HETATM    2  C   UNL     1      63.050   8.107   2.898  1.00  0.00     0.003 A 
HETATM    3  C   UNL     1      63.388   9.553   4.842  1.00  0.00     0.002 A 
HETATM    4  O   UNL     1      61.958  10.258   3.084  1.00  0.00    -0.325 OA
HETATM    5  C   UNL     1      63.919   7.163   3.453  1.00  0.00     0.054 A 
HETATM    6  C   UNL     1      64.253   8.591   5.380  1.00  0.00     0.054 A 
HETATM    7  C   UNL     1      64.509   7.414   4.686  1.00  0.00     0.117 A 
HETATM    8  O   UNL     1      61.290   8.730   1.384  1.00  0.00    -0.362 OA
HETATM    9  C   UNL     1      61.657  10.066   1.701  1.00  0.00     0.345 C 
HETATM   10  C   UNL     1      62.406   7.866   1.567  1.00  0.00     0.212 C 
HETATM   11  F   UNL     1      65.338   6.504   5.214  1.00  0.00    -0.206 F 
ENDROOT
BRANCH   3  12
HETATM   12  C   UNL     1      63.108  10.823   5.601  1.00  0.00     0.205 C 
BRANCH  12  13
HETATM   13  O   UNL     1      64.285  11.322   6.222  1.00  0.00    -0.396 OA
HETATM   14  H   UNL     1      64.808  11.817   5.571  1.00  0.00     0.209 HD
ENDBRANCH  12  13
ENDBRANCH   3  12
TORSDOF 2
ENDMDL
MODEL 8
REMARK VINA RESULT:      -4.8      2.207      3.342
REMARK  2 active torsions:
REMARK  status: ('A' for Active; 'I' for Inactive)
REMARK    1  A    between atoms: C_3  and  C_12 
REMARK    2  A    between atoms: C_12  and  O_13 
ROOT
HETATM    1  C   UNL     1      62.964   8.511   3.253  1.00  0.00     0.088 A 
HETATM    2  C   UNL     1      63.512   8.785   4.513  1.00  0.00     0.003 A 
HETATM    3  C   UNL     1      62.119   9.435   2.611  1.00  0.00     0.002 A 
HETATM    4  O   UNL     1      63.193   7.319   2.615  1.00  0.00    -0.325 OA
HETATM    5  C   UNL     1      63.246  10.014   5.124  1.00  0.00     0.054 A 
HETATM    6  C   UNL     1      61.864  10.660   3.243  1.00  0.00     0.054 A 
HETATM    7  C   UNL     1      62.425  10.936   4.484  1.00  0.00     0.117 A 
HETATM    8  O   UNL     1      64.218   6.489   4.599  1.00  0.00    -0.362 OA
HETATM    9  C   UNL     1      64.278   6.583   3.182  1.00  0.00     0.345 C 
HETATM   10  C   UNL     1      64.399   7.777   5.176  1.00  0.00     0.212 C 
HETATM   11  F   UNL     1      62.171  12.110   5.076  1.00  0.00    -0.206 F 
ENDROOT
BRANCH   3  12
HETATM   12  C   UNL     1      61.502   9.137   1.269  1.00  0.00     0.205 C 
BRANCH  12  13
HETATM   13  O   UNL     1      62.498   8.879   0.290  1.00  0.00    -0.396 OA
HETATM   14  H   UNL     1      62.489   7.936   0.060  1.00  0.00     0.209 HD
ENDBRANCH  12  13
ENDBRANCH   3  12
TORSDOF 2
ENDMDL
MODEL 9
REMARK VINA RESULT:      -4.2      2.682      3.647
REMARK  2 active torsions:
REMARK  status: ('A' for Active; 'I' for Inactive)
REMARK    1  A    between atoms: C_3  and  C_12 
REMARK    2  A    between atoms: C_12  and  O_13 
ROOT
HETATM    1  C   UNL     1      62.223   8.332   3.260  1.00  0.00     0.088 A 
HETATM    2  C   UNL     1      62.609   8.487   4.598  1.00  0.00     0.003 A 
HETATM    3  C   UNL     1      61.839   9.439   2.481  1.00  0.00     0.002 A 
HETATM    4  O   UNL     1      62.162   7.095   2.670  1.00  0.00    -0.325 OA
HETATM    5  C   UNL     1      62.652   9.769   5.155  1.00  0.00     0.054 A 
HETATM    6  C   UNL     1      61.886  10.714   3.061  1.00  0.00     0.054 A 
HETATM    7  C   UNL     1      62.289  10.866   4.382  1.00  0.00     0.117 A 
HETATM    8  O   UNL     1      62.517   6.094   4.802  1.00  0.00    -0.362 OA
HETATM    9  C   UNL     1      62.842   6.086   3.418  1.00  0.00     0.345 C 
HETATM   10  C   UNL     1      63.001   7.288   5.405  1.00  0.00     0.212 C 
HETATM   11  F   UNL     1      62.329  12.091   4.923  1.00  0.00    -0.206 F 
ENDROOT
BRANCH   3  12
HETATM   12  C   UNL     1      61.394   9.278   1.050  1.00  0.00     0.205 C 
BRANCH  12  13
HETATM   13  O   UNL     1      60.163   8.573   0.970  1.00  0.00    -0.396 OA
HETATM   14  H   UNL     1      59.743   8.554   1.845  1.00  0.00     0.209 HD
ENDBRANCH  12  13
ENDBRANCH   3  12
TORSDOF 2
ENDMDL
