MODEL 1
REMARK VINA RESULT:      -5.1      0.000      0.000
REMARK  2 active torsions:
REMARK  status: ('A' for Active; 'I' for Inactive)
REMARK    1  A    between atoms: C_5  and  C_9 
REMARK    2  A    between atoms: O_7  and  C_9 
ROOT
HETATM    1  O   UNL     1      62.434  10.489   3.831  1.00  0.00    -0.339 OA
HETATM    2  O   UNL     1      63.417   7.808   4.350  1.00  0.00    -0.346 OA
HETATM    3  C   UNL     1      62.404   9.482   2.898  1.00  0.00     0.102 A 
HETATM    4  C   UNL     1      62.888   8.193   3.145  1.00  0.00     0.102 A 
HETATM    5  C   UNL     1      63.311  10.166   4.928  1.00  0.00     0.176 C 
HETATM    6  C   UNL     1      63.066   8.731   5.390  1.00  0.00     0.210 C 
HETATM    7  C   UNL     1      61.848   9.792   1.659  1.00  0.00     0.039 A 
HETATM    8  C   UNL     1      62.853   7.230   2.139  1.00  0.00     0.039 A 
HETATM    9  C   UNL     1      61.800   8.821   0.655  1.00  0.00     0.003 A 
HETATM   10  C   UNL     1      62.307   7.543   0.895  1.00  0.00     0.003 A 
ENDROOT
BRANCH   5  11
HETATM   11  C   UNL     1      63.048  11.173   6.048  1.00  0.00     0.198 C 
BRANCH  11  12
HETATM   12  O   UNL     1      64.263  11.716   6.560  1.00  0.00    -0.398 OA
HETATM   13  H   UNL     1      64.130  12.648   6.790  1.00  0.00     0.209 HD
ENDBRANCH  11  12
ENDBRANCH   5  11
TORSDOF 2
ENDMDL
MODEL 2
REMARK VINA RESULT:      -5.1      2.245      3.289
REMARK  2 active torsions:
REMARK  status: ('A' for Active; 'I' for Inactive)
REMARK    1  A    between atoms: C_5  and  C_9 
REMARK    2  A    between atoms: O_7  and  C_9 
ROOT
HETATM    1  O   UNL     1      64.677   9.494   5.458  1.00  0.00    -0.339 OA
HETATM    2  O   UNL     1      62.847   8.175   3.632  1.00  0.00    -0.346 OA
HETATM    3  C   UNL     1      64.976   8.323   4.808  1.00  0.00     0.102 A 
HETATM    4  C   UNL     1      64.089   7.681   3.936  1.00  0.00     0.102 A 
HETATM    5  C   UNL     1      63.265   9.780   5.408  1.00  0.00     0.176 C 
HETATM    6  C   UNL     1      62.735   9.558   3.993  1.00  0.00     0.210 C 
HETATM    7  C   UNL     1      66.238   7.779   5.043  1.00  0.00     0.039 A 
HETATM    8  C   UNL     1      64.450   6.477   3.335  1.00  0.00     0.039 A 
HETATM    9  C   UNL     1      66.604   6.579   4.428  1.00  0.00     0.003 A 
HETATM   10  C   UNL     1      65.709   5.927   3.579  1.00  0.00     0.003 A 
ENDROOT
BRANCH   5  11
HETATM   11  C   UNL     1      63.064  11.224   5.867  1.00  0.00     0.198 C 
BRANCH  11  12
HETATM   12  O   UNL     1      64.221  11.728   6.530  1.00  0.00    -0.398 OA
HETATM   13  H   UNL     1      64.042  12.623   6.859  1.00  0.00     0.209 HD
ENDBRANCH  11  12
ENDBRANCH   5  11
TORSDOF 2
ENDMDL
MODEL 3
REMARK VINA RESULT:      -5.0      2.273      3.311
REMARK  2 active torsions:
REMARK  status: ('A' for Active; 'I' for Inactive)
REMARK    1  A    between atoms: C_5  and  C_9 
REMARK    2  A    between atoms: O_7  and  C_9 
ROOT
HETATM    1  O   UNL     1      64.940   9.129   5.890  1.00  0.00    -0.339 OA
HETATM    2  O   UNL     1      64.239   7.337   3.716  1.00  0.00    -0.346 OA
HETATM    3  C   UNL     1      63.917   9.378   5.009  1.00  0.00     0.102 A 
HETATM    4  C   UNL     1      63.587   8.520   3.954  1.00  0.00     0.102 A 
HETATM    5  C   UNL     1      65.818   8.096   5.401  1.00  0.00     0.176 C 
HETATM    6  C   UNL     1      65.001   6.925   4.861  1.00  0.00     0.210 C 
HETATM    7  C   UNL     1      63.187  10.548   5.210  1.00  0.00     0.039 A 
HETATM    8  C   UNL     1      62.556   8.853   3.079  1.00  0.00     0.039 A 
HETATM    9  C   UNL     1      62.143  10.874   4.340  1.00  0.00     0.003 A 
HETATM   10  C   UNL     1      61.832  10.030   3.274  1.00  0.00     0.003 A 
ENDROOT
BRANCH   5  11
HETATM   11  C   UNL     1      66.724   7.667   6.556  1.00  0.00     0.198 C 
BRANCH  11  12
HETATM   12  O   UNL     1      67.054   8.769   7.399  1.00  0.00    -0.398 OA
HETATM   13  H   UNL     1      67.881   8.581   7.869  1.00  0.00     0.209 HD
ENDBRANCH  11  12
ENDBRANCH   5  11
TORSDOF 2
ENDMDL
MODEL 4
REMARK VINA RESULT:      -4.8      1.791      3.087
REMARK  2 active torsions:
REMARK  status: ('A' for Active; 'I' for Inactive)
REMARK    1  A    between atoms: C_5  and  C_9 
REMARK    2  A    between atoms: O_7  and  C_9 
ROOT
HETATM    1  O   UNL     1      63.055   8.696   5.101  1.00  0.00    -0.339 OA
HETATM    2  O   UNL     1      62.750   7.693   2.394  1.00  0.00    -0.346 OA
HETATM    3  C   UNL     1      62.622   9.472   4.055  1.00  0.00     0.102 A 
HETATM    4  C   UNL     1      62.486   8.991   2.748  1.00  0.00     0.102 A 
HETATM    5  C   UNL     1      63.663   7.475   4.636  1.00  0.00     0.176 C 
HETATM    6  C   UNL     1      62.800   6.841   3.548  1.00  0.00     0.210 C 
HETATM    7  C   UNL     1      62.302  10.797   4.347  1.00  0.00     0.039 A 
HETATM    8  C   UNL     1      62.070   9.846   1.729  1.00  0.00     0.039 A 
HETATM    9  C   UNL     1      61.871  11.649   3.327  1.00  0.00     0.003 A 
HETATM   10  C   UNL     1      61.760  11.175   2.020  1.00  0.00     0.003 A 
ENDROOT
BRANCH   5  11
HETATM   11  C   UNL     1      63.826   6.547   5.840  1.00  0.00     0.198 C 
BRANCH  11  12
HETATM   12  O   UNL     1      63.968   7.282   7.053  1.00  0.00    -0.398 OA
HETATM   13  H   UNL     1      63.671   8.195   6.915  1.00  0.00     0.209 HD
ENDBRANCH  11  12
ENDBRANCH   5  11
TORSDOF 2
ENDMDL
MODEL 5
REMARK VINA RESULT:      -4.5      2.924      4.655
REMARK  2 active torsions:
REMARK  status: ('A' for Active; 'I' for Inactive)
REMARK    1  A    between atoms: C_5  and  C_9 
REMARK    2  A    between atoms: O_7  and  C_9 
ROOT
HETATM    1  O   UNL     1      64.560   8.718   4.537  1.00  0.00    -0.339 OA
HETATM    2  O   UNL     1      63.592   7.330   6.896  1.00  0.00    -0.346 OA
HETATM    3  C   UNL     1      65.354   7.914   5.317  1.00  0.00     0.102 A 
HETATM    4  C   UNL     1      64.890   7.254   6.460  1.00  0.00     0.102 A 
HETATM    5  C   UNL     1      63.335   9.065   5.213  1.00  0.00     0.176 C 
HETATM    6  C   UNL     1      62.727   7.825   5.864  1.00  0.00     0.210 C 
HETATM    7  C   UNL     1      66.680   7.762   4.915  1.00  0.00     0.039 A 
HETATM    8  C   UNL     1      65.762   6.479   7.222  1.00  0.00     0.039 A 
HETATM    9  C   UNL     1      67.550   6.972   5.671  1.00  0.00     0.003 A 
HETATM   10  C   UNL     1      67.092   6.336   6.825  1.00  0.00     0.003 A 
ENDROOT
BRANCH   5  11
HETATM   11  C   UNL     1      62.392   9.683   4.181  1.00  0.00     0.198 C 
BRANCH  11  12
HETATM   12  O   UNL     1      62.063  11.030   4.512  1.00  0.00    -0.398 OA
HETATM   13  H   UNL     1      61.406  11.367   3.884  1.00  0.00     0.209 HD
ENDBRANCH  11  12
ENDBRANCH   5  11
TORSDOF 2
ENDMDL
MODEL 6
REMARK VINA RESULT:      -4.5      2.682      4.184
REMARK  2 active torsions:
REMARK  status: ('A' for Active; 'I' for Inactive)
REMARK    1  A    between atoms: C_5  and  C_9 
REMARK    2  A    between atoms: O_7  and  C_9 
ROOT
HETATM    1  O   UNL     1      63.481   7.654   3.553  1.00  0.00    -0.339 OA
HETATM    2  O   UNL     1      64.802   9.307   5.540  1.00  0.00    -0.346 OA
HETATM    3  C   UNL     1      64.735   7.385   4.043  1.00  0.00     0.102 A 
HETATM    4  C   UNL     1      65.376   8.189   4.992  1.00  0.00     0.102 A 
HETATM    5  C   UNL     1      63.072   9.001   3.861  1.00  0.00     0.176 C 
HETATM    6  C   UNL     1      63.384   9.323   5.320  1.00  0.00     0.210 C 
HETATM    7  C   UNL     1      65.368   6.243   3.556  1.00  0.00     0.039 A 
HETATM    8  C   UNL     1      66.663   7.872   5.421  1.00  0.00     0.039 A 
HETATM    9  C   UNL     1      66.652   5.917   3.998  1.00  0.00     0.003 A 
HETATM   10  C   UNL     1      67.301   6.734   4.925  1.00  0.00     0.003 A 
ENDROOT
BRANCH   5  11
HETATM   11  C   UNL     1      61.575   9.113   3.565  1.00  0.00     0.198 C 
BRANCH  11  12
HETATM   12  O   UNL     1      61.117  10.457   3.691  1.00  0.00    -0.398 OA
HETATM   13  H   UNL     1      60.216  10.460   4.051  1.00  0.00     0.209 HD
ENDBRANCH  11  12
ENDBRANCH   5  11
TORSDOF 2
ENDMDL
MODEL 7
REMARK VINA RESULT:      -4.5      2.376      4.046
REMARK  2 active torsions:
REMARK  status: ('A' for Active; 'I' for Inactive)
REMARK    1  A    between atoms: C_5  and  C_9 
REMARK    2  A    between atoms: O_7  and  C_9 
ROOT
HETATM    1  O   UNL     1      64.426   7.229   3.715  1.00  0.00    -0.339 OA
HETATM    2  O   UNL     1      65.052   9.056   5.882  1.00  0.00    -0.346 OA
HETATM    3  C   UNL     1      63.720   8.381   3.956  1.00  0.00     0.102 A 
HETATM    4  C   UNL     1      64.015   9.256   5.008  1.00  0.00     0.102 A 
HETATM    5  C   UNL     1      65.248   6.868   4.842  1.00  0.00     0.176 C 
HETATM    6  C   UNL     1      65.986   8.096   5.368  1.00  0.00     0.210 C 
HETATM    7  C   UNL     1      62.670   8.668   3.085  1.00  0.00     0.039 A 
HETATM    8  C   UNL     1      63.234  10.392   5.211  1.00  0.00     0.039 A 
HETATM    9  C   UNL     1      61.897   9.815   3.281  1.00  0.00     0.003 A 
HETATM   10  C   UNL     1      62.176  10.673   4.346  1.00  0.00     0.003 A 
ENDROOT
BRANCH   5  11
HETATM   11  C   UNL     1      66.218   5.778   4.383  1.00  0.00     0.198 C 
BRANCH  11  12
HETATM   12  O   UNL     1      67.334   6.330   3.690  1.00  0.00    -0.398 OA
HETATM   13  H   UNL     1      68.087   6.405   4.296  1.00  0.00     0.209 HD
ENDBRANCH  11  12
ENDBRANCH   5  11
TORSDOF 2
ENDMDL
MODEL 8
REMARK VINA RESULT:      -4.3      1.781      3.460
REMARK  2 active torsions:
REMARK  status: ('A' for Active; 'I' for Inactive)
REMARK    1  A    between atoms: C_5  and  C_9 
REMARK    2  A    between atoms: O_7  and  C_9 
ROOT
HETATM    1  O   UNL     1      62.956   7.322   3.393  1.00  0.00    -0.339 OA
HETATM    2  O   UNL     1      63.014   9.190   5.614  1.00  0.00    -0.346 OA
HETATM    3  C   UNL     1      62.604   8.644   3.275  1.00  0.00     0.102 A 
HETATM    4  C   UNL     1      62.621   9.541   4.348  1.00  0.00     0.102 A 
HETATM    5  C   UNL     1      63.003   6.910   4.773  1.00  0.00     0.176 C 
HETATM    6  C   UNL     1      63.742   7.954   5.607  1.00  0.00     0.210 C 
HETATM    7  C   UNL     1      62.224   9.082   2.007  1.00  0.00     0.039 A 
HETATM    8  C   UNL     1      62.219  10.862   4.161  1.00  0.00     0.039 A 
HETATM    9  C   UNL     1      61.836  10.410   1.817  1.00  0.00     0.003 A 
HETATM   10  C   UNL     1      61.829  11.297   2.894  1.00  0.00     0.003 A 
ENDROOT
BRANCH   5  11
HETATM   11  C   UNL     1      63.696   5.548   4.830  1.00  0.00     0.198 C 
BRANCH  11  12
HETATM   12  O   UNL     1      64.683   5.505   5.857  1.00  0.00    -0.398 OA
HETATM   13  H   UNL     1      65.483   5.072   5.520  1.00  0.00     0.209 HD
ENDBRANCH  11  12
ENDBRANCH   5  11
TORSDOF 2
ENDMDL
MODEL 9
REMARK VINA RESULT:      -4.2      4.326      6.300
REMARK  2 active torsions:
REMARK  status: ('A' for Active; 'I' for Inactive)
REMARK    1  A    between atoms: C_5  and  C_9 
REMARK    2  A    between atoms: O_7  and  C_9 
ROOT
HETATM    1  O   UNL     1      64.556   7.175   7.276  1.00  0.00    -0.339 OA
HETATM    2  O   UNL     1      65.651   5.425   5.235  1.00  0.00    -0.346 OA
HETATM    3  C   UNL     1      65.718   6.463   7.440  1.00  0.00     0.102 A 
HETATM    4  C   UNL     1      66.240   5.610   6.460  1.00  0.00     0.102 A 
HETATM    5  C   UNL     1      63.789   6.685   6.158  1.00  0.00     0.176 C 
HETATM    6  C   UNL     1      64.701   6.463   4.954  1.00  0.00     0.210 C 
HETATM    7  C   UNL     1      66.390   6.627   8.649  1.00  0.00     0.039 A 
HETATM    8  C   UNL     1      67.408   4.894   6.708  1.00  0.00     0.039 A 
HETATM    9  C   UNL     1      67.570   5.919   8.891  1.00  0.00     0.003 A 
HETATM   10  C   UNL     1      68.075   5.050   7.924  1.00  0.00     0.003 A 
ENDROOT
BRANCH   5  11
HETATM   11  C   UNL     1      62.695   7.710   5.857  1.00  0.00     0.198 C 
BRANCH  11  12
HETATM   12  O   UNL     1      63.206   9.040   5.871  1.00  0.00    -0.398 OA
HETATM   13  H   UNL     1      62.479   9.665   6.017  1.00  0.00     0.209 HD
ENDBRANCH  11  12
ENDBRANCH   5  11
TORSDOF 2
ENDMDL
