MODEL 1
REMARK VINA RESULT:      -4.6      0.000      0.000
REMARK  2 active torsions:
REMARK  status: ('A' for Active; 'I' for Inactive)
REMARK    1  A    between atoms: C_7  and  C_12 
REMARK    2  A    between atoms: N_9  and  C_12 
ROOT
HETATM    1  C   UNL     1      64.807   8.540   5.190  1.00  0.00     0.102 A 
HETATM    2  C   UNL     1      64.899   7.395   4.392  1.00  0.00     0.102 A 
HETATM    3  O   UNL     1      65.694   8.828   6.195  1.00  0.00    -0.346 OA
HETATM    4  C   UNL     1      63.770   9.452   4.991  1.00  0.00     0.048 A 
HETATM    5  O   UNL     1      65.884   6.453   4.538  1.00  0.00    -0.346 OA
HETATM    6  C   UNL     1      63.970   7.177   3.379  1.00  0.00     0.040 A 
HETATM    7  C   UNL     1      62.827   9.242   3.976  1.00  0.00    -0.030 A 
HETATM    8  C   UNL     1      62.936   8.093   3.175  1.00  0.00     0.012 A 
HETATM    9  C   UNL     1      66.885   8.040   6.087  1.00  0.00     0.202 C 
HETATM   10  C   UNL     1      66.555   6.586   5.794  1.00  0.00     0.202 C 
ENDROOT
BRANCH   7  11
HETATM   11  C   UNL     1      61.712  10.230   3.741  1.00  0.00     0.268 C 
BRANCH  11  12
HETATM   12  N   UNL     1      61.711  10.710   2.364  1.00  0.00    -0.075 N 
HETATM   13  H   UNL     1      60.917  10.308   1.865  1.00  0.00     0.274 HD
HETATM   14  H   UNL     1      62.578  10.431   1.905  1.00  0.00     0.274 HD
HETATM   15  H   UNL     1      61.635  11.727   2.358  1.00  0.00     0.274 HD
ENDBRANCH  11  12
ENDBRANCH   7  11
TORSDOF 2
ENDMDL
MODEL 2
REMARK VINA RESULT:      -4.6      3.142      4.303
REMARK  2 active torsions:
REMARK  status: ('A' for Active; 'I' for Inactive)
REMARK    1  A    between atoms: C_7  and  C_12 
REMARK    2  A    between atoms: N_9  and  C_12 
ROOT
HETATM    1  C   UNL     1      62.639   8.524   2.866  1.00  0.00     0.102 A 
HETATM    2  C   UNL     1      62.150   9.146   1.712  1.00  0.00     0.102 A 
HETATM    3  O   UNL     1      63.022   7.208   2.906  1.00  0.00    -0.346 OA
HETATM    4  C   UNL     1      62.748   9.244   4.056  1.00  0.00     0.048 A 
HETATM    5  O   UNL     1      62.006   8.499   0.512  1.00  0.00    -0.346 OA
HETATM    6  C   UNL     1      61.796  10.491   1.744  1.00  0.00     0.040 A 
HETATM    7  C   UNL     1      62.393  10.599   4.101  1.00  0.00    -0.030 A 
HETATM    8  C   UNL     1      61.911  11.213   2.933  1.00  0.00     0.012 A 
HETATM    9  C   UNL     1      63.202   6.674   1.590  1.00  0.00     0.202 C 
HETATM   10  C   UNL     1      62.059   7.078   0.673  1.00  0.00     0.202 C 
ENDROOT
BRANCH   7  11
HETATM   11  C   UNL     1      62.522  11.390   5.378  1.00  0.00     0.268 C 
BRANCH  11  12
HETATM   12  N   UNL     1      63.784  11.105   6.052  1.00  0.00    -0.075 N 
HETATM   13  H   UNL     1      64.144  11.962   6.475  1.00  0.00     0.274 HD
HETATM   14  H   UNL     1      64.459  10.751   5.375  1.00  0.00     0.274 HD
HETATM   15  H   UNL     1      63.632  10.407   6.779  1.00  0.00     0.274 HD
ENDBRANCH  11  12
ENDBRANCH   7  11
TORSDOF 2
ENDMDL
MODEL 3
REMARK VINA RESULT:      -4.4      2.833      4.332
REMARK  2 active torsions:
REMARK  status: ('A' for Active; 'I' for Inactive)
REMARK    1  A    between atoms: C_7  and  C_12 
REMARK    2  A    between atoms: N_9  and  C_12 
ROOT
HETATM    1  C   UNL     1      64.443   8.986   5.004  1.00  0.00     0.102 A 
HETATM    2  C   UNL     1      63.573   8.441   4.054  1.00  0.00     0.102 A 
HETATM    3  O   UNL     1      64.206  10.173   5.646  1.00  0.00    -0.346 OA
HETATM    4  C   UNL     1      65.625   8.322   5.333  1.00  0.00     0.048 A 
HETATM    5  O   UNL     1      62.401   9.043   3.674  1.00  0.00    -0.346 OA
HETATM    6  C   UNL     1      63.873   7.222   3.454  1.00  0.00     0.040 A 
HETATM    7  C   UNL     1      65.939   7.094   4.735  1.00  0.00    -0.030 A 
HETATM    8  C   UNL     1      65.052   6.554   3.789  1.00  0.00     0.012 A 
HETATM    9  C   UNL     1      62.842  10.584   5.506  1.00  0.00     0.202 C 
HETATM   10  C   UNL     1      62.364  10.416   4.073  1.00  0.00     0.202 C 
ENDROOT
BRANCH   7  11
HETATM   11  C   UNL     1      67.206   6.360   5.096  1.00  0.00     0.268 C 
BRANCH  11  12
HETATM   12  N   UNL     1      68.075   7.182   5.932  1.00  0.00    -0.075 N 
HETATM   13  H   UNL     1      67.535   7.565   6.708  1.00  0.00     0.274 HD
HETATM   14  H   UNL     1      68.460   7.945   5.376  1.00  0.00     0.274 HD
HETATM   15  H   UNL     1      68.835   6.609   6.297  1.00  0.00     0.274 HD
ENDBRANCH  11  12
ENDBRANCH   7  11
TORSDOF 2
ENDMDL
MODEL 4
REMARK VINA RESULT:      -4.3      0.728      2.131
REMARK  2 active torsions:
REMARK  status: ('A' for Active; 'I' for Inactive)
REMARK    1  A    between atoms: C_7  and  C_12 
REMARK    2  A    between atoms: N_9  and  C_12 
ROOT
HETATM    1  C   UNL     1      64.627   7.562   4.288  1.00  0.00     0.102 A 
HETATM    2  C   UNL     1      64.627   8.659   5.157  1.00  0.00     0.102 A 
HETATM    3  O   UNL     1      65.589   6.586   4.312  1.00  0.00    -0.346 OA
HETATM    4  C   UNL     1      63.621   7.426   3.331  1.00  0.00     0.048 A 
HETATM    5  O   UNL     1      65.587   8.862   6.113  1.00  0.00    -0.346 OA
HETATM    6  C   UNL     1      63.607   9.603   5.083  1.00  0.00     0.040 A 
HETATM    7  C   UNL     1      62.590   8.371   3.246  1.00  0.00    -0.030 A 
HETATM    8  C   UNL     1      62.596   9.463   4.130  1.00  0.00     0.012 A 
HETATM    9  C   UNL     1      66.350   6.628   5.524  1.00  0.00     0.202 C 
HETATM   10  C   UNL     1      66.743   8.053   5.875  1.00  0.00     0.202 C 
ENDROOT
BRANCH   7  11
HETATM   11  C   UNL     1      61.489   8.225   2.227  1.00  0.00     0.268 C 
BRANCH  11  12
HETATM   12  N   UNL     1      61.079   9.522   1.700  1.00  0.00    -0.075 N 
HETATM   13  H   UNL     1      60.530  10.015   2.404  1.00  0.00     0.274 HD
HETATM   14  H   UNL     1      60.514   9.385   0.862  1.00  0.00     0.274 HD
HETATM   15  H   UNL     1      61.906  10.071   1.467  1.00  0.00     0.274 HD
ENDBRANCH  11  12
ENDBRANCH   7  11
TORSDOF 2
ENDMDL
MODEL 5
REMARK VINA RESULT:      -4.3      3.711      5.628
REMARK  2 active torsions:
REMARK  status: ('A' for Active; 'I' for Inactive)
REMARK    1  A    between atoms: C_7  and  C_12 
REMARK    2  A    between atoms: N_9  and  C_12 
ROOT
HETATM    1  C   UNL     1      65.269   6.952   6.813  1.00  0.00     0.102 A 
HETATM    2  C   UNL     1      66.054   7.386   5.741  1.00  0.00     0.102 A 
HETATM    3  O   UNL     1      63.942   7.269   6.950  1.00  0.00    -0.346 OA
HETATM    4  C   UNL     1      65.829   6.163   7.818  1.00  0.00     0.048 A 
HETATM    5  O   UNL     1      65.574   8.170   4.725  1.00  0.00    -0.346 OA
HETATM    6  C   UNL     1      67.392   7.010   5.662  1.00  0.00     0.040 A 
HETATM    7  C   UNL     1      67.175   5.779   7.751  1.00  0.00    -0.030 A 
HETATM    8  C   UNL     1      67.952   6.215   6.663  1.00  0.00     0.012 A 
HETATM    9  C   UNL     1      63.392   7.766   5.725  1.00  0.00     0.202 C 
HETATM   10  C   UNL     1      64.325   8.775   5.075  1.00  0.00     0.202 C 
ENDROOT
BRANCH   7  11
HETATM   11  C   UNL     1      67.787   4.913   8.823  1.00  0.00     0.268 C 
BRANCH  11  12
HETATM   12  N   UNL     1      67.200   3.578   8.825  1.00  0.00    -0.075 N 
HETATM   13  H   UNL     1      66.780   3.391   7.914  1.00  0.00     0.274 HD
HETATM   14  H   UNL     1      66.483   3.523   9.548  1.00  0.00     0.274 HD
HETATM   15  H   UNL     1      67.926   2.887   9.012  1.00  0.00     0.274 HD
ENDBRANCH  11  12
ENDBRANCH   7  11
TORSDOF 2
ENDMDL
MODEL 6
REMARK VINA RESULT:      -4.1      2.320      4.067
REMARK  2 active torsions:
REMARK  status: ('A' for Active; 'I' for Inactive)
REMARK    1  A    between atoms: C_7  and  C_12 
REMARK    2  A    between atoms: N_9  and  C_12 
ROOT
HETATM    1  C   UNL     1      63.039   8.892   3.928  1.00  0.00     0.102 A 
HETATM    2  C   UNL     1      64.075   9.112   4.842  1.00  0.00     0.102 A 
HETATM    3  O   UNL     1      62.005   9.771   3.739  1.00  0.00    -0.346 OA
HETATM    4  C   UNL     1      63.018   7.727   3.161  1.00  0.00     0.048 A 
HETATM    5  O   UNL     1      64.154  10.227   5.635  1.00  0.00    -0.346 OA
HETATM    6  C   UNL     1      65.101   8.180   4.968  1.00  0.00     0.040 A 
HETATM    7  C   UNL     1      64.044   6.780   3.280  1.00  0.00    -0.030 A 
HETATM    8  C   UNL     1      65.084   7.017   4.196  1.00  0.00     0.012 A 
HETATM    9  C   UNL     1      62.299  11.056   4.296  1.00  0.00     0.202 C 
HETATM   10  C   UNL     1      62.907  10.926   5.683  1.00  0.00     0.202 C 
ENDROOT
BRANCH   7  11
HETATM   11  C   UNL     1      64.040   5.525   2.444  1.00  0.00     0.268 C 
BRANCH  11  12
HETATM   12  N   UNL     1      63.687   5.813   1.058  1.00  0.00    -0.075 N 
HETATM   13  H   UNL     1      64.495   5.638   0.459  1.00  0.00     0.274 HD
HETATM   14  H   UNL     1      63.408   6.790   0.974  1.00  0.00     0.274 HD
HETATM   15  H   UNL     1      62.915   5.212   0.771  1.00  0.00     0.274 HD
ENDBRANCH  11  12
ENDBRANCH   7  11
TORSDOF 2
ENDMDL
MODEL 7
REMARK VINA RESULT:      -4.0      3.102      4.905
REMARK  2 active torsions:
REMARK  status: ('A' for Active; 'I' for Inactive)
REMARK    1  A    between atoms: C_7  and  C_12 
REMARK    2  A    between atoms: N_9  and  C_12 
ROOT
HETATM    1  C   UNL     1      63.014   7.847   2.603  1.00  0.00     0.102 A 
HETATM    2  C   UNL     1      62.355   9.059   2.832  1.00  0.00     0.102 A 
HETATM    3  O   UNL     1      62.864   7.115   1.454  1.00  0.00    -0.346 OA
HETATM    4  C   UNL     1      63.866   7.318   3.573  1.00  0.00     0.048 A 
HETATM    5  O   UNL     1      61.497   9.631   1.930  1.00  0.00    -0.346 OA
HETATM    6  C   UNL     1      62.570   9.754   4.019  1.00  0.00     0.040 A 
HETATM    7  C   UNL     1      64.089   8.007   4.773  1.00  0.00    -0.030 A 
HETATM    8  C   UNL     1      63.428   9.229   4.987  1.00  0.00     0.012 A 
HETATM    9  C   UNL     1      62.268   7.893   0.410  1.00  0.00     0.202 C 
HETATM   10  C   UNL     1      61.085   8.694   0.931  1.00  0.00     0.202 C 
ENDROOT
BRANCH   7  11
HETATM   11  C   UNL     1      65.020   7.453   5.821  1.00  0.00     0.268 C 
BRANCH  11  12
HETATM   12  N   UNL     1      65.897   8.491   6.354  1.00  0.00    -0.075 N 
HETATM   13  H   UNL     1      66.841   8.357   5.990  1.00  0.00     0.274 HD
HETATM   14  H   UNL     1      65.913   8.434   7.371  1.00  0.00     0.274 HD
HETATM   15  H   UNL     1      65.550   9.407   6.070  1.00  0.00     0.274 HD
ENDBRANCH  11  12
ENDBRANCH   7  11
TORSDOF 2
ENDMDL
MODEL 8
REMARK VINA RESULT:      -3.8      2.329      3.260
REMARK  2 active torsions:
REMARK  status: ('A' for Active; 'I' for Inactive)
REMARK    1  A    between atoms: C_7  and  C_12 
REMARK    2  A    between atoms: N_9  and  C_12 
ROOT
HETATM    1  C   UNL     1      65.663   6.174   6.967  1.00  0.00     0.102 A 
HETATM    2  C   UNL     1      66.840   6.607   6.347  1.00  0.00     0.102 A 
HETATM    3  O   UNL     1      65.634   5.185   7.916  1.00  0.00    -0.346 OA
HETATM    4  C   UNL     1      64.438   6.746   6.623  1.00  0.00     0.048 A 
HETATM    5  O   UNL     1      68.075   6.084   6.629  1.00  0.00    -0.346 OA
HETATM    6  C   UNL     1      66.792   7.628   5.403  1.00  0.00     0.040 A 
HETATM    7  C   UNL     1      64.377   7.774   5.672  1.00  0.00    -0.030 A 
HETATM    8  C   UNL     1      65.568   8.206   5.063  1.00  0.00     0.012 A 
HETATM    9  C   UNL     1      66.939   4.921   8.440  1.00  0.00     0.202 C 
HETATM   10  C   UNL     1      67.971   4.839   7.326  1.00  0.00     0.202 C 
ENDROOT
BRANCH   7  11
HETATM   11  C   UNL     1      63.061   8.410   5.304  1.00  0.00     0.268 C 
BRANCH  11  12
HETATM   12  N   UNL     1      63.036   9.823   5.665  1.00  0.00    -0.075 N 
HETATM   13  H   UNL     1      62.463   9.949   6.500  1.00  0.00     0.274 HD
HETATM   14  H   UNL     1      62.640  10.363   4.896  1.00  0.00     0.274 HD
HETATM   15  H   UNL     1      63.985  10.143   5.853  1.00  0.00     0.274 HD
ENDBRANCH  11  12
ENDBRANCH   7  11
TORSDOF 2
ENDMDL
MODEL 9
REMARK VINA RESULT:      -3.7      4.186      4.677
REMARK  2 active torsions:
REMARK  status: ('A' for Active; 'I' for Inactive)
REMARK    1  A    between atoms: C_7  and  C_12 
REMARK    2  A    between atoms: N_9  and  C_12 
ROOT
HETATM    1  C   UNL     1      61.100   7.384   2.715  1.00  0.00     0.102 A 
HETATM    2  C   UNL     1      61.473   7.087   1.400  1.00  0.00     0.102 A 
HETATM    3  O   UNL     1      60.591   6.451   3.581  1.00  0.00    -0.346 OA
HETATM    4  C   UNL     1      61.230   8.685   3.204  1.00  0.00     0.048 A 
HETATM    5  O   UNL     1      61.363   5.836   0.851  1.00  0.00    -0.346 OA
HETATM    6  C   UNL     1      61.998   8.085   0.584  1.00  0.00     0.040 A 
HETATM    7  C   UNL     1      61.756   9.698   2.391  1.00  0.00    -0.030 A 
HETATM    8  C   UNL     1      62.135   9.384   1.074  1.00  0.00     0.012 A 
HETATM    9  C   UNL     1      60.824   5.118   3.113  1.00  0.00     0.202 C 
HETATM   10  C   UNL     1      60.509   4.994   1.631  1.00  0.00     0.202 C 
ENDROOT
BRANCH   7  11
HETATM   11  C   UNL     1      61.916  11.103   2.914  1.00  0.00     0.268 C 
BRANCH  11  12
HETATM   12  N   UNL     1      61.819  12.083   1.837  1.00  0.00    -0.075 N 
HETATM   13  H   UNL     1      62.463  11.828   1.088  1.00  0.00     0.274 HD
HETATM   14  H   UNL     1      62.063  13.007   2.195  1.00  0.00     0.274 HD
HETATM   15  H   UNL     1      60.866  12.098   1.476  1.00  0.00     0.274 HD
ENDBRANCH  11  12
ENDBRANCH   7  11
TORSDOF 2
ENDMDL
