MODEL 1
REMARK VINA RESULT:      -5.3      0.000      0.000
REMARK  2 active torsions:
REMARK  status: ('A' for Active; 'I' for Inactive)
REMARK    1  A    between atoms: C_3  and  C_7 
REMARK    2  A    between atoms: C_7  and  O_8 
ROOT
HETATM    1  C   UNL     1      63.900   9.279   4.946  1.00  0.00     0.113 A 
HETATM    2  O   UNL     1      64.937   9.038   5.795  1.00  0.00    -0.322 OA
HETATM    3  C   UNL     1      63.013  10.337   5.019  1.00  0.00     0.002 A 
HETATM    4  O   UNL     1      64.781   7.371   4.062  1.00  0.00    -0.323 OA
HETATM    5  C   UNL     1      63.815   8.324   3.955  1.00  0.00     0.105 A 
HETATM    6  C   UNL     1      65.506   7.848   5.212  1.00  0.00     0.352 A 
HETATM    7  C   UNL     1      62.017  10.400   4.028  1.00  0.00     0.012 A 
HETATM    8  C   UNL     1      61.932   9.424   3.019  1.00  0.00     0.003 A 
HETATM    9  C   UNL     1      62.842   8.366   2.980  1.00  0.00     0.040 A 
ENDROOT
BRANCH   3  10
HETATM   10  C   UNL     1      63.086  11.370   6.101  1.00  0.00     0.205 C 
BRANCH  10  11
HETATM   11  O   UNL     1      64.440  11.611   6.464  1.00  0.00    -0.396 OA
HETATM   12  H   UNL     1      64.614  12.565   6.459  1.00  0.00     0.209 HD
ENDBRANCH  10  11
ENDBRANCH   3  10
TORSDOF 2
ENDMDL
MODEL 2
REMARK VINA RESULT:      -5.3      2.055      3.118
REMARK  2 active torsions:
REMARK  status: ('A' for Active; 'I' for Inactive)
REMARK    1  A    between atoms: C_3  and  C_7 
REMARK    2  A    between atoms: C_7  and  O_8 
ROOT
HETATM    1  C   UNL     1      62.386  10.665   3.810  1.00  0.00     0.113 A 
HETATM    2  O   UNL     1      61.990  11.909   3.425  1.00  0.00    -0.322 OA
HETATM    3  C   UNL     1      62.861  10.308   5.059  1.00  0.00     0.002 A 
HETATM    4  O   UNL     1      61.774  10.299   1.645  1.00  0.00    -0.323 OA
HETATM    5  C   UNL     1      62.260   9.746   2.789  1.00  0.00     0.105 A 
HETATM    6  C   UNL     1      61.578  11.663   2.065  1.00  0.00     0.352 A 
HETATM    7  C   UNL     1      63.207   8.957   5.245  1.00  0.00     0.012 A 
HETATM    8  C   UNL     1      63.077   8.023   4.202  1.00  0.00     0.003 A 
HETATM    9  C   UNL     1      62.600   8.420   2.952  1.00  0.00     0.040 A 
ENDROOT
BRANCH   3  10
HETATM   10  C   UNL     1      63.019  11.301   6.170  1.00  0.00     0.205 C 
BRANCH  10  11
HETATM   11  O   UNL     1      64.397  11.515   6.448  1.00  0.00    -0.396 OA
HETATM   12  H   UNL     1      64.534  11.549   7.408  1.00  0.00     0.209 HD
ENDBRANCH  10  11
ENDBRANCH   3  10
TORSDOF 2
ENDMDL
MODEL 3
REMARK VINA RESULT:      -4.8      1.343      3.003
REMARK  2 active torsions:
REMARK  status: ('A' for Active; 'I' for Inactive)
REMARK    1  A    between atoms: C_3  and  C_7 
REMARK    2  A    between atoms: C_7  and  O_8 
ROOT
HETATM    1  C   UNL     1      63.397   9.462   4.757  1.00  0.00     0.113 A 
HETATM    2  O   UNL     1      63.549  10.370   5.762  1.00  0.00    -0.322 OA
HETATM    3  C   UNL     1      64.080   8.267   4.627  1.00  0.00     0.002 A 
HETATM    4  O   UNL     1      61.897  11.068   4.152  1.00  0.00    -0.323 OA
HETATM    5  C   UNL     1      62.450   9.865   3.839  1.00  0.00     0.105 A 
HETATM    6  C   UNL     1      62.576  11.366   5.387  1.00  0.00     0.352 A 
HETATM    7  C   UNL     1      63.759   7.472   3.512  1.00  0.00     0.012 A 
HETATM    8  C   UNL     1      62.794   7.885   2.577  1.00  0.00     0.003 A 
HETATM    9  C   UNL     1      62.129   9.101   2.738  1.00  0.00     0.040 A 
ENDROOT
BRANCH   3  10
HETATM   10  C   UNL     1      65.123   7.828   5.609  1.00  0.00     0.205 C 
BRANCH  10  11
HETATM   11  O   UNL     1      65.836   8.954   6.107  1.00  0.00    -0.396 OA
HETATM   12  H   UNL     1      65.486   9.199   6.979  1.00  0.00     0.209 HD
ENDBRANCH  10  11
ENDBRANCH   3  10
TORSDOF 2
ENDMDL
MODEL 4
REMARK VINA RESULT:      -4.7      2.072      3.324
REMARK  2 active torsions:
REMARK  status: ('A' for Active; 'I' for Inactive)
REMARK    1  A    between atoms: C_3  and  C_7 
REMARK    2  A    between atoms: C_7  and  O_8 
ROOT
HETATM    1  C   UNL     1      62.466  10.244   3.901  1.00  0.00     0.113 A 
HETATM    2  O   UNL     1      62.246  11.434   4.525  1.00  0.00    -0.322 OA
HETATM    3  C   UNL     1      62.149   9.938   2.590  1.00  0.00     0.002 A 
HETATM    4  O   UNL     1      63.296   9.827   5.983  1.00  0.00    -0.323 OA
HETATM    5  C   UNL     1      63.068   9.328   4.738  1.00  0.00     0.105 A 
HETATM    6  C   UNL     1      62.800  11.171   5.831  1.00  0.00     0.352 A 
HETATM    7  C   UNL     1      62.474   8.645   2.144  1.00  0.00     0.012 A 
HETATM    8  C   UNL     1      63.086   7.712   2.999  1.00  0.00     0.003 A 
HETATM    9  C   UNL     1      63.387   8.054   4.319  1.00  0.00     0.040 A 
ENDROOT
BRANCH   3  10
HETATM   10  C   UNL     1      61.479  10.920   1.678  1.00  0.00     0.205 C 
BRANCH  10  11
HETATM   11  O   UNL     1      62.071  12.206   1.818  1.00  0.00    -0.396 OA
HETATM   12  H   UNL     1      62.387  12.321   2.728  1.00  0.00     0.209 HD
ENDBRANCH  10  11
ENDBRANCH   3  10
TORSDOF 2
ENDMDL
MODEL 5
REMARK VINA RESULT:      -4.6      1.692      3.535
REMARK  2 active torsions:
REMARK  status: ('A' for Active; 'I' for Inactive)
REMARK    1  A    between atoms: C_3  and  C_7 
REMARK    2  A    between atoms: C_7  and  O_8 
ROOT
HETATM    1  C   UNL     1      62.674   9.648   3.958  1.00  0.00     0.113 A 
HETATM    2  O   UNL     1      62.986   9.854   5.268  1.00  0.00    -0.322 OA
HETATM    3  C   UNL     1      62.830   8.466   3.258  1.00  0.00     0.002 A 
HETATM    4  O   UNL     1      62.087  11.834   4.228  1.00  0.00    -0.323 OA
HETATM    5  C   UNL     1      62.158  10.782   3.367  1.00  0.00     0.105 A 
HETATM    6  C   UNL     1      62.584  11.229   5.437  1.00  0.00     0.352 A 
HETATM    7  C   UNL     1      62.432   8.470   1.909  1.00  0.00     0.012 A 
HETATM    8  C   UNL     1      61.908   9.629   1.309  1.00  0.00     0.003 A 
HETATM    9  C   UNL     1      61.770  10.806   2.045  1.00  0.00     0.040 A 
ENDROOT
BRANCH   3  10
HETATM   10  C   UNL     1      63.405   7.233   3.885  1.00  0.00     0.205 C 
BRANCH  10  11
HETATM   11  O   UNL     1      62.810   7.002   5.157  1.00  0.00    -0.396 OA
HETATM   12  H   UNL     1      61.892   7.317   5.148  1.00  0.00     0.209 HD
ENDBRANCH  10  11
ENDBRANCH   3  10
TORSDOF 2
ENDMDL
MODEL 6
REMARK VINA RESULT:      -4.5      1.528      2.223
REMARK  2 active torsions:
REMARK  status: ('A' for Active; 'I' for Inactive)
REMARK    1  A    between atoms: C_3  and  C_7 
REMARK    2  A    between atoms: C_7  and  O_8 
ROOT
HETATM    1  C   UNL     1      62.852   8.766   3.356  1.00  0.00     0.113 A 
HETATM    2  O   UNL     1      63.415   7.654   3.904  1.00  0.00    -0.322 OA
HETATM    3  C   UNL     1      62.613   9.964   4.003  1.00  0.00     0.002 A 
HETATM    4  O   UNL     1      62.849   7.332   1.583  1.00  0.00    -0.323 OA
HETATM    5  C   UNL     1      62.531   8.579   2.028  1.00  0.00     0.105 A 
HETATM    6  C   UNL     1      63.436   6.763   2.769  1.00  0.00     0.352 A 
HETATM    7  C   UNL     1      62.028  10.992   3.241  1.00  0.00     0.012 A 
HETATM    8  C   UNL     1      61.701  10.797   1.888  1.00  0.00     0.003 A 
HETATM    9  C   UNL     1      61.952   9.572   1.268  1.00  0.00     0.040 A 
ENDROOT
BRANCH   3  10
HETATM   10  C   UNL     1      62.942  10.173   5.450  1.00  0.00     0.205 C 
BRANCH  10  11
HETATM   11  O   UNL     1      64.332   9.966   5.675  1.00  0.00    -0.396 OA
HETATM   12  H   UNL     1      64.460   9.157   6.195  1.00  0.00     0.209 HD
ENDBRANCH  10  11
ENDBRANCH   3  10
TORSDOF 2
ENDMDL
MODEL 7
REMARK VINA RESULT:      -4.4      2.523      4.585
REMARK  2 active torsions:
REMARK  status: ('A' for Active; 'I' for Inactive)
REMARK    1  A    between atoms: C_3  and  C_7 
REMARK    2  A    between atoms: C_7  and  O_8 
ROOT
HETATM    1  C   UNL     1      62.286   9.784   2.767  1.00  0.00     0.113 A 
HETATM    2  O   UNL     1      61.867  10.411   1.633  1.00  0.00    -0.322 OA
HETATM    3  C   UNL     1      62.647   8.454   2.880  1.00  0.00     0.002 A 
HETATM    4  O   UNL     1      61.932  11.906   3.522  1.00  0.00    -0.323 OA
HETATM    5  C   UNL     1      62.324  10.643   3.845  1.00  0.00     0.105 A 
HETATM    6  C   UNL     1      61.674  11.757   2.113  1.00  0.00     0.352 A 
HETATM    7  C   UNL     1      63.062   8.015   4.151  1.00  0.00     0.012 A 
HETATM    8  C   UNL     1      63.098   8.893   5.248  1.00  0.00     0.003 A 
HETATM    9  C   UNL     1      62.721  10.228   5.098  1.00  0.00     0.040 A 
ENDROOT
BRANCH   3  10
HETATM   10  C   UNL     1      62.593   7.508   1.720  1.00  0.00     0.205 C 
BRANCH  10  11
HETATM   11  O   UNL     1      61.347   7.627   1.043  1.00  0.00    -0.396 OA
HETATM   12  H   UNL     1      61.368   8.402   0.459  1.00  0.00     0.209 HD
ENDBRANCH  10  11
ENDBRANCH   3  10
TORSDOF 2
ENDMDL
MODEL 8
REMARK VINA RESULT:      -4.3      1.933      3.123
REMARK  2 active torsions:
REMARK  status: ('A' for Active; 'I' for Inactive)
REMARK    1  A    between atoms: C_3  and  C_7 
REMARK    2  A    between atoms: C_7  and  O_8 
ROOT
HETATM    1  C   UNL     1      62.616   8.918   2.876  1.00  0.00     0.113 A 
HETATM    2  O   UNL     1      62.947   7.636   2.557  1.00  0.00    -0.322 OA
HETATM    3  C   UNL     1      62.770   9.519   4.111  1.00  0.00     0.002 A 
HETATM    4  O   UNL     1      62.024   8.826   0.676  1.00  0.00    -0.323 OA
HETATM    5  C   UNL     1      62.089   9.596   1.796  1.00  0.00     0.105 A 
HETATM    6  C   UNL     1      62.597   7.595   1.159  1.00  0.00     0.352 A 
HETATM    7  C   UNL     1      62.369  10.863   4.218  1.00  0.00     0.012 A 
HETATM    8  C   UNL     1      61.832  11.551   3.116  1.00  0.00     0.003 A 
HETATM    9  C   UNL     1      61.686  10.910   1.885  1.00  0.00     0.040 A 
ENDROOT
BRANCH   3  10
HETATM   10  C   UNL     1      63.324   8.786   5.295  1.00  0.00     0.205 C 
BRANCH  10  11
HETATM   11  O   UNL     1      64.647   9.228   5.574  1.00  0.00    -0.396 OA
HETATM   12  H   UNL     1      64.858   9.055   6.505  1.00  0.00     0.209 HD
ENDBRANCH  10  11
ENDBRANCH   3  10
TORSDOF 2
ENDMDL
MODEL 9
REMARK VINA RESULT:      -4.3      1.883      3.675
REMARK  2 active torsions:
REMARK  status: ('A' for Active; 'I' for Inactive)
REMARK    1  A    between atoms: C_3  and  C_7 
REMARK    2  A    between atoms: C_7  and  O_8 
ROOT
HETATM    1  C   UNL     1      62.652   9.004   3.432  1.00  0.00     0.113 A 
HETATM    2  O   UNL     1      63.082   7.757   3.771  1.00  0.00    -0.322 OA
HETATM    3  C   UNL     1      62.265   9.420   2.171  1.00  0.00     0.002 A 
HETATM    4  O   UNL     1      63.048   9.248   5.664  1.00  0.00    -0.323 OA
HETATM    5  C   UNL     1      62.632   9.854   4.518  1.00  0.00     0.105 A 
HETATM    6  C   UNL     1      63.302   7.913   5.188  1.00  0.00     0.352 A 
HETATM    7  C   UNL     1      61.844  10.756   2.046  1.00  0.00     0.012 A 
HETATM    8  C   UNL     1      61.826  11.621   3.154  1.00  0.00     0.003 A 
HETATM    9  C   UNL     1      62.229  11.167   4.412  1.00  0.00     0.040 A 
ENDROOT
BRANCH   3  10
HETATM   10  C   UNL     1      62.299   8.510   0.982  1.00  0.00     0.205 C 
BRANCH  10  11
HETATM   11  O   UNL     1      61.586   7.310   1.258  1.00  0.00    -0.396 OA
HETATM   12  H   UNL     1      62.209   6.568   1.313  1.00  0.00     0.209 HD
ENDBRANCH  10  11
ENDBRANCH   3  10
TORSDOF 2
ENDMDL
