MODEL 1
REMARK VINA RESULT:      -5.2      0.000      0.000
REMARK  2 active torsions:
REMARK  status: ('A' for Active; 'I' for Inactive)
REMARK    1  A    between atoms: C_7  and  C_12 
REMARK    2  A    between atoms: O_9  and  C_12 
ROOT
HETATM    1  C   UNL     1      62.122   9.599   2.828  1.00  0.00     0.102 A 
HETATM    2  C   UNL     1      62.873   8.424   2.915  1.00  0.00     0.102 A 
HETATM    3  O   UNL     1      61.308   9.894   1.763  1.00  0.00    -0.346 OA
HETATM    4  C   UNL     1      62.185  10.550   3.847  1.00  0.00     0.049 A 
HETATM    5  O   UNL     1      62.883   7.463   1.936  1.00  0.00    -0.346 OA
HETATM    6  C   UNL     1      63.654   8.180   4.041  1.00  0.00     0.040 A 
HETATM    7  C   UNL     1      62.978  10.321   4.980  1.00  0.00    -0.032 A 
HETATM    8  C   UNL     1      63.707   9.127   5.069  1.00  0.00     0.012 A 
HETATM    9  C   UNL     1      61.055   8.734   0.963  1.00  0.00     0.202 C 
HETATM   10  C   UNL     1      62.340   7.963   0.710  1.00  0.00     0.202 C 
ENDROOT
BRANCH   7  11
HETATM   11  C   UNL     1      63.058  11.342   6.083  1.00  0.00     0.203 C 
BRANCH  11  12
HETATM   12  O   UNL     1      64.408  11.550   6.475  1.00  0.00    -0.396 OA
HETATM   13  H   UNL     1      64.996  11.356   5.727  1.00  0.00     0.209 HD
ENDBRANCH  11  12
ENDBRANCH   7  11
TORSDOF 2
ENDMDL
MODEL 2
REMARK VINA RESULT:      -5.0      0.919      2.095
REMARK  2 active torsions:
REMARK  status: ('A' for Active; 'I' for Inactive)
REMARK    1  A    between atoms: C_7  and  C_12 
REMARK    2  A    between atoms: O_9  and  C_12 
ROOT
HETATM    1  C   UNL     1      62.611   8.790   3.114  1.00  0.00     0.102 A 
HETATM    2  C   UNL     1      62.019   9.587   2.131  1.00  0.00     0.102 A 
HETATM    3  O   UNL     1      62.931   7.470   2.919  1.00  0.00    -0.346 OA
HETATM    4  C   UNL     1      62.896   9.323   4.372  1.00  0.00     0.049 A 
HETATM    5  O   UNL     1      61.682   9.121   0.885  1.00  0.00    -0.346 OA
HETATM    6  C   UNL     1      61.749  10.928   2.391  1.00  0.00     0.040 A 
HETATM    7  C   UNL     1      62.618  10.668   4.650  1.00  0.00    -0.032 A 
HETATM    8  C   UNL     1      62.047  11.466   3.647  1.00  0.00     0.012 A 
HETATM    9  C   UNL     1      62.918   7.130   1.529  1.00  0.00     0.202 C 
HETATM   10  C   UNL     1      61.679   7.690   0.848  1.00  0.00     0.202 C 
ENDROOT
BRANCH   7  11
HETATM   11  C   UNL     1      62.916  11.252   6.005  1.00  0.00     0.203 C 
BRANCH  11  12
HETATM   12  O   UNL     1      64.319  11.354   6.208  1.00  0.00    -0.396 OA
HETATM   13  H   UNL     1      64.729  11.763   5.429  1.00  0.00     0.209 HD
ENDBRANCH  11  12
ENDBRANCH   7  11
TORSDOF 2
ENDMDL
MODEL 3
REMARK VINA RESULT:      -4.8      2.298      4.144
REMARK  2 active torsions:
REMARK  status: ('A' for Active; 'I' for Inactive)
REMARK    1  A    between atoms: C_7  and  C_12 
REMARK    2  A    between atoms: O_9  and  C_12 
ROOT
HETATM    1  C   UNL     1      64.722   8.675   5.191  1.00  0.00     0.102 A 
HETATM    2  C   UNL     1      64.668   7.500   4.438  1.00  0.00     0.102 A 
HETATM    3  O   UNL     1      65.652   8.894   6.176  1.00  0.00    -0.346 OA
HETATM    4  C   UNL     1      63.796   9.694   4.969  1.00  0.00     0.049 A 
HETATM    5  O   UNL     1      65.526   6.445   4.625  1.00  0.00    -0.346 OA
HETATM    6  C   UNL     1      63.715   7.360   3.433  1.00  0.00     0.040 A 
HETATM    7  C   UNL     1      62.823   9.561   3.969  1.00  0.00    -0.032 A 
HETATM    8  C   UNL     1      62.794   8.387   3.202  1.00  0.00     0.012 A 
HETATM    9  C   UNL     1      66.735   7.962   6.089  1.00  0.00     0.202 C 
HETATM   10  C   UNL     1      66.215   6.549   5.875  1.00  0.00     0.202 C 
ENDROOT
BRANCH   7  11
HETATM   11  C   UNL     1      61.815  10.651   3.725  1.00  0.00     0.203 C 
BRANCH  11  12
HETATM   12  O   UNL     1      62.211  11.852   4.375  1.00  0.00    -0.396 OA
HETATM   13  H   UNL     1      62.282  12.565   3.722  1.00  0.00     0.209 HD
ENDBRANCH  11  12
ENDBRANCH   7  11
TORSDOF 2
ENDMDL
MODEL 4
REMARK VINA RESULT:      -4.7      1.854      3.920
REMARK  2 active torsions:
REMARK  status: ('A' for Active; 'I' for Inactive)
REMARK    1  A    between atoms: C_7  and  C_12 
REMARK    2  A    between atoms: O_9  and  C_12 
ROOT
HETATM    1  C   UNL     1      62.952   7.953   4.101  1.00  0.00     0.102 A 
HETATM    2  C   UNL     1      63.117   8.644   5.304  1.00  0.00     0.102 A 
HETATM    3  O   UNL     1      63.208   6.611   3.965  1.00  0.00    -0.346 OA
HETATM    4  C   UNL     1      62.520   8.625   2.958  1.00  0.00     0.049 A 
HETATM    5  O   UNL     1      63.568   8.054   6.457  1.00  0.00    -0.346 OA
HETATM    6  C   UNL     1      62.809  10.000   5.374  1.00  0.00     0.040 A 
HETATM    7  C   UNL     1      62.219   9.993   3.013  1.00  0.00    -0.032 A 
HETATM    8  C   UNL     1      62.363  10.672   4.232  1.00  0.00     0.012 A 
HETATM    9  C   UNL     1      63.308   5.967   5.239  1.00  0.00     0.202 C 
HETATM   10  C   UNL     1      64.170   6.782   6.190  1.00  0.00     0.202 C 
ENDROOT
BRANCH   7  11
HETATM   11  C   UNL     1      61.757  10.730   1.784  1.00  0.00     0.203 C 
BRANCH  11  12
HETATM   12  O   UNL     1      62.095  12.108   1.872  1.00  0.00    -0.396 OA
HETATM   13  H   UNL     1      62.262  12.341   2.799  1.00  0.00     0.209 HD
ENDBRANCH  11  12
ENDBRANCH   7  11
TORSDOF 2
ENDMDL
MODEL 5
REMARK VINA RESULT:      -4.3      4.807      6.105
REMARK  2 active torsions:
REMARK  status: ('A' for Active; 'I' for Inactive)
REMARK    1  A    between atoms: C_7  and  C_12 
REMARK    2  A    between atoms: O_9  and  C_12 
ROOT
HETATM    1  C   UNL     1      65.233   6.931   6.808  1.00  0.00     0.102 A 
HETATM    2  C   UNL     1      66.009   7.361   5.729  1.00  0.00     0.102 A 
HETATM    3  O   UNL     1      63.908   7.257   6.958  1.00  0.00    -0.346 OA
HETATM    4  C   UNL     1      65.798   6.139   7.808  1.00  0.00     0.049 A 
HETATM    5  O   UNL     1      65.527   8.166   4.729  1.00  0.00    -0.346 OA
HETATM    6  C   UNL     1      67.340   6.965   5.628  1.00  0.00     0.040 A 
HETATM    7  C   UNL     1      67.140   5.744   7.724  1.00  0.00    -0.032 A 
HETATM    8  C   UNL     1      67.903   6.160   6.623  1.00  0.00     0.012 A 
HETATM    9  C   UNL     1      63.354   7.765   5.740  1.00  0.00     0.202 C 
HETATM   10  C   UNL     1      64.290   8.781   5.105  1.00  0.00     0.202 C 
ENDROOT
BRANCH   7  11
HETATM   11  C   UNL     1      67.762   4.895   8.800  1.00  0.00     0.203 C 
BRANCH  11  12
HETATM   12  O   UNL     1      67.083   3.651   8.910  1.00  0.00    -0.396 OA
HETATM   13  H   UNL     1      66.194   3.733   8.528  1.00  0.00     0.209 HD
ENDBRANCH  11  12
ENDBRANCH   7  11
TORSDOF 2
ENDMDL
MODEL 6
REMARK VINA RESULT:      -4.2      1.211      2.478
REMARK  2 active torsions:
REMARK  status: ('A' for Active; 'I' for Inactive)
REMARK    1  A    between atoms: C_7  and  C_12 
REMARK    2  A    between atoms: O_9  and  C_12 
ROOT
HETATM    1  C   UNL     1      62.989   7.892   2.524  1.00  0.00     0.102 A 
HETATM    2  C   UNL     1      62.231   9.053   2.695  1.00  0.00     0.102 A 
HETATM    3  O   UNL     1      62.876   7.075   1.428  1.00  0.00    -0.346 OA
HETATM    4  C   UNL     1      63.910   7.505   3.499  1.00  0.00     0.049 A 
HETATM    5  O   UNL     1      61.287   9.475   1.794  1.00  0.00    -0.346 OA
HETATM    6  C   UNL     1      62.422   9.850   3.821  1.00  0.00     0.040 A 
HETATM    7  C   UNL     1      64.102   8.292   4.643  1.00  0.00    -0.032 A 
HETATM    8  C   UNL     1      63.354   9.469   4.792  1.00  0.00     0.012 A 
HETATM    9  C   UNL     1      62.179   7.726   0.361  1.00  0.00     0.202 C 
HETATM   10  C   UNL     1      60.935   8.430   0.881  1.00  0.00     0.202 C 
ENDROOT
BRANCH   7  11
HETATM   11  C   UNL     1      65.089   7.881   5.703  1.00  0.00     0.203 C 
BRANCH  11  12
HETATM   12  O   UNL     1      65.764   9.018   6.224  1.00  0.00    -0.396 OA
HETATM   13  H   UNL     1      66.127   8.806   7.099  1.00  0.00     0.209 HD
ENDBRANCH  11  12
ENDBRANCH   7  11
TORSDOF 2
ENDMDL
MODEL 7
REMARK VINA RESULT:      -4.2      1.935      3.548
REMARK  2 active torsions:
REMARK  status: ('A' for Active; 'I' for Inactive)
REMARK    1  A    between atoms: C_7  and  C_12 
REMARK    2  A    between atoms: O_9  and  C_12 
ROOT
HETATM    1  C   UNL     1      63.293   8.042   3.914  1.00  0.00     0.102 A 
HETATM    2  C   UNL     1      63.133   7.308   2.736  1.00  0.00     0.102 A 
HETATM    3  O   UNL     1      63.885   7.533   5.042  1.00  0.00    -0.346 OA
HETATM    4  C   UNL     1      62.832   9.356   3.990  1.00  0.00     0.049 A 
HETATM    5  O   UNL     1      63.534   6.003   2.602  1.00  0.00    -0.346 OA
HETATM    6  C   UNL     1      62.550   7.901   1.620  1.00  0.00     0.040 A 
HETATM    7  C   UNL     1      62.231   9.961   2.877  1.00  0.00    -0.032 A 
HETATM    8  C   UNL     1      62.099   9.223   1.691  1.00  0.00     0.012 A 
HETATM    9  C   UNL     1      64.611   6.333   4.755  1.00  0.00     0.202 C 
HETATM   10  C   UNL     1      63.790   5.403   3.876  1.00  0.00     0.202 C 
ENDROOT
BRANCH   7  11
HETATM   11  C   UNL     1      61.724  11.377   2.949  1.00  0.00     0.203 C 
BRANCH  11  12
HETATM   12  O   UNL     1      62.104  12.103   1.788  1.00  0.00    -0.396 OA
HETATM   13  H   UNL     1      62.620  12.883   2.049  1.00  0.00     0.209 HD
ENDBRANCH  11  12
ENDBRANCH   7  11
TORSDOF 2
ENDMDL
MODEL 8
REMARK VINA RESULT:      -4.1      2.673      5.031
REMARK  2 active torsions:
REMARK  status: ('A' for Active; 'I' for Inactive)
REMARK    1  A    between atoms: C_7  and  C_12 
REMARK    2  A    between atoms: O_9  and  C_12 
ROOT
HETATM    1  C   UNL     1      63.849   7.204   5.666  1.00  0.00     0.102 A 
HETATM    2  C   UNL     1      64.312   8.500   5.423  1.00  0.00     0.102 A 
HETATM    3  O   UNL     1      64.553   6.280   6.397  1.00  0.00    -0.346 OA
HETATM    4  C   UNL     1      62.622   6.788   5.148  1.00  0.00     0.049 A 
HETATM    5  O   UNL     1      65.521   8.965   5.874  1.00  0.00    -0.346 OA
HETATM    6  C   UNL     1      63.529   9.394   4.697  1.00  0.00     0.040 A 
HETATM    7  C   UNL     1      61.831   7.674   4.405  1.00  0.00    -0.032 A 
HETATM    8  C   UNL     1      62.293   8.981   4.189  1.00  0.00     0.012 A 
HETATM    9  C   UNL     1      65.601   6.898   7.150  1.00  0.00     0.202 C 
HETATM   10  C   UNL     1      66.369   7.890   6.291  1.00  0.00     0.202 C 
ENDROOT
BRANCH   7  11
HETATM   11  C   UNL     1      60.508   7.234   3.836  1.00  0.00     0.203 C 
BRANCH  11  12
HETATM   12  O   UNL     1      59.740   8.359   3.430  1.00  0.00    -0.396 OA
HETATM   13  H   UNL     1      58.978   8.060   2.910  1.00  0.00     0.209 HD
ENDBRANCH  11  12
ENDBRANCH   7  11
TORSDOF 2
ENDMDL
MODEL 9
REMARK VINA RESULT:      -4.0      2.470      4.178
REMARK  2 active torsions:
REMARK  status: ('A' for Active; 'I' for Inactive)
REMARK    1  A    between atoms: C_7  and  C_12 
REMARK    2  A    between atoms: O_9  and  C_12 
ROOT
HETATM    1  C   UNL     1      64.502   7.000   3.614  1.00  0.00     0.102 A 
HETATM    2  C   UNL     1      65.171   7.620   4.673  1.00  0.00     0.102 A 
HETATM    3  O   UNL     1      64.960   5.861   3.001  1.00  0.00    -0.346 OA
HETATM    4  C   UNL     1      63.314   7.540   3.121  1.00  0.00     0.049 A 
HETATM    5  O   UNL     1      66.358   7.163   5.185  1.00  0.00    -0.346 OA
HETATM    6  C   UNL     1      64.630   8.758   5.266  1.00  0.00     0.040 A 
HETATM    7  C   UNL     1      62.766   8.692   3.702  1.00  0.00    -0.032 A 
HETATM    8  C   UNL     1      63.432   9.292   4.780  1.00  0.00     0.012 A 
HETATM    9  C   UNL     1      65.968   5.215   3.784  1.00  0.00     0.202 C 
HETATM   10  C   UNL     1      66.981   6.226   4.300  1.00  0.00     0.202 C 
ENDROOT
BRANCH   7  11
HETATM   11  C   UNL     1      61.488   9.287   3.174  1.00  0.00     0.203 C 
BRANCH  11  12
HETATM   12  O   UNL     1      61.244  10.554   3.769  1.00  0.00    -0.396 OA
HETATM   13  H   UNL     1      60.775  10.432   4.610  1.00  0.00     0.209 HD
ENDBRANCH  11  12
ENDBRANCH   7  11
TORSDOF 2
ENDMDL
