MODEL 1
REMARK VINA RESULT:      -4.8      0.000      0.000
REMARK  2 active torsions:
REMARK  status: ('A' for Active; 'I' for Inactive)
REMARK    1  A    between atoms: C_1  and  C_3 
REMARK    2  A    between atoms: C_3  and  N_8 
ROOT
HETATM    1  C   UNL     1      65.064   7.890   4.692  1.00  0.00     0.038 A 
HETATM    2  C   UNL     1      64.089   8.914   4.712  1.00  0.00     0.115 A 
HETATM    3  C   UNL     1      62.978   8.849   3.850  1.00  0.00     0.103 A 
HETATM    4  O   UNL     1      64.252   9.980   5.571  1.00  0.00    -0.345 OA
HETATM    5  O   UNL     1      61.999   9.810   3.790  1.00  0.00    -0.346 OA
HETATM    6  C   UNL     1      64.867   6.813   3.803  1.00  0.00     0.017 A 
HETATM    7  C   UNL     1      63.749   6.750   2.966  1.00  0.00     0.004 A 
HETATM    8  C   UNL     1      62.804   7.767   2.993  1.00  0.00     0.040 A 
HETATM    9  C   UNL     1      63.048  10.729   5.761  1.00  0.00     0.202 C 
HETATM   10  C   UNL     1      62.401  11.025   4.425  1.00  0.00     0.202 C 
ENDROOT
BRANCH   1  11
HETATM   11  C   UNL     1      66.281   7.894   5.588  1.00  0.00     0.107 C 
HETATM   12  S   UNL     1      67.881   7.778   5.098  1.00  0.00    -0.060 SA
BRANCH  11  13
HETATM   13  N   UNL     1      66.080   8.000   6.938  1.00  0.00    -0.389 N 
HETATM   14  H   UNL     1      65.595   8.775   7.305  1.00  0.00     0.157 HD
HETATM   15  H   UNL     1      66.420   7.303   7.543  1.00  0.00     0.157 HD
ENDBRANCH  11  13
ENDBRANCH   1  11
TORSDOF 2
ENDMDL
MODEL 2
REMARK VINA RESULT:      -4.6      3.121      3.977
REMARK  2 active torsions:
REMARK  status: ('A' for Active; 'I' for Inactive)
REMARK    1  A    between atoms: C_1  and  C_3 
REMARK    2  A    between atoms: C_3  and  N_8 
ROOT
HETATM    1  C   UNL     1      62.369   8.187   3.157  1.00  0.00     0.038 A 
HETATM    2  C   UNL     1      62.620   9.287   4.008  1.00  0.00     0.115 A 
HETATM    3  C   UNL     1      63.766   9.302   4.825  1.00  0.00     0.103 A 
HETATM    4  O   UNL     1      61.721  10.333   4.038  1.00  0.00    -0.345 OA
HETATM    5  O   UNL     1      64.074  10.320   5.695  1.00  0.00    -0.346 OA
HETATM    6  C   UNL     1      63.309   7.135   3.148  1.00  0.00     0.017 A 
HETATM    7  C   UNL     1      64.454   7.170   3.950  1.00  0.00     0.004 A 
HETATM    8  C   UNL     1      64.683   8.255   4.785  1.00  0.00     0.040 A 
HETATM    9  C   UNL     1      62.265  11.514   4.634  1.00  0.00     0.202 C 
HETATM   10  C   UNL     1      62.955  11.173   5.937  1.00  0.00     0.202 C 
ENDROOT
BRANCH   1  11
HETATM   11  C   UNL     1      61.160   8.104   2.254  1.00  0.00     0.107 C 
HETATM   12  S   UNL     1      61.169   7.859   0.594  1.00  0.00    -0.060 SA
BRANCH  11  13
HETATM   13  N   UNL     1      59.924   8.243   2.826  1.00  0.00    -0.389 N 
HETATM   14  H   UNL     1      59.845   8.399   3.796  1.00  0.00     0.157 HD
HETATM   15  H   UNL     1      59.115   8.186   2.270  1.00  0.00     0.157 HD
ENDBRANCH  11  13
ENDBRANCH   1  11
TORSDOF 2
ENDMDL
MODEL 3
REMARK VINA RESULT:      -4.5      2.616      4.018
REMARK  2 active torsions:
REMARK  status: ('A' for Active; 'I' for Inactive)
REMARK    1  A    between atoms: C_1  and  C_3 
REMARK    2  A    between atoms: C_3  and  N_8 
ROOT
HETATM    1  C   UNL     1      62.760   9.210   4.114  1.00  0.00     0.038 A 
HETATM    2  C   UNL     1      62.585   8.640   2.832  1.00  0.00     0.115 A 
HETATM    3  C   UNL     1      62.061   9.414   1.780  1.00  0.00     0.103 A 
HETATM    4  O   UNL     1      62.918   7.317   2.634  1.00  0.00    -0.345 OA
HETATM    5  O   UNL     1      61.839   8.934   0.512  1.00  0.00    -0.346 OA
HETATM    6  C   UNL     1      62.412  10.567   4.283  1.00  0.00     0.017 A 
HETATM    7  C   UNL     1      61.910  11.331   3.225  1.00  0.00     0.004 A 
HETATM    8  C   UNL     1      61.739  10.755   1.974  1.00  0.00     0.040 A 
HETATM    9  C   UNL     1      63.048   6.979   1.250  1.00  0.00     0.202 C 
HETATM   10  C   UNL     1      61.863   7.507   0.469  1.00  0.00     0.202 C 
ENDROOT
BRANCH   1  11
HETATM   11  C   UNL     1      63.316   8.439   5.288  1.00  0.00     0.107 C 
HETATM   12  S   UNL     1      62.528   7.242   6.160  1.00  0.00    -0.060 SA
BRANCH  11  13
HETATM   13  N   UNL     1      64.589   8.733   5.701  1.00  0.00    -0.389 N 
HETATM   14  H   UNL     1      65.347   8.611   5.084  1.00  0.00     0.157 HD
HETATM   15  H   UNL     1      64.746   9.065   6.613  1.00  0.00     0.157 HD
ENDBRANCH  11  13
ENDBRANCH   1  11
TORSDOF 2
ENDMDL
MODEL 4
REMARK VINA RESULT:      -4.5      2.944      4.147
REMARK  2 active torsions:
REMARK  status: ('A' for Active; 'I' for Inactive)
REMARK    1  A    between atoms: C_1  and  C_3 
REMARK    2  A    between atoms: C_3  and  N_8 
ROOT
HETATM    1  C   UNL     1      63.140   8.518   5.308  1.00  0.00     0.038 A 
HETATM    2  C   UNL     1      64.367   8.024   5.808  1.00  0.00     0.115 A 
HETATM    3  C   UNL     1      64.511   6.654   6.096  1.00  0.00     0.103 A 
HETATM    4  O   UNL     1      65.407   8.903   6.025  1.00  0.00    -0.345 OA
HETATM    5  O   UNL     1      65.659   6.096   6.604  1.00  0.00    -0.346 OA
HETATM    6  C   UNL     1      62.097   7.593   5.095  1.00  0.00     0.017 A 
HETATM    7  C   UNL     1      62.259   6.232   5.366  1.00  0.00     0.004 A 
HETATM    8  C   UNL     1      63.468   5.763   5.864  1.00  0.00     0.040 A 
HETATM    9  C   UNL     1      66.669   8.244   6.166  1.00  0.00     0.202 C 
HETATM   10  C   UNL     1      66.547   7.083   7.130  1.00  0.00     0.202 C 
ENDROOT
BRANCH   1  11
HETATM   11  C   UNL     1      62.914   9.975   4.978  1.00  0.00     0.107 C 
HETATM   12  S   UNL     1      62.046  10.580   3.675  1.00  0.00    -0.060 SA
BRANCH  11  13
HETATM   13  N   UNL     1      63.465  10.913   5.810  1.00  0.00    -0.389 N 
HETATM   14  H   UNL     1      63.161  11.849   5.768  1.00  0.00     0.157 HD
HETATM   15  H   UNL     1      64.166  10.652   6.449  1.00  0.00     0.157 HD
ENDBRANCH  11  13
ENDBRANCH   1  11
TORSDOF 2
ENDMDL
MODEL 5
REMARK VINA RESULT:      -4.5      3.157      4.739
REMARK  2 active torsions:
REMARK  status: ('A' for Active; 'I' for Inactive)
REMARK    1  A    between atoms: C_1  and  C_3 
REMARK    2  A    between atoms: C_3  and  N_8 
ROOT
HETATM    1  C   UNL     1      62.179   9.390   3.257  1.00  0.00     0.038 A 
HETATM    2  C   UNL     1      63.188   8.724   3.991  1.00  0.00     0.115 A 
HETATM    3  C   UNL     1      63.794   9.357   5.092  1.00  0.00     0.103 A 
HETATM    4  O   UNL     1      63.578   7.460   3.603  1.00  0.00    -0.345 OA
HETATM    5  O   UNL     1      64.794   8.792   5.845  1.00  0.00    -0.346 OA
HETATM    6  C   UNL     1      61.801  10.680   3.681  1.00  0.00     0.017 A 
HETATM    7  C   UNL     1      62.397  11.291   4.788  1.00  0.00     0.004 A 
HETATM    8  C   UNL     1      63.390  10.627   5.495  1.00  0.00     0.040 A 
HETATM    9  C   UNL     1      64.310   6.769   4.620  1.00  0.00     0.202 C 
HETATM   10  C   UNL     1      65.385   7.668   5.192  1.00  0.00     0.202 C 
ENDROOT
BRANCH   1  11
HETATM   11  C   UNL     1      61.486   8.772   2.064  1.00  0.00     0.107 C 
HETATM   12  S   UNL     1      62.147   8.528   0.541  1.00  0.00    -0.060 SA
BRANCH  11  13
HETATM   13  N   UNL     1      60.188   8.366   2.219  1.00  0.00    -0.389 N 
HETATM   14  H   UNL     1      59.656   8.106   1.432  1.00  0.00     0.157 HD
HETATM   15  H   UNL     1      59.785   8.334   3.117  1.00  0.00     0.157 HD
ENDBRANCH  11  13
ENDBRANCH   1  11
TORSDOF 2
ENDMDL
MODEL 6
REMARK VINA RESULT:      -4.4      1.878      3.331
REMARK  2 active torsions:
REMARK  status: ('A' for Active; 'I' for Inactive)
REMARK    1  A    between atoms: C_1  and  C_3 
REMARK    2  A    between atoms: C_3  and  N_8 
ROOT
HETATM    1  C   UNL     1      63.448   9.094   4.787  1.00  0.00     0.038 A 
HETATM    2  C   UNL     1      62.838   8.851   3.535  1.00  0.00     0.115 A 
HETATM    3  C   UNL     1      62.066   9.853   2.918  1.00  0.00     0.103 A 
HETATM    4  O   UNL     1      62.995   7.617   2.939  1.00  0.00    -0.345 OA
HETATM    5  O   UNL     1      61.423   9.693   1.715  1.00  0.00    -0.346 OA
HETATM    6  C   UNL     1      63.270  10.367   5.369  1.00  0.00     0.017 A 
HETATM    7  C   UNL     1      62.517  11.361   4.737  1.00  0.00     0.004 A 
HETATM    8  C   UNL     1      61.919  11.104   3.510  1.00  0.00     0.040 A 
HETATM    9  C   UNL     1      62.658   7.626   1.549  1.00  0.00     0.202 C 
HETATM   10  C   UNL     1      61.329   8.319   1.337  1.00  0.00     0.202 C 
ENDROOT
BRANCH   1  11
HETATM   11  C   UNL     1      64.289   8.065   5.506  1.00  0.00     0.107 C 
HETATM   12  S   UNL     1      65.929   7.789   5.290  1.00  0.00    -0.060 SA
BRANCH  11  13
HETATM   13  N   UNL     1      63.669   7.265   6.430  1.00  0.00    -0.389 N 
HETATM   14  H   UNL     1      64.201   6.648   6.982  1.00  0.00     0.157 HD
HETATM   15  H   UNL     1      62.692   7.306   6.540  1.00  0.00     0.157 HD
ENDBRANCH  11  13
ENDBRANCH   1  11
TORSDOF 2
ENDMDL
MODEL 7
REMARK VINA RESULT:      -4.2      2.522      3.028
REMARK  2 active torsions:
REMARK  status: ('A' for Active; 'I' for Inactive)
REMARK    1  A    between atoms: C_1  and  C_3 
REMARK    2  A    between atoms: C_3  and  N_8 
ROOT
HETATM    1  C   UNL     1      63.074   7.723   2.558  1.00  0.00     0.038 A 
HETATM    2  C   UNL     1      62.850   8.791   3.457  1.00  0.00     0.115 A 
HETATM    3  C   UNL     1      62.133   9.928   3.040  1.00  0.00     0.103 A 
HETATM    4  O   UNL     1      63.357   8.709   4.737  1.00  0.00    -0.345 OA
HETATM    5  O   UNL     1      61.889  11.017   3.841  1.00  0.00    -0.346 OA
HETATM    6  C   UNL     1      62.540   7.836   1.257  1.00  0.00     0.017 A 
HETATM    7  C   UNL     1      61.813   8.963   0.860  1.00  0.00     0.004 A 
HETATM    8  C   UNL     1      61.607  10.006   1.753  1.00  0.00     0.040 A 
HETATM    9  C   UNL     1      62.757   9.650   5.632  1.00  0.00     0.202 C 
HETATM   10  C   UNL     1      62.724  11.026   5.000  1.00  0.00     0.202 C 
ENDROOT
BRANCH   1  11
HETATM   11  C   UNL     1      63.834   6.474   2.937  1.00  0.00     0.107 C 
HETATM   12  S   UNL     1      63.291   4.893   2.794  1.00  0.00    -0.060 SA
BRANCH  11  13
HETATM   13  N   UNL     1      65.093   6.624   3.454  1.00  0.00    -0.389 N 
HETATM   14  H   UNL     1      65.274   7.334   4.112  1.00  0.00     0.157 HD
HETATM   15  H   UNL     1      65.818   6.023   3.168  1.00  0.00     0.157 HD
ENDBRANCH  11  13
ENDBRANCH   1  11
TORSDOF 2
ENDMDL
MODEL 8
REMARK VINA RESULT:      -4.1      3.575      4.379
REMARK  2 active torsions:
REMARK  status: ('A' for Active; 'I' for Inactive)
REMARK    1  A    between atoms: C_1  and  C_3 
REMARK    2  A    between atoms: C_3  and  N_8 
ROOT
HETATM    1  C   UNL     1      61.531   7.879   3.585  1.00  0.00     0.038 A 
HETATM    2  C   UNL     1      62.066   9.046   4.178  1.00  0.00     0.115 A 
HETATM    3  C   UNL     1      63.260   8.978   4.918  1.00  0.00     0.103 A 
HETATM    4  O   UNL     1      61.393  10.241   4.034  1.00  0.00    -0.345 OA
HETATM    5  O   UNL     1      63.836  10.058   5.543  1.00  0.00    -0.346 OA
HETATM    6  C   UNL     1      62.244   6.673   3.749  1.00  0.00     0.017 A 
HETATM    7  C   UNL     1      63.440   6.622   4.471  1.00  0.00     0.004 A 
HETATM    8  C   UNL     1      63.949   7.776   5.052  1.00  0.00     0.040 A 
HETATM    9  C   UNL     1      62.207  11.376   4.345  1.00  0.00     0.202 C 
HETATM   10  C   UNL     1      62.931  11.156   5.657  1.00  0.00     0.202 C 
ENDROOT
BRANCH   1  11
HETATM   11  C   UNL     1      60.253   7.877   2.778  1.00  0.00     0.107 C 
HETATM   12  S   UNL     1      58.850   7.028   3.131  1.00  0.00    -0.060 SA
BRANCH  11  13
HETATM   13  N   UNL     1      60.216   8.636   1.638  1.00  0.00    -0.389 N 
HETATM   14  H   UNL     1      60.739   9.469   1.585  1.00  0.00     0.157 HD
HETATM   15  H   UNL     1      59.668   8.350   0.874  1.00  0.00     0.157 HD
ENDBRANCH  11  13
ENDBRANCH   1  11
TORSDOF 2
ENDMDL
MODEL 9
REMARK VINA RESULT:      -4.1      2.768      4.111
REMARK  2 active torsions:
REMARK  status: ('A' for Active; 'I' for Inactive)
REMARK    1  A    between atoms: C_1  and  C_3 
REMARK    2  A    between atoms: C_3  and  N_8 
ROOT
HETATM    1  C   UNL     1      62.653   9.079   3.640  1.00  0.00     0.038 A 
HETATM    2  C   UNL     1      63.159   7.890   3.066  1.00  0.00     0.115 A 
HETATM    3  C   UNL     1      62.896   7.589   1.717  1.00  0.00     0.103 A 
HETATM    4  O   UNL     1      63.896   7.028   3.850  1.00  0.00    -0.345 OA
HETATM    5  O   UNL     1      63.331   6.447   1.089  1.00  0.00    -0.346 OA
HETATM    6  C   UNL     1      61.905   9.942   2.811  1.00  0.00     0.017 A 
HETATM    7  C   UNL     1      61.667   9.641   1.467  1.00  0.00     0.004 A 
HETATM    8  C   UNL     1      62.166   8.466   0.920  1.00  0.00     0.040 A 
HETATM    9  C   UNL     1      64.646   6.083   3.080  1.00  0.00     0.202 C 
HETATM   10  C   UNL     1      63.765   5.456   2.020  1.00  0.00     0.202 C 
ENDROOT
BRANCH   1  11
HETATM   11  C   UNL     1      62.895   9.467   5.080  1.00  0.00     0.107 C 
HETATM   12  S   UNL     1      63.090  11.023   5.676  1.00  0.00    -0.060 SA
BRANCH  11  13
HETATM   13  N   UNL     1      62.970   8.462   6.008  1.00  0.00    -0.389 N 
HETATM   14  H   UNL     1      63.488   8.594   6.835  1.00  0.00     0.157 HD
HETATM   15  H   UNL     1      62.507   7.609   5.849  1.00  0.00     0.157 HD
ENDBRANCH  11  13
ENDBRANCH   1  11
TORSDOF 2
ENDMDL
