MODEL 1
REMARK VINA RESULT:      -4.9      0.000      0.000
REMARK  3 active torsions:
REMARK  status: ('A' for Active; 'I' for Inactive)
REMARK    1  A    between atoms: C_1  and  C_6 
REMARK    2  A    between atoms: C_4  and  C_9 
REMARK    3  A    between atoms: C_9  and  O_10 
ROOT
HETATM    1  C   UNL     1      63.318   8.325   4.757  1.00  0.00     0.032 A 
HETATM    2  S   UNL     1      65.000   8.398   5.098  1.00  0.00    -0.090 SA
HETATM    3  C   UNL     1      62.710   7.344   5.520  1.00  0.00     0.022 A 
HETATM    4  C   UNL     1      64.894   7.203   6.316  1.00  0.00     0.007 A 
HETATM    5  C   UNL     1      63.608   6.715   6.430  1.00  0.00     0.018 A 
ENDROOT
BRANCH   1   6
HETATM    6  C   UNL     1      62.698   9.229   3.779  1.00  0.00     0.049 A 
HETATM    7  N   UNL     1      62.405  10.466   4.249  1.00  0.00    -0.365 N 
HETATM    8  C   UNL     1      61.898  11.358   3.367  1.00  0.00     0.088 A 
ATOM      9  HN  UNL     1      62.559  10.713   5.226  1.00  0.00     0.165 HD
HETATM   10  C   UNL     1      61.685  11.085   2.027  1.00  0.00     0.017 A 
HETATM   11  C   UNL     1      61.995   9.815   1.560  1.00  0.00     0.004 A 
HETATM   12  C   UNL     1      62.502   8.872   2.447  1.00  0.00     0.031 A 
ENDBRANCH   1   6
BRANCH   4  13
HETATM   13  C   UNL     1      66.103   6.824   7.101  1.00  0.00     0.210 C 
BRANCH  13  14
HETATM   14  O   UNL     1      66.779   8.026   7.447  1.00  0.00    -0.396 OA
HETATM   15  H   UNL     1      66.130   8.733   7.591  1.00  0.00     0.209 HD
ENDBRANCH  13  14
ENDBRANCH   4  13
TORSDOF 3
ENDMDL
MODEL 2
REMARK VINA RESULT:      -4.8      2.669      5.513
REMARK  3 active torsions:
REMARK  status: ('A' for Active; 'I' for Inactive)
REMARK    1  A    between atoms: C_1  and  C_6 
REMARK    2  A    between atoms: C_4  and  C_9 
REMARK    3  A    between atoms: C_9  and  O_10 
ROOT
HETATM    1  C   UNL     1      64.213   8.331   4.753  1.00  0.00     0.032 A 
HETATM    2  S   UNL     1      63.568   9.887   5.094  1.00  0.00    -0.090 SA
HETATM    3  C   UNL     1      63.608   7.790   3.633  1.00  0.00     0.022 A 
HETATM    4  C   UNL     1      62.568   9.871   3.708  1.00  0.00     0.007 A 
HETATM    5  C   UNL     1      62.681   8.680   3.020  1.00  0.00     0.018 A 
ENDROOT
BRANCH   1   6
HETATM    6  C   UNL     1      65.268   7.743   5.589  1.00  0.00     0.049 A 
HETATM    7  N   UNL     1      64.851   7.276   6.791  1.00  0.00    -0.365 N 
HETATM    8  C   UNL     1      65.772   6.661   7.569  1.00  0.00     0.088 A 
ATOM      9  HN  UNL     1      63.884   7.384   7.096  1.00  0.00     0.165 HD
HETATM   10  C   UNL     1      67.092   6.470   7.200  1.00  0.00     0.017 A 
HETATM   11  C   UNL     1      67.502   6.950   5.964  1.00  0.00     0.004 A 
HETATM   12  C   UNL     1      66.583   7.601   5.150  1.00  0.00     0.031 A 
ENDBRANCH   1   6
BRANCH   4  13
HETATM   13  C   UNL     1      61.729  11.058   3.376  1.00  0.00     0.210 C 
BRANCH  13  14
HETATM   14  O   UNL     1      62.085  12.096   4.282  1.00  0.00    -0.396 OA
HETATM   15  H   UNL     1      62.585  12.780   3.809  1.00  0.00     0.209 HD
ENDBRANCH  13  14
ENDBRANCH   4  13
TORSDOF 3
ENDMDL
MODEL 3
REMARK VINA RESULT:      -4.8      1.869      2.662
REMARK  3 active torsions:
REMARK  status: ('A' for Active; 'I' for Inactive)
REMARK    1  A    between atoms: C_1  and  C_6 
REMARK    2  A    between atoms: C_4  and  C_9 
REMARK    3  A    between atoms: C_9  and  O_10 
ROOT
HETATM    1  C   UNL     1      65.549   7.791   5.341  1.00  0.00     0.032 A 
HETATM    2  S   UNL     1      65.599   6.975   6.853  1.00  0.00    -0.090 SA
HETATM    3  C   UNL     1      66.771   7.703   4.701  1.00  0.00     0.022 A 
HETATM    4  C   UNL     1      67.200   6.431   6.604  1.00  0.00     0.007 A 
HETATM    5  C   UNL     1      67.713   6.904   5.413  1.00  0.00     0.018 A 
ENDROOT
BRANCH   1   6
HETATM    6  C   UNL     1      64.325   8.457   4.875  1.00  0.00     0.049 A 
HETATM    7  N   UNL     1      63.996   9.586   5.548  1.00  0.00    -0.365 N 
HETATM    8  C   UNL     1      62.916  10.274   5.110  1.00  0.00     0.088 A 
ATOM      9  HN  UNL     1      64.539   9.903   6.351  1.00  0.00     0.165 HD
HETATM   10  C   UNL     1      62.154   9.903   4.016  1.00  0.00     0.017 A 
HETATM   11  C   UNL     1      62.507   8.746   3.335  1.00  0.00     0.004 A 
HETATM   12  C   UNL     1      63.601   8.009   3.772  1.00  0.00     0.031 A 
ENDBRANCH   1   6
BRANCH   4  13
HETATM   13  C   UNL     1      67.857   5.550   7.611  1.00  0.00     0.210 C 
BRANCH  13  14
HETATM   14  O   UNL     1      68.073   6.330   8.781  1.00  0.00    -0.396 OA
HETATM   15  H   UNL     1      67.382   6.133   9.433  1.00  0.00     0.209 HD
ENDBRANCH  13  14
ENDBRANCH   4  13
TORSDOF 3
ENDMDL
MODEL 4
REMARK VINA RESULT:      -4.4      3.088      5.686
REMARK  3 active torsions:
REMARK  status: ('A' for Active; 'I' for Inactive)
REMARK    1  A    between atoms: C_1  and  C_6 
REMARK    2  A    between atoms: C_4  and  C_9 
REMARK    3  A    between atoms: C_9  and  O_10 
ROOT
HETATM    1  C   UNL     1      64.322   8.298   4.814  1.00  0.00     0.032 A 
HETATM    2  S   UNL     1      63.675   7.489   3.443  1.00  0.00    -0.090 SA
HETATM    3  C   UNL     1      63.640   9.479   5.047  1.00  0.00     0.022 A 
HETATM    4  C   UNL     1      62.442   8.654   3.229  1.00  0.00     0.007 A 
HETATM    5  C   UNL     1      62.547   9.673   4.153  1.00  0.00     0.018 A 
ENDROOT
BRANCH   1   6
HETATM    6  C   UNL     1      65.442   7.730   5.576  1.00  0.00     0.049 A 
HETATM    7  N   UNL     1      65.127   7.299   6.821  1.00  0.00    -0.365 N 
HETATM    8  C   UNL     1      66.108   6.703   7.537  1.00  0.00     0.088 A 
ATOM      9  HN  UNL     1      64.189   7.420   7.203  1.00  0.00     0.165 HD
HETATM   10  C   UNL     1      67.393   6.496   7.064  1.00  0.00     0.017 A 
HETATM   11  C   UNL     1      67.698   6.939   5.784  1.00  0.00     0.004 A 
HETATM   12  C   UNL     1      66.714   7.570   5.032  1.00  0.00     0.031 A 
ENDBRANCH   1   6
BRANCH   4  13
HETATM   13  C   UNL     1      61.426   8.480   2.152  1.00  0.00     0.210 C 
BRANCH  13  14
HETATM   14  O   UNL     1      60.953   9.775   1.802  1.00  0.00    -0.396 OA
HETATM   15  H   UNL     1      60.539  10.188   2.577  1.00  0.00     0.209 HD
ENDBRANCH  13  14
ENDBRANCH   4  13
TORSDOF 3
ENDMDL
MODEL 5
REMARK VINA RESULT:      -4.4      2.091      2.365
REMARK  3 active torsions:
REMARK  status: ('A' for Active; 'I' for Inactive)
REMARK    1  A    between atoms: C_1  and  C_6 
REMARK    2  A    between atoms: C_4  and  C_9 
REMARK    3  A    between atoms: C_9  and  O_10 
ROOT
HETATM    1  C   UNL     1      64.405   7.612   5.219  1.00  0.00     0.032 A 
HETATM    2  S   UNL     1      65.511   6.905   4.109  1.00  0.00    -0.090 SA
HETATM    3  C   UNL     1      64.465   6.966   6.441  1.00  0.00     0.022 A 
HETATM    4  C   UNL     1      66.125   5.820   5.279  1.00  0.00     0.007 A 
HETATM    5  C   UNL     1      65.466   5.953   6.484  1.00  0.00     0.018 A 
ENDROOT
BRANCH   1   6
HETATM    6  C   UNL     1      63.560   8.749   4.833  1.00  0.00     0.049 A 
HETATM    7  N   UNL     1      63.556   9.783   5.709  1.00  0.00    -0.365 N 
HETATM    8  C   UNL     1      62.849  10.884   5.364  1.00  0.00     0.088 A 
ATOM      9  HN  UNL     1      64.066   9.733   6.591  1.00  0.00     0.165 HD
HETATM   10  C   UNL     1      62.154  11.015   4.174  1.00  0.00     0.017 A 
HETATM   11  C   UNL     1      62.171   9.949   3.286  1.00  0.00     0.004 A 
HETATM   12  C   UNL     1      62.876   8.798   3.620  1.00  0.00     0.031 A 
ENDBRANCH   1   6
BRANCH   4  13
HETATM   13  C   UNL     1      67.243   4.898   4.930  1.00  0.00     0.210 C 
BRANCH  13  14
HETATM   14  O   UNL     1      67.520   5.070   3.546  1.00  0.00    -0.396 OA
HETATM   15  H   UNL     1      67.988   5.910   3.412  1.00  0.00     0.209 HD
ENDBRANCH  13  14
ENDBRANCH   4  13
TORSDOF 3
ENDMDL
MODEL 6
REMARK VINA RESULT:      -4.2      3.192      4.803
REMARK  3 active torsions:
REMARK  status: ('A' for Active; 'I' for Inactive)
REMARK    1  A    between atoms: C_1  and  C_6 
REMARK    2  A    between atoms: C_4  and  C_9 
REMARK    3  A    between atoms: C_9  and  O_10 
ROOT
HETATM    1  C   UNL     1      63.750   7.788   3.810  1.00  0.00     0.032 A 
HETATM    2  S   UNL     1      64.347   8.876   4.999  1.00  0.00    -0.090 SA
HETATM    3  C   UNL     1      62.487   8.168   3.395  1.00  0.00     0.022 A 
HETATM    4  C   UNL     1      62.976   9.890   4.883  1.00  0.00     0.007 A 
HETATM    5  C   UNL     1      62.050   9.386   3.993  1.00  0.00     0.018 A 
ENDROOT
BRANCH   1   6
HETATM    6  C   UNL     1      64.549   6.643   3.354  1.00  0.00     0.049 A 
HETATM    7  N   UNL     1      64.028   5.963   2.304  1.00  0.00    -0.365 N 
HETATM    8  C   UNL     1      64.762   4.943   1.802  1.00  0.00     0.088 A 
ATOM      9  HN  UNL     1      63.121   6.209   1.910  1.00  0.00     0.165 HD
HETATM   10  C   UNL     1      66.007   4.575   2.284  1.00  0.00     0.017 A 
HETATM   11  C   UNL     1      66.528   5.284   3.357  1.00  0.00     0.004 A 
HETATM   12  C   UNL     1      65.790   6.327   3.905  1.00  0.00     0.031 A 
ENDBRANCH   1   6
BRANCH   4  13
HETATM   13  C   UNL     1      62.903  11.145   5.685  1.00  0.00     0.210 C 
BRANCH  13  14
HETATM   14  O   UNL     1      64.205  11.396   6.199  1.00  0.00    -0.396 OA
HETATM   15  H   UNL     1      64.241  12.295   6.564  1.00  0.00     0.209 HD
ENDBRANCH  13  14
ENDBRANCH   4  13
TORSDOF 3
ENDMDL
MODEL 7
REMARK VINA RESULT:      -4.1      3.113      4.351
REMARK  3 active torsions:
REMARK  status: ('A' for Active; 'I' for Inactive)
REMARK    1  A    between atoms: C_1  and  C_6 
REMARK    2  A    between atoms: C_4  and  C_9 
REMARK    3  A    between atoms: C_9  and  O_10 
ROOT
HETATM    1  C   UNL     1      65.969   6.317   6.646  1.00  0.00     0.032 A 
HETATM    2  S   UNL     1      65.707   4.677   7.089  1.00  0.00    -0.090 SA
HETATM    3  C   UNL     1      67.277   6.685   6.903  1.00  0.00     0.022 A 
HETATM    4  C   UNL     1      67.343   4.442   7.523  1.00  0.00     0.007 A 
HETATM    5  C   UNL     1      68.072   5.606   7.385  1.00  0.00     0.018 A 
ENDROOT
BRANCH   1   6
HETATM    6  C   UNL     1      64.891   7.133   6.073  1.00  0.00     0.049 A 
HETATM    7  N   UNL     1      63.638   6.758   6.429  1.00  0.00    -0.365 N 
HETATM    8  C   UNL     1      62.614   7.522   5.984  1.00  0.00     0.088 A 
ATOM      9  HN  UNL     1      63.475   5.934   7.008  1.00  0.00     0.165 HD
HETATM   10  C   UNL     1      62.776   8.660   5.213  1.00  0.00     0.017 A 
HETATM   11  C   UNL     1      64.065   9.033   4.861  1.00  0.00     0.004 A 
HETATM   12  C   UNL     1      65.137   8.259   5.290  1.00  0.00     0.031 A 
ENDBRANCH   1   6
BRANCH   4  13
HETATM   13  C   UNL     1      67.814   3.100   7.971  1.00  0.00     0.210 C 
BRANCH  13  14
HETATM   14  O   UNL     1      67.230   2.848   9.243  1.00  0.00    -0.396 OA
HETATM   15  H   UNL     1      67.270   1.898   9.434  1.00  0.00     0.209 HD
ENDBRANCH  13  14
ENDBRANCH   4  13
TORSDOF 3
ENDMDL
MODEL 8
REMARK VINA RESULT:      -4.0      2.190      2.344
REMARK  3 active torsions:
REMARK  status: ('A' for Active; 'I' for Inactive)
REMARK    1  A    between atoms: C_1  and  C_6 
REMARK    2  A    between atoms: C_4  and  C_9 
REMARK    3  A    between atoms: C_9  and  O_10 
ROOT
HETATM    1  C   UNL     1      62.658   7.956   4.456  1.00  0.00     0.032 A 
HETATM    2  S   UNL     1      62.882   6.391   3.781  1.00  0.00    -0.090 SA
HETATM    3  C   UNL     1      62.866   7.929   5.823  1.00  0.00     0.022 A 
HETATM    4  C   UNL     1      63.346   5.716   5.282  1.00  0.00     0.007 A 
HETATM    5  C   UNL     1      63.283   6.651   6.295  1.00  0.00     0.018 A 
ENDROOT
BRANCH   1   6
HETATM    6  C   UNL     1      62.302   9.105   3.613  1.00  0.00     0.049 A 
HETATM    7  N   UNL     1      62.166  10.280   4.276  1.00  0.00    -0.365 N 
HETATM    8  C   UNL     1      61.909  11.382   3.534  1.00  0.00     0.088 A 
ATOM      9  HN  UNL     1      62.254  10.331   5.290  1.00  0.00     0.165 HD
HETATM   10  C   UNL     1      61.798  11.377   2.154  1.00  0.00     0.017 A 
HETATM   11  C   UNL     1      61.944  10.167   1.491  1.00  0.00     0.004 A 
HETATM   12  C   UNL     1      62.192   9.015   2.228  1.00  0.00     0.031 A 
ENDBRANCH   1   6
BRANCH   4  13
HETATM   13  C   UNL     1      63.759   4.286   5.364  1.00  0.00     0.210 C 
BRANCH  13  14
HETATM   14  O   UNL     1      63.794   3.778   4.036  1.00  0.00    -0.396 OA
HETATM   15  H   UNL     1      63.697   4.510   3.407  1.00  0.00     0.209 HD
ENDBRANCH  13  14
ENDBRANCH   4  13
TORSDOF 3
ENDMDL
MODEL 9
REMARK VINA RESULT:      -3.9      2.812      5.521
REMARK  3 active torsions:
REMARK  status: ('A' for Active; 'I' for Inactive)
REMARK    1  A    between atoms: C_1  and  C_6 
REMARK    2  A    between atoms: C_4  and  C_9 
REMARK    3  A    between atoms: C_9  and  O_10 
ROOT
HETATM    1  C   UNL     1      63.241   7.953   3.778  1.00  0.00     0.032 A 
HETATM    2  S   UNL     1      62.856   9.496   4.428  1.00  0.00    -0.090 SA
HETATM    3  C   UNL     1      62.817   7.860   2.465  1.00  0.00     0.022 A 
HETATM    4  C   UNL     1      62.221  10.059   2.944  1.00  0.00     0.007 A 
HETATM    5  C   UNL     1      62.252   9.074   1.978  1.00  0.00     0.018 A 
ENDROOT
BRANCH   1   6
HETATM    6  C   UNL     1      63.936   6.939   4.581  1.00  0.00     0.049 A 
HETATM    7  N   UNL     1      64.712   6.081   3.875  1.00  0.00    -0.365 N 
HETATM    8  C   UNL     1      65.428   5.173   4.577  1.00  0.00     0.088 A 
ATOM      9  HN  UNL     1      64.754   6.119   2.857  1.00  0.00     0.165 HD
HETATM   10  C   UNL     1      65.426   5.087   5.958  1.00  0.00     0.017 A 
HETATM   11  C   UNL     1      64.629   5.975   6.668  1.00  0.00     0.004 A 
HETATM   12  C   UNL     1      63.869   6.909   5.973  1.00  0.00     0.031 A 
ENDBRANCH   1   6
BRANCH   4  13
HETATM   13  C   UNL     1      61.734  11.463   2.823  1.00  0.00     0.210 C 
BRANCH  13  14
HETATM   14  O   UNL     1      62.046  12.128   4.041  1.00  0.00    -0.396 OA
HETATM   15  H   UNL     1      61.225  12.335   4.515  1.00  0.00     0.209 HD
ENDBRANCH  13  14
ENDBRANCH   4  13
TORSDOF 3
ENDMDL
