MODEL 1
REMARK VINA RESULT:      -5.2      0.000      0.000
REMARK  2 active torsions:
REMARK  status: ('A' for Active; 'I' for Inactive)
REMARK    1  A    between atoms: C_2  and  C_6 
REMARK    2  A    between atoms: C_3  and  C_7 
ROOT
HETATM    1  S   UNL     1      64.680   8.239   5.144  1.00  0.00    -0.081 SA
HETATM    2  C   UNL     1      64.420   6.970   6.261  1.00  0.00     0.082 A 
HETATM    3  C   UNL     1      63.021   8.321   4.711  1.00  0.00     0.032 A 
HETATM    4  C   UNL     1      63.094   6.579   6.271  1.00  0.00     0.027 A 
HETATM    5  C   UNL     1      62.298   7.341   5.367  1.00  0.00     0.023 A 
ENDROOT
BRANCH   3   6
HETATM    6  C   UNL     1      62.526   9.327   3.760  1.00  0.00     0.049 A 
HETATM    7  N   UNL     1      62.300  10.549   4.305  1.00  0.00    -0.365 N 
HETATM    8  C   UNL     1      61.898  11.534   3.470  1.00  0.00     0.088 A 
ATOM      9  HN  UNL     1      62.428  10.718   5.303  1.00  0.00     0.165 HD
HETATM   10  C   UNL     1      61.728  11.369   2.106  1.00  0.00     0.017 A 
HETATM   11  C   UNL     1      61.970  10.114   1.564  1.00  0.00     0.004 A 
HETATM   12  C   UNL     1      62.370   9.074   2.400  1.00  0.00     0.031 A 
ENDBRANCH   3   6
BRANCH   2  13
HETATM   13  C   UNL     1      65.530   6.468   7.033  1.00  0.00     0.216 C 
HETATM   14  O   UNL     1      66.465   5.767   6.669  1.00  0.00    -0.643 OA
HETATM   15  O   UNL     1      65.468   6.877   8.320  1.00  0.00    -0.643 OA
ENDBRANCH   2  13
TORSDOF 2
ENDMDL
MODEL 2
REMARK VINA RESULT:      -5.2      1.808      2.623
REMARK  2 active torsions:
REMARK  status: ('A' for Active; 'I' for Inactive)
REMARK    1  A    between atoms: C_2  and  C_6 
REMARK    2  A    between atoms: C_3  and  C_7 
ROOT
HETATM    1  S   UNL     1      64.814   6.727   6.663  1.00  0.00    -0.081 SA
HETATM    2  C   UNL     1      66.436   6.181   6.644  1.00  0.00     0.082 A 
HETATM    3  C   UNL     1      65.111   7.936   5.480  1.00  0.00     0.032 A 
HETATM    4  C   UNL     1      67.206   6.940   5.783  1.00  0.00     0.027 A 
HETATM    5  C   UNL     1      66.450   7.958   5.133  1.00  0.00     0.023 A 
ENDROOT
BRANCH   3   6
HETATM    6  C   UNL     1      64.028   8.787   4.968  1.00  0.00     0.049 A 
HETATM    7  N   UNL     1      63.812   9.915   5.691  1.00  0.00    -0.365 N 
HETATM    8  C   UNL     1      62.867  10.769   5.239  1.00  0.00     0.088 A 
ATOM      9  HN  UNL     1      64.342  10.110   6.541  1.00  0.00     0.165 HD
HETATM   10  C   UNL     1      62.133  10.567   4.082  1.00  0.00     0.017 A 
HETATM   11  C   UNL     1      62.371   9.411   3.350  1.00  0.00     0.004 A 
HETATM   12  C   UNL     1      63.328   8.504   3.799  1.00  0.00     0.031 A 
ENDBRANCH   3   6
BRANCH   2  13
HETATM   13  C   UNL     1      66.815   5.059   7.467  1.00  0.00     0.216 C 
HETATM   14  O   UNL     1      66.215   4.559   8.408  1.00  0.00    -0.643 OA
HETATM   15  O   UNL     1      67.999   4.535   7.079  1.00  0.00    -0.643 OA
ENDBRANCH   2  13
TORSDOF 2
ENDMDL
MODEL 3
REMARK VINA RESULT:      -5.0      3.512      5.914
REMARK  2 active torsions:
REMARK  status: ('A' for Active; 'I' for Inactive)
REMARK    1  A    between atoms: C_2  and  C_6 
REMARK    2  A    between atoms: C_3  and  C_7 
ROOT
HETATM    1  S   UNL     1      63.786   9.340   4.948  1.00  0.00    -0.081 SA
HETATM    2  C   UNL     1      62.869   9.146   3.517  1.00  0.00     0.082 A 
HETATM    3  C   UNL     1      64.528   7.800   4.791  1.00  0.00     0.032 A 
HETATM    4  C   UNL     1      63.088   7.905   2.950  1.00  0.00     0.027 A 
HETATM    5  C   UNL     1      64.023   7.127   3.692  1.00  0.00     0.023 A 
ENDROOT
BRANCH   3   6
HETATM    6  C   UNL     1      65.549   7.341   5.743  1.00  0.00     0.049 A 
HETATM    7  N   UNL     1      65.085   7.121   6.999  1.00  0.00    -0.365 N 
HETATM    8  C   UNL     1      65.963   6.642   7.908  1.00  0.00     0.088 A 
ATOM      9  HN  UNL     1      64.113   7.308   7.246  1.00  0.00     0.165 HD
HETATM   10  C   UNL     1      67.287   6.349   7.624  1.00  0.00     0.017 A 
HETATM   11  C   UNL     1      67.743   6.574   6.332  1.00  0.00     0.004 A 
HETATM   12  C   UNL     1      66.867   7.081   5.377  1.00  0.00     0.031 A 
ENDBRANCH   3   6
BRANCH   2  13
HETATM   13  C   UNL     1      62.018  10.222   3.070  1.00  0.00     0.216 C 
HETATM   14  O   UNL     1      61.664  10.501   1.933  1.00  0.00    -0.643 OA
HETATM   15  O   UNL     1      61.584  10.976   4.106  1.00  0.00    -0.643 OA
ENDBRANCH   2  13
TORSDOF 2
ENDMDL
MODEL 4
REMARK VINA RESULT:      -4.9      1.806      2.607
REMARK  2 active torsions:
REMARK  status: ('A' for Active; 'I' for Inactive)
REMARK    1  A    between atoms: C_2  and  C_6 
REMARK    2  A    between atoms: C_3  and  C_7 
ROOT
HETATM    1  S   UNL     1      64.299   6.776   6.593  1.00  0.00    -0.081 SA
HETATM    2  C   UNL     1      65.873   6.706   7.260  1.00  0.00     0.082 A 
HETATM    3  C   UNL     1      64.759   7.912   5.391  1.00  0.00     0.032 A 
HETATM    4  C   UNL     1      66.728   7.573   6.607  1.00  0.00     0.027 A 
HETATM    5  C   UNL     1      66.084   8.278   5.550  1.00  0.00     0.023 A 
ENDROOT
BRANCH   3   6
HETATM    6  C   UNL     1      63.806   8.378   4.374  1.00  0.00     0.049 A 
HETATM    7  N   UNL     1      63.688   7.558   3.299  1.00  0.00    -0.365 N 
HETATM    8  C   UNL     1      62.784   7.903   2.355  1.00  0.00     0.088 A 
ATOM      9  HN  UNL     1      64.257   6.717   3.209  1.00  0.00     0.165 HD
HETATM   10  C   UNL     1      61.970   9.021   2.434  1.00  0.00     0.017 A 
HETATM   11  C   UNL     1      62.100   9.846   3.544  1.00  0.00     0.004 A 
HETATM   12  C   UNL     1      63.033   9.526   4.527  1.00  0.00     0.031 A 
ENDBRANCH   3   6
BRANCH   2  13
HETATM   13  C   UNL     1      66.136   5.811   8.360  1.00  0.00     0.216 C 
HETATM   14  O   UNL     1      66.105   4.589   8.381  1.00  0.00    -0.643 OA
HETATM   15  O   UNL     1      66.468   6.488   9.483  1.00  0.00    -0.643 OA
ENDBRANCH   2  13
TORSDOF 2
ENDMDL
MODEL 5
REMARK VINA RESULT:      -4.7      3.678      5.880
REMARK  2 active torsions:
REMARK  status: ('A' for Active; 'I' for Inactive)
REMARK    1  A    between atoms: C_2  and  C_6 
REMARK    2  A    between atoms: C_3  and  C_7 
ROOT
HETATM    1  S   UNL     1      63.569   7.677   3.372  1.00  0.00    -0.081 SA
HETATM    2  C   UNL     1      62.340   8.847   3.147  1.00  0.00     0.082 A 
HETATM    3  C   UNL     1      64.154   8.434   4.798  1.00  0.00     0.032 A 
HETATM    4  C   UNL     1      62.404   9.829   4.117  1.00  0.00     0.027 A 
HETATM    5  C   UNL     1      63.456   9.602   5.050  1.00  0.00     0.023 A 
ENDROOT
BRANCH   3   6
HETATM    6  C   UNL     1      65.254   7.850   5.578  1.00  0.00     0.049 A 
HETATM    7  N   UNL     1      64.879   7.330   6.774  1.00  0.00    -0.365 N 
HETATM    8  C   UNL     1      65.836   6.727   7.514  1.00  0.00     0.088 A 
ATOM      9  HN  UNL     1      63.915   7.392   7.100  1.00  0.00     0.165 HD
HETATM   10  C   UNL     1      67.155   6.594   7.113  1.00  0.00     0.017 A 
HETATM   11  C   UNL     1      67.520   7.126   5.883  1.00  0.00     0.004 A 
HETATM   12  C   UNL     1      66.561   7.768   5.104  1.00  0.00     0.031 A 
ENDBRANCH   3   6
BRANCH   2  13
HETATM   13  C   UNL     1      61.420   8.703   2.045  1.00  0.00     0.216 C 
HETATM   14  O   UNL     1      60.343   8.123   2.013  1.00  0.00    -0.643 OA
HETATM   15  O   UNL     1      61.871   9.331   0.936  1.00  0.00    -0.643 OA
ENDBRANCH   2  13
TORSDOF 2
ENDMDL
MODEL 6
REMARK VINA RESULT:      -4.7      2.722      3.376
REMARK  2 active torsions:
REMARK  status: ('A' for Active; 'I' for Inactive)
REMARK    1  A    between atoms: C_2  and  C_6 
REMARK    2  A    between atoms: C_3  and  C_7 
ROOT
HETATM    1  S   UNL     1      62.680   7.567   4.197  1.00  0.00    -0.081 SA
HETATM    2  C   UNL     1      63.539   8.811   4.998  1.00  0.00     0.082 A 
HETATM    3  C   UNL     1      61.601   8.670   3.445  1.00  0.00     0.032 A 
HETATM    4  C   UNL     1      62.983  10.048   4.735  1.00  0.00     0.027 A 
HETATM    5  C   UNL     1      61.861   9.964   3.861  1.00  0.00     0.023 A 
ENDROOT
BRANCH   3   6
HETATM    6  C   UNL     1      60.571   8.212   2.502  1.00  0.00     0.049 A 
HETATM    7  N   UNL     1      59.415   7.809   3.089  1.00  0.00    -0.365 N 
HETATM    8  C   UNL     1      58.407   7.429   2.272  1.00  0.00     0.088 A 
ATOM      9  HN  UNL     1      59.312   7.793   4.103  1.00  0.00     0.165 HD
HETATM   10  C   UNL     1      58.483   7.450   0.889  1.00  0.00     0.017 A 
HETATM   11  C   UNL     1      59.670   7.871   0.306  1.00  0.00     0.004 A 
HETATM   12  C   UNL     1      60.733   8.254   1.121  1.00  0.00     0.031 A 
ENDBRANCH   3   6
BRANCH   2  13
HETATM   13  C   UNL     1      64.682   8.472   5.811  1.00  0.00     0.216 C 
HETATM   14  O   UNL     1      65.770   9.026   5.877  1.00  0.00    -0.643 OA
HETATM   15  O   UNL     1      64.437   7.391   6.586  1.00  0.00    -0.643 OA
ENDBRANCH   2  13
TORSDOF 2
ENDMDL
MODEL 7
REMARK VINA RESULT:      -4.2      3.922      5.938
REMARK  2 active torsions:
REMARK  status: ('A' for Active; 'I' for Inactive)
REMARK    1  A    between atoms: C_2  and  C_6 
REMARK    2  A    between atoms: C_3  and  C_7 
ROOT
HETATM    1  S   UNL     1      62.112   8.980   3.923  1.00  0.00    -0.081 SA
HETATM    2  C   UNL     1      62.011   9.997   2.551  1.00  0.00     0.082 A 
HETATM    3  C   UNL     1      62.338   7.567   2.974  1.00  0.00     0.032 A 
HETATM    4  C   UNL     1      62.100   9.266   1.382  1.00  0.00     0.027 A 
HETATM    5  C   UNL     1      62.267   7.872   1.625  1.00  0.00     0.023 A 
ENDROOT
BRANCH   3   6
HETATM    6  C   UNL     1      62.566   6.255   3.595  1.00  0.00     0.049 A 
HETATM    7  N   UNL     1      63.740   6.151   4.268  1.00  0.00    -0.365 N 
HETATM    8  C   UNL     1      63.983   4.987   4.911  1.00  0.00     0.088 A 
ATOM      9  HN  UNL     1      64.410   6.919   4.289  1.00  0.00     0.165 HD
HETATM   10  C   UNL     1      63.101   3.919   4.935  1.00  0.00     0.017 A 
HETATM   11  C   UNL     1      61.903   4.045   4.246  1.00  0.00     0.004 A 
HETATM   12  C   UNL     1      61.629   5.226   3.561  1.00  0.00     0.031 A 
ENDBRANCH   3   6
BRANCH   2  13
HETATM   13  C   UNL     1      61.855  11.419   2.735  1.00  0.00     0.216 C 
HETATM   14  O   UNL     1      61.768  12.299   1.889  1.00  0.00    -0.643 OA
HETATM   15  O   UNL     1      61.795  11.748   4.045  1.00  0.00    -0.643 OA
ENDBRANCH   2  13
TORSDOF 2
ENDMDL
MODEL 8
REMARK VINA RESULT:      -4.2      1.876      2.069
REMARK  2 active torsions:
REMARK  status: ('A' for Active; 'I' for Inactive)
REMARK    1  A    between atoms: C_2  and  C_6 
REMARK    2  A    between atoms: C_3  and  C_7 
ROOT
HETATM    1  S   UNL     1      62.763   6.386   3.838  1.00  0.00    -0.081 SA
HETATM    2  C   UNL     1      63.304   5.720   5.318  1.00  0.00     0.082 A 
HETATM    3  C   UNL     1      62.693   7.979   4.475  1.00  0.00     0.032 A 
HETATM    4  C   UNL     1      63.384   6.688   6.300  1.00  0.00     0.027 A 
HETATM    5  C   UNL     1      63.014   7.979   5.821  1.00  0.00     0.023 A 
ENDROOT
BRANCH   3   6
HETATM    6  C   UNL     1      62.327   9.125   3.631  1.00  0.00     0.049 A 
HETATM    7  N   UNL     1      62.247  10.306   4.295  1.00  0.00    -0.365 N 
HETATM    8  C   UNL     1      61.970  11.409   3.564  1.00  0.00     0.088 A 
ATOM      9  HN  UNL     1      62.390  10.359   5.304  1.00  0.00     0.165 HD
HETATM   10  C   UNL     1      61.788  11.401   2.192  1.00  0.00     0.017 A 
HETATM   11  C   UNL     1      61.879  10.185   1.527  1.00  0.00     0.004 A 
HETATM   12  C   UNL     1      62.148   9.028   2.254  1.00  0.00     0.031 A 
ENDBRANCH   3   6
BRANCH   2  13
HETATM   13  C   UNL     1      63.605   4.311   5.392  1.00  0.00     0.216 C 
HETATM   14  O   UNL     1      64.597   3.715   4.996  1.00  0.00    -0.643 OA
HETATM   15  O   UNL     1      62.615   3.623   6.004  1.00  0.00    -0.643 OA
ENDBRANCH   2  13
TORSDOF 2
ENDMDL
MODEL 9
REMARK VINA RESULT:      -4.2      4.181      5.506
REMARK  2 active torsions:
REMARK  status: ('A' for Active; 'I' for Inactive)
REMARK    1  A    between atoms: C_2  and  C_6 
REMARK    2  A    between atoms: C_3  and  C_7 
ROOT
HETATM    1  S   UNL     1      61.084   8.466   3.589  1.00  0.00    -0.081 SA
HETATM    2  C   UNL     1      61.928   9.943   3.400  1.00  0.00     0.082 A 
HETATM    3  C   UNL     1      61.017   8.182   1.897  1.00  0.00     0.032 A 
HETATM    4  C   UNL     1      62.115  10.241   2.064  1.00  0.00     0.027 A 
HETATM    5  C   UNL     1      61.574   9.242   1.203  1.00  0.00     0.023 A 
ENDROOT
BRANCH   3   6
HETATM    6  C   UNL     1      60.424   6.954   1.350  1.00  0.00     0.049 A 
HETATM    7  N   UNL     1      59.090   7.031   1.117  1.00  0.00    -0.365 N 
HETATM    8  C   UNL     1      58.496   5.951   0.560  1.00  0.00     0.088 A 
ATOM      9  HN  UNL     1      58.557   7.868   1.352  1.00  0.00     0.165 HD
HETATM   10  C   UNL     1      59.171   4.797   0.201  1.00  0.00     0.017 A 
HETATM   11  C   UNL     1      60.537   4.738   0.440  1.00  0.00     0.004 A 
HETATM   12  C   UNL     1      61.176   5.827   1.027  1.00  0.00     0.031 A 
ENDBRANCH   3   6
BRANCH   2  13
HETATM   13  C   UNL     1      62.337  10.679   4.571  1.00  0.00     0.216 C 
HETATM   14  O   UNL     1      62.948  10.283   5.554  1.00  0.00    -0.643 OA
HETATM   15  O   UNL     1      61.970  11.978   4.494  1.00  0.00    -0.643 OA
ENDBRANCH   2  13
TORSDOF 2
ENDMDL
