MODEL 1
REMARK VINA RESULT:      -3.8      0.000      0.000
REMARK  2 active torsions:
REMARK  status: ('A' for Active; 'I' for Inactive)
REMARK    1  A    between atoms: C_2  and  C_7 
REMARK    2  A    between atoms: N_6  and  C_7 
ROOT
HETATM    1  N   UNL     1      62.458   9.445   2.878  1.00  0.00    -0.363 N 
HETATM    2  C   UNL     1      62.409  10.339   3.926  1.00  0.00     0.036 A 
HETATM    3  C   UNL     1      61.997  10.050   1.734  1.00  0.00     0.090 A 
HETATM    4  C   UNL     1      61.668  11.350   2.035  1.00  0.00     0.019 A 
HETATM    5  C   UNL     1      61.928  11.534   3.413  1.00  0.00     0.028 A 
HETATM    6  C   UNL     1      62.909   8.070   2.910  1.00  0.00     0.155 C 
ENDROOT
BRANCH   2   7
HETATM    7  C   UNL     1      62.834  10.031   5.319  1.00  0.00     0.286 C 
BRANCH   7   8
HETATM    8  N   UNL     1      63.379  11.223   5.954  1.00  0.00    -0.074 N 
HETATM    9  H   UNL     1      64.116  10.954   6.607  1.00  0.00     0.274 HD
HETATM   10  H   UNL     1      62.638  11.708   6.460  1.00  0.00     0.274 HD
HETATM   11  H   UNL     1      63.766  11.842   5.242  1.00  0.00     0.274 HD
ENDBRANCH   7   8
ENDBRANCH   2   7
TORSDOF 2
ENDMDL
MODEL 2
REMARK VINA RESULT:      -3.6      0.913      2.196
REMARK  2 active torsions:
REMARK  status: ('A' for Active; 'I' for Inactive)
REMARK    1  A    between atoms: C_2  and  C_7 
REMARK    2  A    between atoms: N_6  and  C_7 
ROOT
HETATM    1  N   UNL     1      62.091  10.429   2.813  1.00  0.00    -0.363 N 
HETATM    2  C   UNL     1      62.439  10.265   4.137  1.00  0.00     0.036 A 
HETATM    3  C   UNL     1      62.135   9.216   2.171  1.00  0.00     0.090 A 
HETATM    4  C   UNL     1      62.493   8.255   3.086  1.00  0.00     0.019 A 
HETATM    5  C   UNL     1      62.683   8.913   4.324  1.00  0.00     0.028 A 
HETATM    6  C   UNL     1      61.728  11.659   2.141  1.00  0.00     0.155 C 
ENDROOT
BRANCH   2   7
HETATM    7  C   UNL     1      62.496  11.366   5.137  1.00  0.00     0.286 C 
BRANCH   7   8
HETATM    8  N   UNL     1      63.616  11.163   6.046  1.00  0.00    -0.074 N 
HETATM    9  H   UNL     1      64.491  11.361   5.559  1.00  0.00     0.274 HD
HETATM   10  H   UNL     1      63.620  10.195   6.369  1.00  0.00     0.274 HD
HETATM   11  H   UNL     1      63.523  11.788   6.846  1.00  0.00     0.274 HD
ENDBRANCH   7   8
ENDBRANCH   2   7
TORSDOF 2
ENDMDL
MODEL 3
REMARK VINA RESULT:      -3.3      1.410      3.033
REMARK  2 active torsions:
REMARK  status: ('A' for Active; 'I' for Inactive)
REMARK    1  A    between atoms: C_2  and  C_7 
REMARK    2  A    between atoms: N_6  and  C_7 
ROOT
HETATM    1  N   UNL     1      62.892   9.060   3.717  1.00  0.00    -0.363 N 
HETATM    2  C   UNL     1      62.192   9.867   2.846  1.00  0.00     0.036 A 
HETATM    3  C   UNL     1      63.083   9.722   4.905  1.00  0.00     0.090 A 
HETATM    4  C   UNL     1      62.486  10.956   4.814  1.00  0.00     0.019 A 
HETATM    5  C   UNL     1      61.923  11.049   3.519  1.00  0.00     0.028 A 
HETATM    6  C   UNL     1      63.380   7.718   3.480  1.00  0.00     0.155 C 
ENDROOT
BRANCH   2   7
HETATM    7  C   UNL     1      61.801   9.477   1.463  1.00  0.00     0.286 C 
BRANCH   7   8
HETATM    8  N   UNL     1      60.461   8.905   1.462  1.00  0.00    -0.074 N 
HETATM    9  H   UNL     1      59.810   9.565   1.035  1.00  0.00     0.274 HD
HETATM   10  H   UNL     1      60.171   8.715   2.421  1.00  0.00     0.274 HD
HETATM   11  H   UNL     1      60.462   8.036   0.928  1.00  0.00     0.274 HD
ENDBRANCH   7   8
ENDBRANCH   2   7
TORSDOF 2
ENDMDL
MODEL 4
REMARK VINA RESULT:      -3.2      1.807      2.675
REMARK  2 active torsions:
REMARK  status: ('A' for Active; 'I' for Inactive)
REMARK    1  A    between atoms: C_2  and  C_7 
REMARK    2  A    between atoms: N_6  and  C_7 
ROOT
HETATM    1  N   UNL     1      62.722  10.232   4.496  1.00  0.00    -0.363 N 
HETATM    2  C   UNL     1      63.328   9.010   4.299  1.00  0.00     0.036 A 
HETATM    3  C   UNL     1      61.909  10.521   3.428  1.00  0.00     0.090 A 
HETATM    4  C   UNL     1      61.969   9.471   2.543  1.00  0.00     0.019 A 
HETATM    5  C   UNL     1      62.860   8.518   3.090  1.00  0.00     0.028 A 
HETATM    6  C   UNL     1      62.878  11.124   5.626  1.00  0.00     0.155 C 
ENDROOT
BRANCH   2   7
HETATM    7  C   UNL     1      64.275   8.374   5.255  1.00  0.00     0.286 C 
BRANCH   7   8
HETATM    8  N   UNL     1      63.542   7.695   6.315  1.00  0.00    -0.074 N 
HETATM    9  H   UNL     1      62.948   8.367   6.802  1.00  0.00     0.274 HD
HETATM   10  H   UNL     1      64.201   7.283   6.975  1.00  0.00     0.274 HD
HETATM   11  H   UNL     1      62.961   6.961   5.911  1.00  0.00     0.274 HD
ENDBRANCH   7   8
ENDBRANCH   2   7
TORSDOF 2
ENDMDL
MODEL 5
REMARK VINA RESULT:      -3.2      1.500      3.675
REMARK  2 active torsions:
REMARK  status: ('A' for Active; 'I' for Inactive)
REMARK    1  A    between atoms: C_2  and  C_7 
REMARK    2  A    between atoms: N_6  and  C_7 
ROOT
HETATM    1  N   UNL     1      62.010  10.732   2.935  1.00  0.00    -0.363 N 
HETATM    2  C   UNL     1      62.009   9.406   2.557  1.00  0.00     0.036 A 
HETATM    3  C   UNL     1      62.384  10.835   4.253  1.00  0.00     0.090 A 
HETATM    4  C   UNL     1      62.648   9.572   4.727  1.00  0.00     0.019 A 
HETATM    5  C   UNL     1      62.415   8.672   3.661  1.00  0.00     0.028 A 
HETATM    6  C   UNL     1      61.677  11.883   2.122  1.00  0.00     0.155 C 
ENDROOT
BRANCH   2   7
HETATM    7  C   UNL     1      61.658   8.918   1.195  1.00  0.00     0.286 C 
BRANCH   7   8
HETATM    8  N   UNL     1      60.228   8.656   1.108  1.00  0.00    -0.074 N 
HETATM    9  H   UNL     1      59.962   7.973   1.818  1.00  0.00     0.274 HD
HETATM   10  H   UNL     1      60.005   8.288   0.183  1.00  0.00     0.274 HD
HETATM   11  H   UNL     1      59.713   9.522   1.262  1.00  0.00     0.274 HD
ENDBRANCH   7   8
ENDBRANCH   2   7
TORSDOF 2
ENDMDL
MODEL 6
REMARK VINA RESULT:      -3.1      1.157      3.003
REMARK  2 active torsions:
REMARK  status: ('A' for Active; 'I' for Inactive)
REMARK    1  A    between atoms: C_2  and  C_7 
REMARK    2  A    between atoms: N_6  and  C_7 
ROOT
HETATM    1  N   UNL     1      62.418   9.993   3.763  1.00  0.00    -0.363 N 
HETATM    2  C   UNL     1      62.401   9.248   2.603  1.00  0.00     0.036 A 
HETATM    3  C   UNL     1      62.005  11.275   3.493  1.00  0.00     0.090 A 
HETATM    4  C   UNL     1      61.698  11.358   2.156  1.00  0.00     0.019 A 
HETATM    5  C   UNL     1      61.944  10.083   1.595  1.00  0.00     0.028 A 
HETATM    6  C   UNL     1      62.803   9.556   5.088  1.00  0.00     0.155 C 
ENDROOT
BRANCH   2   7
HETATM    7  C   UNL     1      62.784   7.812   2.518  1.00  0.00     0.286 C 
BRANCH   7   8
HETATM    8  N   UNL     1      61.956   7.128   1.533  1.00  0.00    -0.074 N 
HETATM    9  H   UNL     1      61.330   7.801   1.089  1.00  0.00     0.274 HD
HETATM   10  H   UNL     1      61.405   6.405   1.995  1.00  0.00     0.274 HD
HETATM   11  H   UNL     1      62.552   6.701   0.825  1.00  0.00     0.274 HD
ENDBRANCH   7   8
ENDBRANCH   2   7
TORSDOF 2
ENDMDL
MODEL 7
REMARK VINA RESULT:      -3.1     12.743     13.864
REMARK  2 active torsions:
REMARK  status: ('A' for Active; 'I' for Inactive)
REMARK    1  A    between atoms: C_2  and  C_7 
REMARK    2  A    between atoms: N_6  and  C_7 
ROOT
HETATM    1  N   UNL     1      57.598   2.149  12.192  1.00  0.00    -0.363 N 
HETATM    2  C   UNL     1      57.023   1.894  13.419  1.00  0.00     0.036 A 
HETATM    3  C   UNL     1      58.964   2.056  12.294  1.00  0.00     0.090 A 
HETATM    4  C   UNL     1      59.279   1.718  13.589  1.00  0.00     0.019 A 
HETATM    5  C   UNL     1      58.059   1.614  14.298  1.00  0.00     0.028 A 
HETATM    6  C   UNL     1      56.925   2.473  10.952  1.00  0.00     0.155 C 
ENDROOT
BRANCH   2   7
HETATM    7  C   UNL     1      55.559   1.904  13.684  1.00  0.00     0.286 C 
BRANCH   7   8
HETATM    8  N   UNL     1      55.250   2.821  14.772  1.00  0.00    -0.074 N 
HETATM    9  H   UNL     1      54.451   2.467  15.299  1.00  0.00     0.274 HD
HETATM   10  H   UNL     1      55.024   3.739  14.390  1.00  0.00     0.274 HD
HETATM   11  H   UNL     1      56.057   2.899  15.391  1.00  0.00     0.274 HD
ENDBRANCH   7   8
ENDBRANCH   2   7
TORSDOF 2
ENDMDL
MODEL 8
REMARK VINA RESULT:      -2.9      6.330      7.787
REMARK  2 active torsions:
REMARK  status: ('A' for Active; 'I' for Inactive)
REMARK    1  A    between atoms: C_2  and  C_7 
REMARK    2  A    between atoms: N_6  and  C_7 
ROOT
HETATM    1  N   UNL     1      67.093   5.161   7.270  1.00  0.00    -0.363 N 
HETATM    2  C   UNL     1      66.407   6.286   7.677  1.00  0.00     0.036 A 
HETATM    3  C   UNL     1      68.075   4.865   8.184  1.00  0.00     0.090 A 
HETATM    4  C   UNL     1      68.013   5.787   9.200  1.00  0.00     0.019 A 
HETATM    5  C   UNL     1      66.963   6.681   8.884  1.00  0.00     0.028 A 
HETATM    6  C   UNL     1      66.868   4.372   6.077  1.00  0.00     0.155 C 
ENDROOT
BRANCH   2   7
HETATM    7  C   UNL     1      65.272   6.897   6.933  1.00  0.00     0.286 C 
BRANCH   7   8
HETATM    8  N   UNL     1      65.692   8.146   6.312  1.00  0.00    -0.074 N 
HETATM    9  H   UNL     1      66.282   7.943   5.504  1.00  0.00     0.274 HD
HETATM   10  H   UNL     1      66.218   8.701   6.986  1.00  0.00     0.274 HD
HETATM   11  H   UNL     1      64.870   8.668   6.008  1.00  0.00     0.274 HD
ENDBRANCH   7   8
ENDBRANCH   2   7
TORSDOF 2
ENDMDL
MODEL 9
REMARK VINA RESULT:      -2.9      1.962      3.092
REMARK  2 active torsions:
REMARK  status: ('A' for Active; 'I' for Inactive)
REMARK    1  A    between atoms: C_2  and  C_7 
REMARK    2  A    between atoms: N_6  and  C_7 
ROOT
HETATM    1  N   UNL     1      63.388   8.006   3.433  1.00  0.00    -0.363 N 
HETATM    2  C   UNL     1      62.755   9.089   4.007  1.00  0.00     0.036 A 
HETATM    3  C   UNL     1      64.544   7.731   4.121  1.00  0.00     0.090 A 
HETATM    4  C   UNL     1      64.653   8.624   5.160  1.00  0.00     0.019 A 
HETATM    5  C   UNL     1      63.527   9.478   5.091  1.00  0.00     0.028 A 
HETATM    6  C   UNL     1      62.957   7.239   2.284  1.00  0.00     0.155 C 
ENDROOT
BRANCH   2   7
HETATM    7  C   UNL     1      61.471   9.668   3.526  1.00  0.00     0.286 C 
BRANCH   7   8
HETATM    8  N   UNL     1      61.700  10.978   2.933  1.00  0.00    -0.074 N 
HETATM    9  H   UNL     1      60.803  11.421   2.729  1.00  0.00     0.274 HD
HETATM   10  H   UNL     1      62.231  10.873   2.069  1.00  0.00     0.274 HD
HETATM   11  H   UNL     1      62.225  11.560   3.586  1.00  0.00     0.274 HD
ENDBRANCH   7   8
ENDBRANCH   2   7
TORSDOF 2
ENDMDL
