MODEL 1
REMARK VINA RESULT:      -4.9      0.000      0.000
REMARK  3 active torsions:
REMARK  status: ('A' for Active; 'I' for Inactive)
REMARK    1  A    between atoms: C_1  and  C_6 
REMARK    2  A    between atoms: C_4  and  C_10 
REMARK    3  A    between atoms: N_9  and  C_10 
ROOT
HETATM    1  C   UNL     1      65.518   7.903   5.526  1.00  0.00     0.032 A 
HETATM    2  S   UNL     1      65.525   6.936   6.910  1.00  0.00    -0.091 SA
HETATM    3  C   UNL     1      66.799   7.913   4.984  1.00  0.00     0.022 A 
HETATM    4  C   UNL     1      67.155   6.505   6.793  1.00  0.00     0.009 A 
HETATM    5  C   UNL     1      67.715   7.140   5.697  1.00  0.00     0.017 A 
ENDROOT
BRANCH   1   6
HETATM    6  C   UNL     1      64.353   8.624   4.979  1.00  0.00     0.049 A 
HETATM    7  N   UNL     1      63.895   9.744   5.604  1.00  0.00    -0.365 N 
HETATM    8  C   UNL     1      62.843  10.458   5.118  1.00  0.00     0.088 A 
ATOM      9  HN  UNL     1      64.352  10.057   6.460  1.00  0.00     0.165 HD
HETATM   10  C   UNL     1      62.178  10.032   3.966  1.00  0.00     0.017 A 
HETATM   11  C   UNL     1      62.610   8.873   3.321  1.00  0.00     0.004 A 
HETATM   12  C   UNL     1      63.706   8.170   3.815  1.00  0.00     0.031 A 
ENDBRANCH   1   6
BRANCH   4  13
HETATM   13  C   UNL     1      67.889   5.580   7.715  1.00  0.00     0.275 C 
BRANCH  13  14
HETATM   14  N   UNL     1      68.074   6.230   9.011  1.00  0.00    -0.075 N 
HETATM   15  H   UNL     1      67.545   7.102   9.032  1.00  0.00     0.274 HD
HETATM   16  H   UNL     1      69.064   6.430   9.154  1.00  0.00     0.274 HD
HETATM   17  H   UNL     1      67.741   5.613   9.752  1.00  0.00     0.274 HD
ENDBRANCH  13  14
ENDBRANCH   4  13
TORSDOF 3
ENDMDL
MODEL 2
REMARK VINA RESULT:      -4.8      1.813      2.582
REMARK  3 active torsions:
REMARK  status: ('A' for Active; 'I' for Inactive)
REMARK    1  A    between atoms: C_1  and  C_6 
REMARK    2  A    between atoms: C_4  and  C_10 
REMARK    3  A    between atoms: N_9  and  C_10 
ROOT
HETATM    1  C   UNL     1      63.427   8.282   4.805  1.00  0.00     0.032 A 
HETATM    2  S   UNL     1      65.045   8.286   5.288  1.00  0.00    -0.091 SA
HETATM    3  C   UNL     1      62.754   7.291   5.512  1.00  0.00     0.022 A 
HETATM    4  C   UNL     1      64.873   7.046   6.424  1.00  0.00     0.009 A 
HETATM    5  C   UNL     1      63.564   6.595   6.409  1.00  0.00     0.017 A 
ENDROOT
BRANCH   1   6
HETATM    6  C   UNL     1      62.821   9.174   3.798  1.00  0.00     0.049 A 
HETATM    7  N   UNL     1      62.428  10.429   4.154  1.00  0.00    -0.365 N 
HETATM    8  C   UNL     1      61.892  11.296   3.252  1.00  0.00     0.088 A 
ATOM      9  HN  UNL     1      62.539  10.728   5.122  1.00  0.00     0.165 HD
HETATM   10  C   UNL     1      61.699  10.899   1.927  1.00  0.00     0.017 A 
HETATM   11  C   UNL     1      62.067   9.611   1.542  1.00  0.00     0.004 A 
HETATM   12  C   UNL     1      62.641   8.745   2.471  1.00  0.00     0.031 A 
ENDBRANCH   1   6
BRANCH   4  13
HETATM   13  C   UNL     1      65.954   6.515   7.316  1.00  0.00     0.275 C 
BRANCH  13  14
HETATM   14  N   UNL     1      66.986   7.534   7.490  1.00  0.00    -0.075 N 
HETATM   15  H   UNL     1      67.668   7.459   6.736  1.00  0.00     0.274 HD
HETATM   16  H   UNL     1      67.453   7.397   8.386  1.00  0.00     0.274 HD
HETATM   17  H   UNL     1      66.557   8.460   7.469  1.00  0.00     0.274 HD
ENDBRANCH  13  14
ENDBRANCH   4  13
TORSDOF 3
ENDMDL
MODEL 3
REMARK VINA RESULT:      -4.6      1.942      5.830
REMARK  3 active torsions:
REMARK  status: ('A' for Active; 'I' for Inactive)
REMARK    1  A    between atoms: C_1  and  C_6 
REMARK    2  A    between atoms: C_4  and  C_10 
REMARK    3  A    between atoms: N_9  and  C_10 
ROOT
HETATM    1  C   UNL     1      64.291   8.374   4.924  1.00  0.00     0.032 A 
HETATM    2  S   UNL     1      63.632   9.893   5.256  1.00  0.00    -0.091 SA
HETATM    3  C   UNL     1      63.687   7.868   3.777  1.00  0.00     0.022 A 
HETATM    4  C   UNL     1      62.605   9.915   3.914  1.00  0.00     0.009 A 
HETATM    5  C   UNL     1      62.740   8.725   3.219  1.00  0.00     0.017 A 
ENDROOT
BRANCH   1   6
HETATM    6  C   UNL     1      65.329   7.688   5.716  1.00  0.00     0.049 A 
HETATM    7  N   UNL     1      65.034   7.222   6.962  1.00  0.00    -0.365 N 
HETATM    8  C   UNL     1      65.951   6.557   7.716  1.00  0.00     0.088 A 
ATOM      9  HN  UNL     1      64.100   7.376   7.341  1.00  0.00     0.165 HD
HETATM   10  C   UNL     1      67.248   6.364   7.233  1.00  0.00     0.017 A 
HETATM   11  C   UNL     1      67.585   6.853   5.972  1.00  0.00     0.004 A 
HETATM   12  C   UNL     1      66.626   7.506   5.201  1.00  0.00     0.031 A 
ENDBRANCH   1   6
BRANCH   4  13
HETATM   13  C   UNL     1      61.693  11.039   3.522  1.00  0.00     0.275 C 
BRANCH  13  14
HETATM   14  N   UNL     1      61.638  11.134   2.065  1.00  0.00    -0.075 N 
HETATM   15  H   UNL     1      62.294  10.470   1.655  1.00  0.00     0.274 HD
HETATM   16  H   UNL     1      61.887  12.080   1.776  1.00  0.00     0.274 HD
HETATM   17  H   UNL     1      60.693  10.920   1.746  1.00  0.00     0.274 HD
ENDBRANCH  13  14
ENDBRANCH   4  13
TORSDOF 3
ENDMDL
MODEL 4
REMARK VINA RESULT:      -4.5      1.628      2.018
REMARK  3 active torsions:
REMARK  status: ('A' for Active; 'I' for Inactive)
REMARK    1  A    between atoms: C_1  and  C_6 
REMARK    2  A    between atoms: C_4  and  C_10 
REMARK    3  A    between atoms: N_9  and  C_10 
ROOT
HETATM    1  C   UNL     1      64.565   7.919   5.577  1.00  0.00     0.032 A 
HETATM    2  S   UNL     1      64.184   6.577   6.528  1.00  0.00    -0.091 SA
HETATM    3  C   UNL     1      65.883   8.283   5.828  1.00  0.00     0.022 A 
HETATM    4  C   UNL     1      65.715   6.444   7.231  1.00  0.00     0.009 A 
HETATM    5  C   UNL     1      66.522   7.465   6.759  1.00  0.00     0.017 A 
ENDROOT
BRANCH   1   6
HETATM    6  C   UNL     1      63.655   8.600   4.637  1.00  0.00     0.049 A 
HETATM    7  N   UNL     1      63.442   8.074   3.398  1.00  0.00    -0.365 N 
HETATM    8  C   UNL     1      62.589   8.652   2.509  1.00  0.00     0.088 A 
ATOM      9  HN  UNL     1      63.936   7.224   3.129  1.00  0.00     0.165 HD
HETATM   10  C   UNL     1      61.926   9.836   2.842  1.00  0.00     0.017 A 
HETATM   11  C   UNL     1      62.146  10.411   4.093  1.00  0.00     0.004 A 
HETATM   12  C   UNL     1      63.000   9.791   5.002  1.00  0.00     0.031 A 
ENDBRANCH   1   6
BRANCH   4  13
HETATM   13  C   UNL     1      66.147   5.390   8.206  1.00  0.00     0.275 C 
BRANCH  13  14
HETATM   14  N   UNL     1      65.512   4.120   7.862  1.00  0.00    -0.075 N 
HETATM   15  H   UNL     1      65.646   3.931   6.869  1.00  0.00     0.274 HD
HETATM   16  H   UNL     1      64.514   4.171   8.067  1.00  0.00     0.274 HD
HETATM   17  H   UNL     1      65.933   3.369   8.410  1.00  0.00     0.274 HD
ENDBRANCH  13  14
ENDBRANCH   4  13
TORSDOF 3
ENDMDL
MODEL 5
REMARK VINA RESULT:      -4.3      2.398      5.928
REMARK  3 active torsions:
REMARK  status: ('A' for Active; 'I' for Inactive)
REMARK    1  A    between atoms: C_1  and  C_6 
REMARK    2  A    between atoms: C_4  and  C_10 
REMARK    3  A    between atoms: N_9  and  C_10 
ROOT
HETATM    1  C   UNL     1      63.661   8.477   4.746  1.00  0.00     0.032 A 
HETATM    2  S   UNL     1      63.204   7.936   3.213  1.00  0.00    -0.091 SA
HETATM    3  C   UNL     1      63.038   9.696   4.992  1.00  0.00     0.022 A 
HETATM    4  C   UNL     1      62.184   9.242   2.883  1.00  0.00     0.009 A 
HETATM    5  C   UNL     1      62.220  10.127   3.948  1.00  0.00     0.017 A 
ENDROOT
BRANCH   1   6
HETATM    6  C   UNL     1      64.573   7.782   5.674  1.00  0.00     0.049 A 
HETATM    7  N   UNL     1      65.724   8.391   6.077  1.00  0.00    -0.365 N 
HETATM    8  C   UNL     1      66.579   7.800   6.955  1.00  0.00     0.088 A 
ATOM      9  HN  UNL     1      65.950   9.315   5.711  1.00  0.00     0.165 HD
HETATM   10  C   UNL     1      66.308   6.520   7.444  1.00  0.00     0.017 A 
HETATM   11  C   UNL     1      65.151   5.863   7.028  1.00  0.00     0.004 A 
HETATM   12  C   UNL     1      64.272   6.493   6.151  1.00  0.00     0.031 A 
ENDBRANCH   1   6
BRANCH   4  13
HETATM   13  C   UNL     1      61.359   9.423   1.644  1.00  0.00     0.275 C 
BRANCH  13  14
HETATM   14  N   UNL     1      60.196   8.541   1.701  1.00  0.00    -0.075 N 
HETATM   15  H   UNL     1      59.528   8.812   0.980  1.00  0.00     0.274 HD
HETATM   16  H   UNL     1      59.756   8.615   2.617  1.00  0.00     0.274 HD
HETATM   17  H   UNL     1      60.493   7.577   1.543  1.00  0.00     0.274 HD
ENDBRANCH  13  14
ENDBRANCH   4  13
TORSDOF 3
ENDMDL
MODEL 6
REMARK VINA RESULT:      -4.1      3.766      4.269
REMARK  3 active torsions:
REMARK  status: ('A' for Active; 'I' for Inactive)
REMARK    1  A    between atoms: C_1  and  C_6 
REMARK    2  A    between atoms: C_4  and  C_10 
REMARK    3  A    between atoms: N_9  and  C_10 
ROOT
HETATM    1  C   UNL     1      62.223   7.906   4.646  1.00  0.00     0.032 A 
HETATM    2  S   UNL     1      61.066   6.706   4.912  1.00  0.00    -0.091 SA
HETATM    3  C   UNL     1      63.306   7.674   5.488  1.00  0.00     0.022 A 
HETATM    4  C   UNL     1      61.967   5.873   6.074  1.00  0.00     0.009 A 
HETATM    5  C   UNL     1      63.159   6.544   6.291  1.00  0.00     0.017 A 
ENDROOT
BRANCH   1   6
HETATM    6  C   UNL     1      62.110   9.022   3.688  1.00  0.00     0.049 A 
HETATM    7  N   UNL     1      61.921  10.292   4.145  1.00  0.00    -0.365 N 
HETATM    8  C   UNL     1      61.841  11.355   3.300  1.00  0.00     0.088 A 
ATOM      9  HN  UNL     1      61.837  10.450   5.149  1.00  0.00     0.165 HD
HETATM   10  C   UNL     1      61.919  11.160   1.919  1.00  0.00     0.017 A 
HETATM   11  C   UNL     1      62.086   9.868   1.422  1.00  0.00     0.004 A 
HETATM   12  C   UNL     1      62.195   8.794   2.303  1.00  0.00     0.031 A 
ENDBRANCH   1   6
BRANCH   4  13
HETATM   13  C   UNL     1      61.558   4.606   6.763  1.00  0.00     0.275 C 
BRANCH  13  14
HETATM   14  N   UNL     1      60.337   4.841   7.529  1.00  0.00    -0.075 N 
HETATM   15  H   UNL     1      59.988   3.955   7.894  1.00  0.00     0.274 HD
HETATM   16  H   UNL     1      59.631   5.261   6.924  1.00  0.00     0.274 HD
HETATM   17  H   UNL     1      60.538   5.472   8.305  1.00  0.00     0.274 HD
ENDBRANCH  13  14
ENDBRANCH   4  13
TORSDOF 3
ENDMDL
MODEL 7
REMARK VINA RESULT:      -4.0      2.666      5.912
REMARK  3 active torsions:
REMARK  status: ('A' for Active; 'I' for Inactive)
REMARK    1  A    between atoms: C_1  and  C_6 
REMARK    2  A    between atoms: C_4  and  C_10 
REMARK    3  A    between atoms: N_9  and  C_10 
ROOT
HETATM    1  C   UNL     1      63.120   7.609   4.987  1.00  0.00     0.032 A 
HETATM    2  S   UNL     1      61.851   6.502   5.107  1.00  0.00    -0.091 SA
HETATM    3  C   UNL     1      62.748   8.620   4.107  1.00  0.00     0.022 A 
HETATM    4  C   UNL     1      60.816   7.336   4.061  1.00  0.00     0.009 A 
HETATM    5  C   UNL     1      61.465   8.461   3.583  1.00  0.00     0.017 A 
ENDROOT
BRANCH   1   6
HETATM    6  C   UNL     1      64.413   7.524   5.692  1.00  0.00     0.049 A 
HETATM    7  N   UNL     1      64.489   6.891   6.896  1.00  0.00    -0.365 N 
HETATM    8  C   UNL     1      65.665   6.762   7.567  1.00  0.00     0.088 A 
ATOM      9  HN  UNL     1      63.640   6.503   7.306  1.00  0.00     0.165 HD
HETATM   10  C   UNL     1      66.836   7.315   7.042  1.00  0.00     0.017 A 
HETATM   11  C   UNL     1      66.783   7.992   5.824  1.00  0.00     0.004 A 
HETATM   12  C   UNL     1      65.575   8.090   5.136  1.00  0.00     0.031 A 
ENDBRANCH   1   6
BRANCH   4  13
HETATM   13  C   UNL     1      59.416   6.936   3.706  1.00  0.00     0.275 C 
BRANCH  13  14
HETATM   14  N   UNL     1      58.566   8.124   3.667  1.00  0.00    -0.075 N 
HETATM   15  H   UNL     1      58.302   8.383   4.617  1.00  0.00     0.274 HD
HETATM   16  H   UNL     1      57.727   7.925   3.123  1.00  0.00     0.274 HD
HETATM   17  H   UNL     1      59.077   8.894   3.235  1.00  0.00     0.274 HD
ENDBRANCH  13  14
ENDBRANCH   4  13
TORSDOF 3
ENDMDL
MODEL 8
REMARK VINA RESULT:      -3.8      3.056      4.397
REMARK  3 active torsions:
REMARK  status: ('A' for Active; 'I' for Inactive)
REMARK    1  A    between atoms: C_1  and  C_6 
REMARK    2  A    between atoms: C_4  and  C_10 
REMARK    3  A    between atoms: N_9  and  C_10 
ROOT
HETATM    1  C   UNL     1      62.005   8.068   3.673  1.00  0.00     0.032 A 
HETATM    2  S   UNL     1      62.808   6.794   4.437  1.00  0.00    -0.091 SA
HETATM    3  C   UNL     1      62.597   9.264   4.063  1.00  0.00     0.022 A 
HETATM    4  C   UNL     1      63.932   7.772   5.234  1.00  0.00     0.009 A 
HETATM    5  C   UNL     1      63.667   9.099   4.942  1.00  0.00     0.017 A 
ENDROOT
BRANCH   1   6
HETATM    6  C   UNL     1      60.862   7.942   2.750  1.00  0.00     0.049 A 
HETATM    7  N   UNL     1      59.677   7.442   3.201  1.00  0.00    -0.365 N 
HETATM    8  C   UNL     1      58.588   7.336   2.393  1.00  0.00     0.088 A 
ATOM      9  HN  UNL     1      59.605   7.139   4.172  1.00  0.00     0.165 HD
HETATM   10  C   UNL     1      58.672   7.713   1.050  1.00  0.00     0.017 A 
HETATM   11  C   UNL     1      59.879   8.204   0.555  1.00  0.00     0.004 A 
HETATM   12  C   UNL     1      60.977   8.332   1.403  1.00  0.00     0.031 A 
ENDBRANCH   1   6
BRANCH   4  13
HETATM   13  C   UNL     1      65.047   7.293   6.115  1.00  0.00     0.275 C 
BRANCH  13  14
HETATM   14  N   UNL     1      65.962   8.400   6.386  1.00  0.00    -0.075 N 
HETATM   15  H   UNL     1      66.911   8.126   6.132  1.00  0.00     0.274 HD
HETATM   16  H   UNL     1      65.930   8.633   7.378  1.00  0.00     0.274 HD
HETATM   17  H   UNL     1      65.685   9.213   5.836  1.00  0.00     0.274 HD
ENDBRANCH  13  14
ENDBRANCH   4  13
TORSDOF 3
ENDMDL
MODEL 9
REMARK VINA RESULT:      -3.8     13.005     14.184
REMARK  3 active torsions:
REMARK  status: ('A' for Active; 'I' for Inactive)
REMARK    1  A    between atoms: C_1  and  C_6 
REMARK    2  A    between atoms: C_4  and  C_10 
REMARK    3  A    between atoms: N_9  and  C_10 
ROOT
HETATM    1  C   UNL     1      55.507   2.873  12.816  1.00  0.00     0.032 A 
HETATM    2  S   UNL     1      54.596   3.739  13.942  1.00  0.00    -0.091 SA
HETATM    3  C   UNL     1      54.731   2.666  11.680  1.00  0.00     0.022 A 
HETATM    4  C   UNL     1      53.226   3.878  12.963  1.00  0.00     0.009 A 
HETATM    5  C   UNL     1      53.454   3.219  11.767  1.00  0.00     0.017 A 
ENDROOT
BRANCH   1   6
HETATM    6  C   UNL     1      56.894   2.405  12.998  1.00  0.00     0.049 A 
HETATM    7  N   UNL     1      57.299   1.945  14.215  1.00  0.00    -0.365 N 
HETATM    8  C   UNL     1      58.560   1.475  14.422  1.00  0.00     0.088 A 
ATOM      9  HN  UNL     1      56.640   1.952  14.993  1.00  0.00     0.165 HD
HETATM   10  C   UNL     1      59.492   1.487  13.381  1.00  0.00     0.017 A 
HETATM   11  C   UNL     1      59.112   1.977  12.132  1.00  0.00     0.004 A 
HETATM   12  C   UNL     1      57.809   2.427  11.930  1.00  0.00     0.031 A 
ENDBRANCH   1   6
BRANCH   4  13
HETATM   13  C   UNL     1      51.961   4.602  13.317  1.00  0.00     0.275 C 
BRANCH  13  14
HETATM   14  N   UNL     1      51.905   4.805  14.763  1.00  0.00    -0.075 N 
HETATM   15  H   UNL     1      51.054   5.313  15.002  1.00  0.00     0.274 HD
HETATM   16  H   UNL     1      52.718   5.343  15.063  1.00  0.00     0.274 HD
HETATM   17  H   UNL     1      51.904   3.900  15.233  1.00  0.00     0.274 HD
ENDBRANCH  13  14
ENDBRANCH   4  13
TORSDOF 3
ENDMDL
