MODEL 1
REMARK VINA RESULT:      -3.6      0.000      0.000
REMARK  2 active torsions:
REMARK  status: ('A' for Active; 'I' for Inactive)
REMARK    1  A    between atoms: C_1  and  C_7 
REMARK    2  A    between atoms: N_6  and  C_7 
ROOT
HETATM    1  C   UNL     1      61.928  10.127   2.389  1.00  0.00    -0.009 A 
HETATM    2  O   UNL     1      61.957  12.001   3.647  1.00  0.00    -0.334 OA
HETATM    3  C   UNL     1      61.729  11.494   2.409  1.00  0.00     0.150 A 
HETATM    4  C   UNL     1      62.302   9.787   3.723  1.00  0.00     0.035 A 
HETATM    5  C   UNL     1      62.308  10.959   4.442  1.00  0.00     0.142 A 
ENDROOT
BRANCH   1   6
HETATM    6  C   UNL     1      61.764   9.213   1.231  1.00  0.00     0.270 C 
BRANCH   6   7
HETATM    7  N   UNL     1      60.376   8.777   1.177  1.00  0.00    -0.075 N 
HETATM    8  H   UNL     1      60.318   7.886   0.682  1.00  0.00     0.274 HD
HETATM    9  H   UNL     1      59.819   9.476   0.685  1.00  0.00     0.274 HD
HETATM   10  H   UNL     1      60.018   8.662   2.125  1.00  0.00     0.274 HD
ENDBRANCH   6   7
ENDBRANCH   1   6
TORSDOF 2
ENDMDL
MODEL 2
REMARK VINA RESULT:      -3.5      2.206      2.887
REMARK  2 active torsions:
REMARK  status: ('A' for Active; 'I' for Inactive)
REMARK    1  A    between atoms: C_1  and  C_7 
REMARK    2  A    between atoms: N_6  and  C_7 
ROOT
HETATM    1  C   UNL     1      62.339   9.865   3.943  1.00  0.00    -0.009 A 
HETATM    2  O   UNL     1      61.888  12.004   3.381  1.00  0.00    -0.334 OA
HETATM    3  C   UNL     1      62.227  11.166   4.393  1.00  0.00     0.150 A 
HETATM    4  C   UNL     1      62.048   9.929   2.548  1.00  0.00     0.035 A 
HETATM    5  C   UNL     1      61.778  11.246   2.261  1.00  0.00     0.142 A 
ENDROOT
BRANCH   1   6
HETATM    6  C   UNL     1      62.707   8.668   4.740  1.00  0.00     0.270 C 
BRANCH   6   7
HETATM    7  N   UNL     1      63.906   8.971   5.507  1.00  0.00    -0.075 N 
HETATM    8  H   UNL     1      63.650   9.166   6.476  1.00  0.00     0.274 HD
HETATM    9  H   UNL     1      64.369   9.787   5.107  1.00  0.00     0.274 HD
HETATM   10  H   UNL     1      64.539   8.172   5.478  1.00  0.00     0.274 HD
ENDBRANCH   6   7
ENDBRANCH   1   6
TORSDOF 2
ENDMDL
MODEL 3
REMARK VINA RESULT:      -3.2      1.958      2.342
REMARK  2 active torsions:
REMARK  status: ('A' for Active; 'I' for Inactive)
REMARK    1  A    between atoms: C_1  and  C_7 
REMARK    2  A    between atoms: N_6  and  C_7 
ROOT
HETATM    1  C   UNL     1      62.468   9.872   3.532  1.00  0.00    -0.009 A 
HETATM    2  O   UNL     1      63.126  10.046   5.684  1.00  0.00    -0.334 OA
HETATM    3  C   UNL     1      62.428  10.637   4.681  1.00  0.00     0.150 A 
HETATM    4  C   UNL     1      63.249   8.729   3.874  1.00  0.00     0.035 A 
HETATM    5  C   UNL     1      63.625   8.886   5.186  1.00  0.00     0.142 A 
ENDROOT
BRANCH   1   6
HETATM    6  C   UNL     1      61.816  10.170   2.232  1.00  0.00     0.270 C 
BRANCH   6   7
HETATM    7  N   UNL     1      61.613  11.608   2.133  1.00  0.00    -0.075 N 
HETATM    8  H   UNL     1      61.452  11.863   1.157  1.00  0.00     0.274 HD
HETATM    9  H   UNL     1      62.441  12.094   2.478  1.00  0.00     0.274 HD
HETATM   10  H   UNL     1      60.803  11.876   2.692  1.00  0.00     0.274 HD
ENDBRANCH   6   7
ENDBRANCH   1   6
TORSDOF 2
ENDMDL
MODEL 4
REMARK VINA RESULT:      -3.1      3.428      4.138
REMARK  2 active torsions:
REMARK  status: ('A' for Active; 'I' for Inactive)
REMARK    1  A    between atoms: C_1  and  C_7 
REMARK    2  A    between atoms: N_6  and  C_7 
ROOT
HETATM    1  C   UNL     1      63.166   9.698   4.736  1.00  0.00    -0.009 A 
HETATM    2  O   UNL     1      63.246   7.938   3.325  1.00  0.00    -0.334 OA
HETATM    3  C   UNL     1      62.593   9.086   3.639  1.00  0.00     0.150 A 
HETATM    4  C   UNL     1      64.252   8.851   5.108  1.00  0.00     0.035 A 
HETATM    5  C   UNL     1      64.253   7.799   4.224  1.00  0.00     0.142 A 
ENDROOT
BRANCH   1   6
HETATM    6  C   UNL     1      62.751  10.973   5.372  1.00  0.00     0.270 C 
BRANCH   6   7
HETATM    7  N   UNL     1      63.804  11.405   6.279  1.00  0.00    -0.075 N 
HETATM    8  H   UNL     1      63.575  12.327   6.652  1.00  0.00     0.274 HD
HETATM    9  H   UNL     1      64.689  11.454   5.773  1.00  0.00     0.274 HD
HETATM   10  H   UNL     1      63.887  10.738   7.046  1.00  0.00     0.274 HD
ENDBRANCH   6   7
ENDBRANCH   1   6
TORSDOF 2
ENDMDL
MODEL 5
REMARK VINA RESULT:      -3.0      1.948      2.092
REMARK  2 active torsions:
REMARK  status: ('A' for Active; 'I' for Inactive)
REMARK    1  A    between atoms: C_1  and  C_7 
REMARK    2  A    between atoms: N_6  and  C_7 
ROOT
HETATM    1  C   UNL     1      62.643   9.492   3.792  1.00  0.00    -0.009 A 
HETATM    2  O   UNL     1      62.056  11.550   4.508  1.00  0.00    -0.334 OA
HETATM    3  C   UNL     1      61.945  10.647   3.501  1.00  0.00     0.150 A 
HETATM    4  C   UNL     1      63.215   9.718   5.079  1.00  0.00     0.035 A 
HETATM    5  C   UNL     1      62.832  10.980   5.465  1.00  0.00     0.142 A 
ENDROOT
BRANCH   1   6
HETATM    6  C   UNL     1      62.750   8.272   2.952  1.00  0.00     0.270 C 
BRANCH   6   7
HETATM    7  N   UNL     1      62.873   7.115   3.827  1.00  0.00    -0.075 N 
HETATM    8  H   UNL     1      63.044   7.428   4.783  1.00  0.00     0.274 HD
HETATM    9  H   UNL     1      63.651   6.534   3.515  1.00  0.00     0.274 HD
HETATM   10  H   UNL     1      62.009   6.573   3.796  1.00  0.00     0.274 HD
ENDBRANCH   6   7
ENDBRANCH   1   6
TORSDOF 2
ENDMDL
MODEL 6
REMARK VINA RESULT:      -2.8      8.016      8.704
REMARK  2 active torsions:
REMARK  status: ('A' for Active; 'I' for Inactive)
REMARK    1  A    between atoms: C_1  and  C_7 
REMARK    2  A    between atoms: N_6  and  C_7 
ROOT
HETATM    1  C   UNL     1      66.954   6.343   7.349  1.00  0.00    -0.009 A 
HETATM    2  O   UNL     1      66.234   4.758   8.786  1.00  0.00    -0.334 OA
HETATM    3  C   UNL     1      65.860   5.783   7.979  1.00  0.00     0.150 A 
HETATM    4  C   UNL     1      68.074   5.590   7.812  1.00  0.00     0.035 A 
HETATM    5  C   UNL     1      67.583   4.647   8.682  1.00  0.00     0.142 A 
ENDROOT
BRANCH   1   6
HETATM    6  C   UNL     1      66.954   7.468   6.381  1.00  0.00     0.270 C 
BRANCH   6   7
HETATM    7  N   UNL     1      66.944   8.720   7.124  1.00  0.00    -0.075 N 
HETATM    8  H   UNL     1      66.010   8.883   7.503  1.00  0.00     0.274 HD
HETATM    9  H   UNL     1      67.196   9.487   6.501  1.00  0.00     0.274 HD
HETATM   10  H   UNL     1      67.617   8.667   7.889  1.00  0.00     0.274 HD
ENDBRANCH   6   7
ENDBRANCH   1   6
TORSDOF 2
ENDMDL
MODEL 7
REMARK VINA RESULT:      -2.7      7.213      7.909
REMARK  2 active torsions:
REMARK  status: ('A' for Active; 'I' for Inactive)
REMARK    1  A    between atoms: C_1  and  C_7 
REMARK    2  A    between atoms: N_6  and  C_7 
ROOT
HETATM    1  C   UNL     1      67.421   6.656   6.521  1.00  0.00    -0.009 A 
HETATM    2  O   UNL     1      66.570   8.380   5.338  1.00  0.00    -0.334 OA
HETATM    3  C   UNL     1      66.805   7.890   6.582  1.00  0.00     0.150 A 
HETATM    4  C   UNL     1      67.573   6.385   5.129  1.00  0.00     0.035 A 
HETATM    5  C   UNL     1      67.038   7.458   4.458  1.00  0.00     0.142 A 
ENDROOT
BRANCH   1   6
HETATM    6  C   UNL     1      67.852   5.811   7.662  1.00  0.00     0.270 C 
BRANCH   6   7
HETATM    7  N   UNL     1      67.809   6.613   8.877  1.00  0.00    -0.075 N 
HETATM    8  H   UNL     1      67.631   7.588   8.635  1.00  0.00     0.274 HD
HETATM    9  H   UNL     1      68.703   6.542   9.363  1.00  0.00     0.274 HD
HETATM   10  H   UNL     1      67.064   6.271   9.483  1.00  0.00     0.274 HD
ENDBRANCH   6   7
ENDBRANCH   1   6
TORSDOF 2
ENDMDL
MODEL 8
REMARK VINA RESULT:      -2.7      5.565      6.245
REMARK  2 active torsions:
REMARK  status: ('A' for Active; 'I' for Inactive)
REMARK    1  A    between atoms: C_1  and  C_7 
REMARK    2  A    between atoms: N_6  and  C_7 
ROOT
HETATM    1  C   UNL     1      65.778   7.686   5.551  1.00  0.00    -0.009 A 
HETATM    2  O   UNL     1      64.007   7.194   6.862  1.00  0.00    -0.334 OA
HETATM    3  C   UNL     1      65.351   7.074   6.713  1.00  0.00     0.150 A 
HETATM    4  C   UNL     1      64.596   8.220   4.957  1.00  0.00     0.035 A 
HETATM    5  C   UNL     1      63.553   7.891   5.790  1.00  0.00     0.142 A 
ENDROOT
BRANCH   1   6
HETATM    6  C   UNL     1      67.171   7.783   5.048  1.00  0.00     0.270 C 
BRANCH   6   7
HETATM    7  N   UNL     1      68.075   7.310   6.086  1.00  0.00    -0.075 N 
HETATM    8  H   UNL     1      67.703   6.453   6.496  1.00  0.00     0.274 HD
HETATM    9  H   UNL     1      68.163   8.023   6.811  1.00  0.00     0.274 HD
HETATM   10  H   UNL     1      68.991   7.123   5.680  1.00  0.00     0.274 HD
ENDBRANCH   6   7
ENDBRANCH   1   6
TORSDOF 2
ENDMDL
MODEL 9
REMARK VINA RESULT:      -2.7     14.367     15.026
REMARK  2 active torsions:
REMARK  status: ('A' for Active; 'I' for Inactive)
REMARK    1  A    between atoms: C_1  and  C_7 
REMARK    2  A    between atoms: N_6  and  C_7 
ROOT
HETATM    1  C   UNL     1      58.000   0.644  13.786  1.00  0.00    -0.009 A 
HETATM    2  O   UNL     1      59.928   1.788  13.518  1.00  0.00    -0.334 OA
HETATM    3  C   UNL     1      58.713   1.778  14.122  1.00  0.00     0.150 A 
HETATM    4  C   UNL     1      58.859  -0.088  12.911  1.00  0.00     0.035 A 
HETATM    5  C   UNL     1      60.010   0.651  12.780  1.00  0.00     0.142 A 
ENDROOT
BRANCH   1   6
HETATM    6  C   UNL     1      56.645   0.263  14.254  1.00  0.00     0.270 C 
BRANCH   6   7
HETATM    7  N   UNL     1      55.833   1.467  14.358  1.00  0.00    -0.075 N 
HETATM    8  H   UNL     1      55.878   1.984  13.478  1.00  0.00     0.274 HD
HETATM    9  H   UNL     1      56.188   2.052  15.114  1.00  0.00     0.274 HD
HETATM   10  H   UNL     1      54.866   1.209  14.552  1.00  0.00     0.274 HD
ENDBRANCH   6   7
ENDBRANCH   1   6
TORSDOF 2
ENDMDL
