MODEL 1
REMARK VINA RESULT:      -4.0      0.000      0.000
REMARK  1 active torsions:
REMARK  status: ('A' for Active; 'I' for Inactive)
REMARK    1  A    between atoms: C_1  and  C_2 
ROOT
HETATM    1  C   UNL     1      62.809  10.029   4.686  1.00  0.00     0.064 A 
HETATM    2  C   UNL     1      62.518  11.334   5.026  1.00  0.00     0.159 A 
HETATM    3  C   UNL     1      62.314   9.866   3.360  1.00  0.00     0.045 A 
HETATM    4  O   UNL     1      61.887  11.971   4.005  1.00  0.00    -0.334 OA
HETATM    5  C   UNL     1      61.766  11.071   2.995  1.00  0.00     0.142 A 
ENDROOT
BRANCH   1   6
HETATM    6  C   UNL     1      63.475   9.079   5.540  1.00  0.00     0.211 C 
HETATM    7  O   UNL     1      62.930   8.224   6.223  1.00  0.00    -0.644 OA
HETATM    8  O   UNL     1      64.823   9.194   5.542  1.00  0.00    -0.644 OA
ENDBRANCH   1   6
TORSDOF 1
ENDMDL
MODEL 2
REMARK VINA RESULT:      -3.9      2.445      3.777
REMARK  1 active torsions:
REMARK  status: ('A' for Active; 'I' for Inactive)
REMARK    1  A    between atoms: C_1  and  C_2 
ROOT
HETATM    1  C   UNL     1      61.919   9.881   2.577  1.00  0.00     0.064 A 
HETATM    2  C   UNL     1      61.784   8.809   3.436  1.00  0.00     0.159 A 
HETATM    3  C   UNL     1      62.120   9.307   1.289  1.00  0.00     0.045 A 
HETATM    4  O   UNL     1      61.888   7.634   2.763  1.00  0.00    -0.334 OA
HETATM    5  C   UNL     1      62.093   7.944   1.457  1.00  0.00     0.142 A 
ENDROOT
BRANCH   1   6
HETATM    6  C   UNL     1      61.860  11.267   2.965  1.00  0.00     0.211 C 
HETATM    7  O   UNL     1      61.807  11.688   4.111  1.00  0.00    -0.644 OA
HETATM    8  O   UNL     1      61.868  12.129   1.923  1.00  0.00    -0.644 OA
ENDBRANCH   1   6
TORSDOF 1
ENDMDL
MODEL 3
REMARK VINA RESULT:      -3.8      2.632      3.793
REMARK  1 active torsions:
REMARK  status: ('A' for Active; 'I' for Inactive)
REMARK    1  A    between atoms: C_1  and  C_2 
ROOT
HETATM    1  C   UNL     1      61.886   9.999   2.264  1.00  0.00     0.064 A 
HETATM    2  C   UNL     1      61.774  11.375   2.239  1.00  0.00     0.159 A 
HETATM    3  C   UNL     1      62.167   9.669   3.621  1.00  0.00     0.045 A 
HETATM    4  O   UNL     1      61.965  11.898   3.478  1.00  0.00    -0.334 OA
HETATM    5  C   UNL     1      62.204  10.855   4.314  1.00  0.00     0.142 A 
ENDROOT
BRANCH   1   6
HETATM    6  C   UNL     1      61.740   9.135   1.121  1.00  0.00     0.211 C 
HETATM    7  O   UNL     1      62.571   8.962   0.242  1.00  0.00    -0.644 OA
HETATM    8  O   UNL     1      60.554   8.485   1.073  1.00  0.00    -0.644 OA
ENDBRANCH   1   6
TORSDOF 1
ENDMDL
MODEL 4
REMARK VINA RESULT:      -3.8      1.952      2.337
REMARK  1 active torsions:
REMARK  status: ('A' for Active; 'I' for Inactive)
REMARK    1  A    between atoms: C_1  and  C_2 
ROOT
HETATM    1  C   UNL     1      62.184   9.701   3.016  1.00  0.00     0.064 A 
HETATM    2  C   UNL     1      62.139  10.668   4.000  1.00  0.00     0.159 A 
HETATM    3  C   UNL     1      61.941  10.394   1.796  1.00  0.00     0.045 A 
HETATM    4  O   UNL     1      61.887  11.891   3.465  1.00  0.00    -0.334 OA
HETATM    5  C   UNL     1      61.768  11.718   2.123  1.00  0.00     0.142 A 
ENDROOT
BRANCH   1   6
HETATM    6  C   UNL     1      62.430   8.300   3.242  1.00  0.00     0.211 C 
HETATM    7  O   UNL     1      63.306   7.632   2.713  1.00  0.00    -0.644 OA
HETATM    8  O   UNL     1      61.583   7.731   4.130  1.00  0.00    -0.644 OA
ENDBRANCH   1   6
TORSDOF 1
ENDMDL
MODEL 5
REMARK VINA RESULT:      -3.7      1.525      2.983
REMARK  1 active torsions:
REMARK  status: ('A' for Active; 'I' for Inactive)
REMARK    1  A    between atoms: C_1  and  C_2 
ROOT
HETATM    1  C   UNL     1      63.045   9.748   4.514  1.00  0.00     0.064 A 
HETATM    2  C   UNL     1      64.011   8.822   4.853  1.00  0.00     0.159 A 
HETATM    3  C   UNL     1      62.427   9.233   3.339  1.00  0.00     0.045 A 
HETATM    4  O   UNL     1      64.022   7.789   3.971  1.00  0.00    -0.334 OA
HETATM    5  C   UNL     1      63.056   8.046   3.052  1.00  0.00     0.142 A 
ENDROOT
BRANCH   1   6
HETATM    6  C   UNL     1      62.769  10.961   5.239  1.00  0.00     0.211 C 
HETATM    7  O   UNL     1      63.166  11.230   6.364  1.00  0.00    -0.644 OA
HETATM    8  O   UNL     1      61.997  11.842   4.562  1.00  0.00    -0.644 OA
ENDBRANCH   1   6
TORSDOF 1
ENDMDL
MODEL 6
REMARK VINA RESULT:      -3.7      1.835      3.670
REMARK  1 active torsions:
REMARK  status: ('A' for Active; 'I' for Inactive)
REMARK    1  A    between atoms: C_1  and  C_2 
ROOT
HETATM    1  C   UNL     1      62.218   9.976   3.662  1.00  0.00     0.064 A 
HETATM    2  C   UNL     1      61.978   8.918   2.808  1.00  0.00     0.159 A 
HETATM    3  C   UNL     1      62.730   9.389   4.854  1.00  0.00     0.045 A 
HETATM    4  O   UNL     1      62.308   7.739   3.395  1.00  0.00    -0.334 OA
HETATM    5  C   UNL     1      62.765   8.032   4.640  1.00  0.00     0.142 A 
ENDROOT
BRANCH   1   6
HETATM    6  C   UNL     1      61.978  11.362   3.352  1.00  0.00     0.211 C 
HETATM    7  O   UNL     1      61.904  11.843   2.231  1.00  0.00    -0.644 OA
HETATM    8  O   UNL     1      61.827  12.149   4.442  1.00  0.00    -0.644 OA
ENDBRANCH   1   6
TORSDOF 1
ENDMDL
MODEL 7
REMARK VINA RESULT:      -3.5      1.562      3.380
REMARK  1 active torsions:
REMARK  status: ('A' for Active; 'I' for Inactive)
REMARK    1  A    between atoms: C_1  and  C_2 
ROOT
HETATM    1  C   UNL     1      63.047   9.424   4.425  1.00  0.00     0.064 A 
HETATM    2  C   UNL     1      63.745  10.086   5.415  1.00  0.00     0.159 A 
HETATM    3  C   UNL     1      63.798   8.243   4.160  1.00  0.00     0.045 A 
HETATM    4  O   UNL     1      64.860   9.393   5.766  1.00  0.00    -0.334 OA
HETATM    5  C   UNL     1      64.886   8.273   4.999  1.00  0.00     0.142 A 
ENDROOT
BRANCH   1   6
HETATM    6  C   UNL     1      61.821   9.886   3.826  1.00  0.00     0.211 C 
HETATM    7  O   UNL     1      61.485  11.053   3.689  1.00  0.00    -0.644 OA
HETATM    8  O   UNL     1      61.012   8.890   3.398  1.00  0.00    -0.644 OA
ENDBRANCH   1   6
TORSDOF 1
ENDMDL
MODEL 8
REMARK VINA RESULT:      -3.4      1.516      2.256
REMARK  1 active torsions:
REMARK  status: ('A' for Active; 'I' for Inactive)
REMARK    1  A    between atoms: C_1  and  C_2 
ROOT
HETATM    1  C   UNL     1      63.698   9.048   4.706  1.00  0.00     0.064 A 
HETATM    2  C   UNL     1      63.146   8.571   3.534  1.00  0.00     0.159 A 
HETATM    3  C   UNL     1      62.950  10.218   5.024  1.00  0.00     0.045 A 
HETATM    4  O   UNL     1      62.123   9.364   3.122  1.00  0.00    -0.334 OA
HETATM    5  C   UNL     1      62.009  10.364   4.034  1.00  0.00     0.142 A 
ENDROOT
BRANCH   1   6
HETATM    6  C   UNL     1      64.799   8.443   5.410  1.00  0.00     0.211 C 
HETATM    7  O   UNL     1      65.984   8.589   5.147  1.00  0.00    -0.644 OA
HETATM    8  O   UNL     1      64.423   7.656   6.444  1.00  0.00    -0.644 OA
ENDBRANCH   1   6
TORSDOF 1
ENDMDL
MODEL 9
REMARK VINA RESULT:      -3.4      5.014      6.782
REMARK  1 active torsions:
REMARK  status: ('A' for Active; 'I' for Inactive)
REMARK    1  A    between atoms: C_1  and  C_2 
ROOT
HETATM    1  C   UNL     1      66.916   6.767   7.298  1.00  0.00     0.064 A 
HETATM    2  C   UNL     1      65.856   6.367   8.086  1.00  0.00     0.159 A 
HETATM    3  C   UNL     1      67.965   5.847   7.586  1.00  0.00     0.045 A 
HETATM    4  O   UNL     1      66.186   5.277   8.826  1.00  0.00    -0.334 OA
HETATM    5  C   UNL     1      67.471   4.966   8.517  1.00  0.00     0.142 A 
ENDROOT
BRANCH   1   6
HETATM    6  C   UNL     1      66.901   7.889   6.395  1.00  0.00     0.211 C 
HETATM    7  O   UNL     1      66.165   8.861   6.473  1.00  0.00    -0.644 OA
HETATM    8  O   UNL     1      67.807   7.798   5.394  1.00  0.00    -0.644 OA
ENDBRANCH   1   6
TORSDOF 1
ENDMDL
