MODEL 1
REMARK VINA RESULT:      -4.3      0.000      0.000
REMARK  1 active torsions:
REMARK  status: ('A' for Active; 'I' for Inactive)
REMARK    1  A    between atoms: C_1  and  C_2 
ROOT
HETATM    1  C   UNL     1      62.431  10.532   4.056  1.00  0.00     0.151 A 
HETATM    2  O   UNL     1      62.031  11.756   3.590  1.00  0.00    -0.316 OA
HETATM    3  C   UNL     1      62.324   9.601   3.035  1.00  0.00     0.046 A 
HETATM    4  C   UNL     1      61.676  11.599   2.288  1.00  0.00     0.143 A 
HETATM    5  C   UNL     1      61.838  10.291   1.899  1.00  0.00     0.027 A 
ENDROOT
BRANCH   1   6
HETATM    6  C   UNL     1      62.865  10.420   5.423  1.00  0.00     0.234 C 
HETATM    7  O   UNL     1      63.125  11.310   6.220  1.00  0.00    -0.642 OA
HETATM    8  O   UNL     1      62.976   9.124   5.801  1.00  0.00    -0.642 OA
ENDBRANCH   1   6
TORSDOF 1
ENDMDL
MODEL 2
REMARK VINA RESULT:      -4.1      1.974      3.233
REMARK  1 active torsions:
REMARK  status: ('A' for Active; 'I' for Inactive)
REMARK    1  A    between atoms: C_1  and  C_2 
ROOT
HETATM    1  C   UNL     1      63.565   9.677   5.020  1.00  0.00     0.151 A 
HETATM    2  O   UNL     1      64.772   9.430   5.622  1.00  0.00    -0.316 OA
HETATM    3  C   UNL     1      63.246   8.614   4.192  1.00  0.00     0.046 A 
HETATM    4  C   UNL     1      65.206   8.222   5.178  1.00  0.00     0.143 A 
HETATM    5  C   UNL     1      64.304   7.679   4.296  1.00  0.00     0.027 A 
ENDROOT
BRANCH   1   6
HETATM    6  C   UNL     1      62.880  10.905   5.323  1.00  0.00     0.234 C 
HETATM    7  O   UNL     1      62.076  11.523   4.639  1.00  0.00    -0.642 OA
HETATM    8  O   UNL     1      63.227  11.375   6.544  1.00  0.00    -0.642 OA
ENDBRANCH   1   6
TORSDOF 1
ENDMDL
MODEL 3
REMARK VINA RESULT:      -3.9      1.777      3.110
REMARK  1 active torsions:
REMARK  status: ('A' for Active; 'I' for Inactive)
REMARK    1  A    between atoms: C_1  and  C_2 
ROOT
HETATM    1  C   UNL     1      62.117   9.847   2.377  1.00  0.00     0.151 A 
HETATM    2  O   UNL     1      62.527   8.836   3.206  1.00  0.00    -0.316 OA
HETATM    3  C   UNL     1      62.001   9.355   1.087  1.00  0.00     0.046 A 
HETATM    4  C   UNL     1      62.667   7.719   2.446  1.00  0.00     0.143 A 
HETATM    5  C   UNL     1      62.356   7.986   1.135  1.00  0.00     0.027 A 
ENDROOT
BRANCH   1   6
HETATM    6  C   UNL     1      61.890  11.152   2.936  1.00  0.00     0.234 C 
HETATM    7  O   UNL     1      61.716  11.465   4.106  1.00  0.00    -0.642 OA
HETATM    8  O   UNL     1      61.882  12.106   1.976  1.00  0.00    -0.642 OA
ENDBRANCH   1   6
TORSDOF 1
ENDMDL
MODEL 4
REMARK VINA RESULT:      -3.9      1.334      2.149
REMARK  1 active torsions:
REMARK  status: ('A' for Active; 'I' for Inactive)
REMARK    1  A    between atoms: C_1  and  C_2 
ROOT
HETATM    1  C   UNL     1      62.011  10.114   3.499  1.00  0.00     0.151 A 
HETATM    2  O   UNL     1      61.590   8.821   3.671  1.00  0.00    -0.316 OA
HETATM    3  C   UNL     1      61.965  10.428   2.150  1.00  0.00     0.046 A 
HETATM    4  C   UNL     1      61.282   8.327   2.445  1.00  0.00     0.143 A 
HETATM    5  C   UNL     1      61.496   9.276   1.475  1.00  0.00     0.027 A 
ENDROOT
BRANCH   1   6
HETATM    6  C   UNL     1      62.401  10.875   4.654  1.00  0.00     0.234 C 
HETATM    7  O   UNL     1      63.061  10.518   5.620  1.00  0.00    -0.642 OA
HETATM    8  O   UNL     1      61.934  12.144   4.589  1.00  0.00    -0.642 OA
ENDBRANCH   1   6
TORSDOF 1
ENDMDL
MODEL 5
REMARK VINA RESULT:      -3.6      2.347      3.099
REMARK  1 active torsions:
REMARK  status: ('A' for Active; 'I' for Inactive)
REMARK    1  A    between atoms: C_1  and  C_2 
ROOT
HETATM    1  C   UNL     1      64.310   9.100   5.123  1.00  0.00     0.151 A 
HETATM    2  O   UNL     1      64.012  10.289   5.735  1.00  0.00    -0.316 OA
HETATM    3  C   UNL     1      63.328   8.813   4.190  1.00  0.00     0.046 A 
HETATM    4  C   UNL     1      62.856  10.747   5.192  1.00  0.00     0.143 A 
HETATM    5  C   UNL     1      62.394   9.875   4.236  1.00  0.00     0.027 A 
ENDROOT
BRANCH   1   6
HETATM    6  C   UNL     1      65.501   8.398   5.519  1.00  0.00     0.234 C 
HETATM    7  O   UNL     1      66.288   8.667   6.415  1.00  0.00    -0.642 OA
HETATM    8  O   UNL     1      65.710   7.306   4.745  1.00  0.00    -0.642 OA
ENDBRANCH   1   6
TORSDOF 1
ENDMDL
MODEL 6
REMARK VINA RESULT:      -3.6      1.655      1.890
REMARK  1 active torsions:
REMARK  status: ('A' for Active; 'I' for Inactive)
REMARK    1  A    between atoms: C_1  and  C_2 
ROOT
HETATM    1  C   UNL     1      62.940   9.646   4.218  1.00  0.00     0.151 A 
HETATM    2  O   UNL     1      62.864   8.907   3.066  1.00  0.00    -0.316 OA
HETATM    3  C   UNL     1      62.219  10.818   4.051  1.00  0.00     0.046 A 
HETATM    4  C   UNL     1      62.104   9.605   2.185  1.00  0.00     0.143 A 
HETATM    5  C   UNL     1      61.683  10.788   2.742  1.00  0.00     0.027 A 
ENDROOT
BRANCH   1   6
HETATM    6  C   UNL     1      63.694   9.126   5.326  1.00  0.00     0.234 C 
HETATM    7  O   UNL     1      64.885   9.259   5.572  1.00  0.00    -0.642 OA
HETATM    8  O   UNL     1      62.911   8.403   6.161  1.00  0.00    -0.642 OA
ENDBRANCH   1   6
TORSDOF 1
ENDMDL
MODEL 7
REMARK VINA RESULT:      -3.5      5.320      6.940
REMARK  1 active torsions:
REMARK  status: ('A' for Active; 'I' for Inactive)
REMARK    1  A    between atoms: C_1  and  C_2 
ROOT
HETATM    1  C   UNL     1      66.665   7.193   6.924  1.00  0.00     0.151 A 
HETATM    2  O   UNL     1      65.835   7.009   7.999  1.00  0.00    -0.316 OA
HETATM    3  C   UNL     1      67.690   6.263   6.981  1.00  0.00     0.046 A 
HETATM    4  C   UNL     1      66.332   5.974   8.724  1.00  0.00     0.143 A 
HETATM    5  C   UNL     1      67.473   5.480   8.140  1.00  0.00     0.027 A 
ENDROOT
BRANCH   1   6
HETATM    6  C   UNL     1      66.361   8.239   5.985  1.00  0.00     0.234 C 
HETATM    7  O   UNL     1      65.457   9.062   6.021  1.00  0.00    -0.642 OA
HETATM    8  O   UNL     1      67.237   8.244   4.953  1.00  0.00    -0.642 OA
ENDBRANCH   1   6
TORSDOF 1
ENDMDL
MODEL 8
REMARK VINA RESULT:      -3.4      3.298      4.543
REMARK  1 active torsions:
REMARK  status: ('A' for Active; 'I' for Inactive)
REMARK    1  A    between atoms: C_1  and  C_2 
ROOT
HETATM    1  C   UNL     1      64.916   8.505   5.224  1.00  0.00     0.151 A 
HETATM    2  O   UNL     1      65.771   8.931   6.207  1.00  0.00    -0.316 OA
HETATM    3  C   UNL     1      65.462   7.397   4.599  1.00  0.00     0.046 A 
HETATM    4  C   UNL     1      66.844   8.099   6.200  1.00  0.00     0.143 A 
HETATM    5  C   UNL     1      66.703   7.138   5.229  1.00  0.00     0.027 A 
ENDROOT
BRANCH   1   6
HETATM    6  C   UNL     1      63.686   9.222   5.019  1.00  0.00     0.234 C 
HETATM    7  O   UNL     1      63.076   9.937   5.802  1.00  0.00    -0.642 OA
HETATM    8  O   UNL     1      63.203   9.025   3.769  1.00  0.00    -0.642 OA
ENDBRANCH   1   6
TORSDOF 1
ENDMDL
MODEL 9
REMARK VINA RESULT:      -3.3      5.515      6.678
REMARK  1 active torsions:
REMARK  status: ('A' for Active; 'I' for Inactive)
REMARK    1  A    between atoms: C_1  and  C_2 
ROOT
HETATM    1  C   UNL     1      66.682   6.722   7.429  1.00  0.00     0.151 A 
HETATM    2  O   UNL     1      65.811   7.669   6.957  1.00  0.00    -0.316 OA
HETATM    3  C   UNL     1      67.652   6.482   6.469  1.00  0.00     0.046 A 
HETATM    4  C   UNL     1      66.229   8.021   5.714  1.00  0.00     0.143 A 
HETATM    5  C   UNL     1      67.357   7.319   5.367  1.00  0.00     0.027 A 
ENDROOT
BRANCH   1   6
HETATM    6  C   UNL     1      66.466   6.176   8.741  1.00  0.00     0.234 C 
HETATM    7  O   UNL     1      66.559   6.730   9.827  1.00  0.00    -0.642 OA
HETATM    8  O   UNL     1      66.118   4.869   8.679  1.00  0.00    -0.642 OA
ENDBRANCH   1   6
TORSDOF 1
ENDMDL
