MODEL 1
REMARK VINA RESULT:      -4.0      0.000      0.000
REMARK  1 active torsions:
REMARK  status: ('A' for Active; 'I' for Inactive)
REMARK    1  A    between atoms: C_1  and  C_3 
ROOT
HETATM    1  C   UNL     1      62.733   9.682   4.173  1.00  0.00     0.111 A 
HETATM    2  N   UNL     1      62.588   9.057   2.948  1.00  0.00    -0.356 N 
HETATM    3  C   UNL     1      62.208  10.962   4.012  1.00  0.00     0.038 A 
HETATM    4  C   UNL     1      61.988   9.913   2.051  1.00  0.00     0.091 A 
HETATM    5  C   UNL     1      61.744  11.104   2.687  1.00  0.00     0.020 A 
HETATM    6  C   UNL     1      62.986   7.716   2.572  1.00  0.00     0.156 C 
ENDROOT
BRANCH   1   7
HETATM    7  C   UNL     1      63.311   9.113   5.367  1.00  0.00     0.227 C 
HETATM    8  O   UNL     1      62.793   8.377   6.191  1.00  0.00    -0.643 OA
HETATM    9  O   UNL     1      64.598   9.496   5.520  1.00  0.00    -0.643 OA
ENDBRANCH   1   7
TORSDOF 1
ENDMDL
MODEL 2
REMARK VINA RESULT:      -3.9      1.768      2.162
REMARK  1 active torsions:
REMARK  status: ('A' for Active; 'I' for Inactive)
REMARK    1  A    between atoms: C_1  and  C_3 
ROOT
HETATM    1  C   UNL     1      62.145  10.075   3.515  1.00  0.00     0.111 A 
HETATM    2  N   UNL     1      61.955   8.705   3.482  1.00  0.00    -0.356 N 
HETATM    3  C   UNL     1      61.985  10.513   2.202  1.00  0.00     0.038 A 
HETATM    4  C   UNL     1      61.680   8.299   2.195  1.00  0.00     0.091 A 
HETATM    5  C   UNL     1      61.694   9.403   1.380  1.00  0.00     0.020 A 
HETATM    6  C   UNL     1      62.025   7.764   4.580  1.00  0.00     0.156 C 
ENDROOT
BRANCH   1   7
HETATM    7  C   UNL     1      62.446  10.874   4.677  1.00  0.00     0.227 C 
HETATM    8  O   UNL     1      63.096  10.573   5.665  1.00  0.00    -0.643 OA
HETATM    9  O   UNL     1      61.897  12.106   4.582  1.00  0.00    -0.643 OA
ENDBRANCH   1   7
TORSDOF 1
ENDMDL
MODEL 3
REMARK VINA RESULT:      -3.7      1.219      1.773
REMARK  1 active torsions:
REMARK  status: ('A' for Active; 'I' for Inactive)
REMARK    1  A    between atoms: C_1  and  C_3 
ROOT
HETATM    1  C   UNL     1      63.744   9.171   4.790  1.00  0.00     0.111 A 
HETATM    2  N   UNL     1      63.054   8.760   3.663  1.00  0.00    -0.356 N 
HETATM    3  C   UNL     1      63.165  10.378   5.172  1.00  0.00     0.038 A 
HETATM    4  C   UNL     1      62.074   9.675   3.353  1.00  0.00     0.091 A 
HETATM    5  C   UNL     1      62.123  10.692   4.274  1.00  0.00     0.020 A 
HETATM    6  C   UNL     1      63.268   7.572   2.864  1.00  0.00     0.156 C 
ENDROOT
BRANCH   1   7
HETATM    7  C   UNL     1      64.837   8.480   5.429  1.00  0.00     0.227 C 
HETATM    8  O   UNL     1      66.031   8.543   5.183  1.00  0.00    -0.643 OA
HETATM    9  O   UNL     1      64.396   7.673   6.420  1.00  0.00    -0.643 OA
ENDBRANCH   1   7
TORSDOF 1
ENDMDL
MODEL 4
REMARK VINA RESULT:      -3.6      5.213      6.793
REMARK  1 active torsions:
REMARK  status: ('A' for Active; 'I' for Inactive)
REMARK    1  A    between atoms: C_1  and  C_3 
ROOT
HETATM    1  C   UNL     1      66.657   6.793   7.524  1.00  0.00     0.111 A 
HETATM    2  N   UNL     1      67.354   5.710   7.018  1.00  0.00    -0.356 N 
HETATM    3  C   UNL     1      66.962   6.841   8.881  1.00  0.00     0.038 A 
HETATM    4  C   UNL     1      68.075   5.104   8.021  1.00  0.00     0.091 A 
HETATM    5  C   UNL     1      67.847   5.786   9.191  1.00  0.00     0.020 A 
HETATM    6  C   UNL     1      67.373   5.213   5.658  1.00  0.00     0.156 C 
ENDROOT
BRANCH   1   7
HETATM    7  C   UNL     1      65.795   7.683   6.785  1.00  0.00     0.227 C 
HETATM    8  O   UNL     1      66.087   8.700   6.176  1.00  0.00    -0.643 OA
HETATM    9  O   UNL     1      64.510   7.267   6.824  1.00  0.00    -0.643 OA
ENDBRANCH   1   7
TORSDOF 1
ENDMDL
MODEL 5
REMARK VINA RESULT:      -3.6      2.340      3.199
REMARK  1 active torsions:
REMARK  status: ('A' for Active; 'I' for Inactive)
REMARK    1  A    between atoms: C_1  and  C_3 
ROOT
HETATM    1  C   UNL     1      62.367   9.774   4.025  1.00  0.00     0.111 A 
HETATM    2  N   UNL     1      61.727   8.567   3.807  1.00  0.00    -0.356 N 
HETATM    3  C   UNL     1      63.365   9.511   4.960  1.00  0.00     0.038 A 
HETATM    4  C   UNL     1      62.308   7.581   4.572  1.00  0.00     0.091 A 
HETATM    5  C   UNL     1      63.328   8.142   5.300  1.00  0.00     0.020 A 
HETATM    6  C   UNL     1      60.605   8.292   2.933  1.00  0.00     0.156 C 
ENDROOT
BRANCH   1   7
HETATM    7  C   UNL     1      62.053  11.039   3.406  1.00  0.00     0.227 C 
HETATM    8  O   UNL     1      62.018  11.321   2.219  1.00  0.00    -0.643 OA
HETATM    9  O   UNL     1      61.777  11.984   4.331  1.00  0.00    -0.643 OA
ENDBRANCH   1   7
TORSDOF 1
ENDMDL
MODEL 6
REMARK VINA RESULT:      -3.5      5.262      6.851
REMARK  1 active torsions:
REMARK  status: ('A' for Active; 'I' for Inactive)
REMARK    1  A    between atoms: C_1  and  C_3 
ROOT
HETATM    1  C   UNL     1      66.722   6.410   6.683  1.00  0.00     0.111 A 
HETATM    2  N   UNL     1      67.323   5.858   7.800  1.00  0.00    -0.356 N 
HETATM    3  C   UNL     1      67.029   5.558   5.625  1.00  0.00     0.038 A 
HETATM    4  C   UNL     1      67.978   4.697   7.456  1.00  0.00     0.091 A 
HETATM    5  C   UNL     1      67.813   4.489   6.109  1.00  0.00     0.020 A 
HETATM    6  C   UNL     1      67.322   6.359   9.158  1.00  0.00     0.156 C 
ENDROOT
BRANCH   1   7
HETATM    7  C   UNL     1      65.940   7.622   6.636  1.00  0.00     0.227 C 
HETATM    8  O   UNL     1      66.314   8.766   6.437  1.00  0.00    -0.643 OA
HETATM    9  O   UNL     1      64.630   7.370   6.855  1.00  0.00    -0.643 OA
ENDBRANCH   1   7
TORSDOF 1
ENDMDL
MODEL 7
REMARK VINA RESULT:      -3.3      2.550      3.140
REMARK  1 active torsions:
REMARK  status: ('A' for Active; 'I' for Inactive)
REMARK    1  A    between atoms: C_1  and  C_3 
ROOT
HETATM    1  C   UNL     1      62.227   9.488   3.174  1.00  0.00     0.111 A 
HETATM    2  N   UNL     1      63.159   8.779   3.911  1.00  0.00    -0.356 N 
HETATM    3  C   UNL     1      61.986  10.658   3.890  1.00  0.00     0.038 A 
HETATM    4  C   UNL     1      63.495   9.482   5.045  1.00  0.00     0.091 A 
HETATM    5  C   UNL     1      62.778  10.652   5.058  1.00  0.00     0.020 A 
HETATM    6  C   UNL     1      63.739   7.486   3.615  1.00  0.00     0.156 C 
ENDROOT
BRANCH   1   7
HETATM    7  C   UNL     1      61.635   9.087   1.921  1.00  0.00     0.227 C 
HETATM    8  O   UNL     1      60.605   8.461   1.728  1.00  0.00    -0.643 OA
HETATM    9  O   UNL     1      62.381   9.496   0.871  1.00  0.00    -0.643 OA
ENDBRANCH   1   7
TORSDOF 1
ENDMDL
MODEL 8
REMARK VINA RESULT:      -3.2      4.220      5.201
REMARK  1 active torsions:
REMARK  status: ('A' for Active; 'I' for Inactive)
REMARK    1  A    between atoms: C_1  and  C_3 
ROOT
HETATM    1  C   UNL     1      65.271   7.060   5.980  1.00  0.00     0.111 A 
HETATM    2  N   UNL     1      66.434   7.006   6.727  1.00  0.00    -0.356 N 
HETATM    3  C   UNL     1      65.668   7.361   4.680  1.00  0.00     0.038 A 
HETATM    4  C   UNL     1      67.523   7.259   5.923  1.00  0.00     0.091 A 
HETATM    5  C   UNL     1      67.074   7.485   4.645  1.00  0.00     0.020 A 
HETATM    6  C   UNL     1      66.579   6.741   8.144  1.00  0.00     0.156 C 
ENDROOT
BRANCH   1   7
HETATM    7  C   UNL     1      63.928   6.845   6.461  1.00  0.00     0.227 C 
HETATM    8  O   UNL     1      63.132   7.662   6.894  1.00  0.00    -0.643 OA
HETATM    9  O   UNL     1      63.585   5.540   6.393  1.00  0.00    -0.643 OA
ENDBRANCH   1   7
TORSDOF 1
ENDMDL
MODEL 9
REMARK VINA RESULT:      -3.2      4.805      5.766
REMARK  1 active torsions:
REMARK  status: ('A' for Active; 'I' for Inactive)
REMARK    1  A    between atoms: C_1  and  C_3 
ROOT
HETATM    1  C   UNL     1      66.506   6.397   7.029  1.00  0.00     0.111 A 
HETATM    2  N   UNL     1      65.526   6.930   6.212  1.00  0.00    -0.356 N 
HETATM    3  C   UNL     1      67.716   6.661   6.392  1.00  0.00     0.038 A 
HETATM    4  C   UNL     1      66.100   7.514   5.105  1.00  0.00     0.091 A 
HETATM    5  C   UNL     1      67.462   7.358   5.192  1.00  0.00     0.020 A 
HETATM    6  C   UNL     1      64.091   6.915   6.407  1.00  0.00     0.156 C 
ENDROOT
BRANCH   1   7
HETATM    7  C   UNL     1      66.304   5.710   8.281  1.00  0.00     0.227 C 
HETATM    8  O   UNL     1      66.081   4.526   8.477  1.00  0.00    -0.643 OA
HETATM    9  O   UNL     1      66.385   6.562   9.327  1.00  0.00    -0.643 OA
ENDBRANCH   1   7
TORSDOF 1
ENDMDL
