MODEL 1
REMARK VINA RESULT:      -3.8      0.000      0.000
REMARK  2 active torsions:
REMARK  status: ('A' for Active; 'I' for Inactive)
REMARK    1  A    between atoms: CA_3  and  C_7 
REMARK    2  A    between atoms: C_7  and  O_9 
ROOT
HETATM    1  N   UNL     1      64.250   9.058   5.372  1.00  0.00    -0.353 N 
ATOM      2  HN  UNL     1      64.912   9.075   6.148  1.00  0.00     0.166 HD
HETATM    3  CA  UNL     1      63.279   9.997   5.078  1.00  0.00     0.049 A 
HETATM    4  N   UNL     1      63.146   8.446   3.554  1.00  0.00    -0.355 N 
HETATM    5  C   UNL     1      64.139   8.136   4.437  1.00  0.00     0.182 A 
HETATM    6  C   UNL     1      62.583   9.625   3.948  1.00  0.00     0.118 A 
HETATM    7  C   UNL     1      62.758   7.674   2.400  1.00  0.00     0.156 C 
ENDROOT
BRANCH   3   8
HETATM    8  C   UNL     1      63.102  11.211   5.925  1.00  0.00     0.222 C 
BRANCH   8   9
HETATM    9  O   UNL     1      64.330  11.638   6.512  1.00  0.00    -0.395 OA
HETATM   10  H   UNL     1      64.879  12.063   5.836  1.00  0.00     0.209 HD
ENDBRANCH   8   9
ENDBRANCH   3   8
TORSDOF 2
ENDMDL
MODEL 2
REMARK VINA RESULT:      -3.7      1.053      1.568
REMARK  2 active torsions:
REMARK  status: ('A' for Active; 'I' for Inactive)
REMARK    1  A    between atoms: CA_3  and  C_7 
REMARK    2  A    between atoms: C_7  and  O_9 
ROOT
HETATM    1  N   UNL     1      62.048  10.481   3.954  1.00  0.00    -0.353 N 
ATOM      2  HN  UNL     1      61.400  11.254   3.802  1.00  0.00     0.166 HD
HETATM    3  CA  UNL     1      62.955  10.337   4.987  1.00  0.00     0.049 A 
HETATM    4  N   UNL     1      63.156   8.579   3.717  1.00  0.00    -0.355 N 
HETATM    5  C   UNL     1      62.199   9.407   3.205  1.00  0.00     0.182 A 
HETATM    6  C   UNL     1      63.652   9.156   4.848  1.00  0.00     0.118 A 
HETATM    7  C   UNL     1      63.569   7.312   3.168  1.00  0.00     0.156 C 
ENDROOT
BRANCH   3   8
HETATM    8  C   UNL     1      63.072  11.370   6.056  1.00  0.00     0.222 C 
BRANCH   8   9
HETATM    9  O   UNL     1      64.420  11.540   6.490  1.00  0.00    -0.395 OA
HETATM   10  H   UNL     1      64.425  11.878   7.399  1.00  0.00     0.209 HD
ENDBRANCH   8   9
ENDBRANCH   3   8
TORSDOF 2
ENDMDL
MODEL 3
REMARK VINA RESULT:      -3.5      2.150      2.891
REMARK  2 active torsions:
REMARK  status: ('A' for Active; 'I' for Inactive)
REMARK    1  A    between atoms: CA_3  and  C_7 
REMARK    2  A    between atoms: C_7  and  O_9 
ROOT
HETATM    1  N   UNL     1      63.011  10.224   5.765  1.00  0.00    -0.353 N 
ATOM      2  HN  UNL     1      63.310  10.335   6.734  1.00  0.00     0.166 HD
HETATM    3  CA  UNL     1      62.973   9.056   5.027  1.00  0.00     0.049 A 
HETATM    4  N   UNL     1      62.259  10.651   3.727  1.00  0.00    -0.355 N 
HETATM    5  C   UNL     1      62.579  11.166   4.949  1.00  0.00     0.182 A 
HETATM    6  C   UNL     1      62.508   9.310   3.754  1.00  0.00     0.118 A 
HETATM    7  C   UNL     1      61.741  11.387   2.600  1.00  0.00     0.156 C 
ENDROOT
BRANCH   3   8
HETATM    8  C   UNL     1      63.389   7.755   5.626  1.00  0.00     0.222 C 
BRANCH   8   9
HETATM    9  O   UNL     1      62.962   7.629   6.980  1.00  0.00    -0.395 OA
HETATM   10  H   UNL     1      62.054   7.961   7.064  1.00  0.00     0.209 HD
ENDBRANCH   8   9
ENDBRANCH   3   8
TORSDOF 2
ENDMDL
MODEL 4
REMARK VINA RESULT:      -3.3      1.635      2.402
REMARK  2 active torsions:
REMARK  status: ('A' for Active; 'I' for Inactive)
REMARK    1  A    between atoms: CA_3  and  C_7 
REMARK    2  A    between atoms: C_7  and  O_9 
ROOT
HETATM    1  N   UNL     1      63.928   9.839   5.633  1.00  0.00    -0.353 N 
ATOM      2  HN  UNL     1      64.323  10.374   6.406  1.00  0.00     0.166 HD
HETATM    3  CA  UNL     1      64.452   8.703   5.046  1.00  0.00     0.049 A 
HETATM    4  N   UNL     1      62.589   9.151   4.010  1.00  0.00    -0.355 N 
HETATM    5  C   UNL     1      62.808  10.083   4.982  1.00  0.00     0.182 A 
HETATM    6  C   UNL     1      63.627   8.267   4.031  1.00  0.00     0.118 A 
HETATM    7  C   UNL     1      61.458   9.098   3.118  1.00  0.00     0.156 C 
ENDROOT
BRANCH   3   8
HETATM    8  C   UNL     1      65.733   8.110   5.527  1.00  0.00     0.222 C 
BRANCH   8   9
HETATM    9  O   UNL     1      66.320   8.882   6.573  1.00  0.00    -0.395 OA
HETATM   10  H   UNL     1      65.885   9.748   6.617  1.00  0.00     0.209 HD
ENDBRANCH   8   9
ENDBRANCH   3   8
TORSDOF 2
ENDMDL
MODEL 5
REMARK VINA RESULT:      -3.2      1.886      1.958
REMARK  2 active torsions:
REMARK  status: ('A' for Active; 'I' for Inactive)
REMARK    1  A    between atoms: CA_3  and  C_7 
REMARK    2  A    between atoms: C_7  and  O_9 
ROOT
HETATM    1  N   UNL     1      64.218   9.362   5.514  1.00  0.00    -0.353 N 
ATOM      2  HN  UNL     1      64.474   9.959   6.301  1.00  0.00     0.166 HD
HETATM    3  CA  UNL     1      63.214   9.579   4.589  1.00  0.00     0.049 A 
HETATM    4  N   UNL     1      64.176   7.700   4.053  1.00  0.00    -0.355 N 
HETATM    5  C   UNL     1      64.774   8.219   5.164  1.00  0.00     0.182 A 
HETATM    6  C   UNL     1      63.178   8.548   3.675  1.00  0.00     0.118 A 
HETATM    7  C   UNL     1      64.536   6.474   3.385  1.00  0.00     0.156 C 
ENDROOT
BRANCH   3   8
HETATM    8  C   UNL     1      62.357  10.797   4.658  1.00  0.00     0.222 C 
BRANCH   8   9
HETATM    9  O   UNL     1      61.311  10.770   3.688  1.00  0.00    -0.395 OA
HETATM   10  H   UNL     1      61.593  10.243   2.925  1.00  0.00     0.209 HD
ENDBRANCH   8   9
ENDBRANCH   3   8
TORSDOF 2
ENDMDL
MODEL 6
REMARK VINA RESULT:      -3.2      2.420      3.047
REMARK  2 active torsions:
REMARK  status: ('A' for Active; 'I' for Inactive)
REMARK    1  A    between atoms: CA_3  and  C_7 
REMARK    2  A    between atoms: C_7  and  O_9 
ROOT
HETATM    1  N   UNL     1      60.949   9.318   3.234  1.00  0.00    -0.353 N 
ATOM      2  HN  UNL     1      60.147   9.505   2.631  1.00  0.00     0.166 HD
HETATM    3  CA  UNL     1      61.915  10.216   3.648  1.00  0.00     0.049 A 
HETATM    4  N   UNL     1      62.417   8.289   4.533  1.00  0.00    -0.355 N 
HETATM    5  C   UNL     1      61.285   8.166   3.781  1.00  0.00     0.182 A 
HETATM    6  C   UNL     1      62.836   9.585   4.457  1.00  0.00     0.118 A 
HETATM    7  C   UNL     1      63.059   7.241   5.286  1.00  0.00     0.156 C 
ENDROOT
BRANCH   3   8
HETATM    8  C   UNL     1      61.865  11.645   3.228  1.00  0.00     0.222 C 
BRANCH   8   9
HETATM    9  O   UNL     1      62.122  11.802   1.834  1.00  0.00    -0.395 OA
HETATM   10  H   UNL     1      61.571  11.181   1.333  1.00  0.00     0.209 HD
ENDBRANCH   8   9
ENDBRANCH   3   8
TORSDOF 2
ENDMDL
MODEL 7
REMARK VINA RESULT:      -3.2      3.424      4.588
REMARK  2 active torsions:
REMARK  status: ('A' for Active; 'I' for Inactive)
REMARK    1  A    between atoms: CA_3  and  C_7 
REMARK    2  A    between atoms: C_7  and  O_9 
ROOT
HETATM    1  N   UNL     1      65.405   8.250   6.206  1.00  0.00    -0.353 N 
ATOM      2  HN  UNL     1      65.059   9.162   5.908  1.00  0.00     0.166 HD
HETATM    3  CA  UNL     1      64.663   7.106   6.436  1.00  0.00     0.049 A 
HETATM    4  N   UNL     1      66.745   6.601   6.827  1.00  0.00    -0.355 N 
HETATM    5  C   UNL     1      66.654   7.911   6.456  1.00  0.00     0.182 A 
HETATM    6  C   UNL     1      65.488   6.073   6.826  1.00  0.00     0.118 A 
HETATM    7  C   UNL     1      67.955   5.890   7.158  1.00  0.00     0.156 C 
ENDROOT
BRANCH   3   8
HETATM    8  C   UNL     1      63.184   7.100   6.248  1.00  0.00     0.222 C 
BRANCH   8   9
HETATM    9  O   UNL     1      62.527   7.997   7.141  1.00  0.00    -0.395 OA
HETATM   10  H   UNL     1      61.850   8.495   6.656  1.00  0.00     0.209 HD
ENDBRANCH   8   9
ENDBRANCH   3   8
TORSDOF 2
ENDMDL
MODEL 8
REMARK VINA RESULT:      -3.1      4.752      5.919
REMARK  2 active torsions:
REMARK  status: ('A' for Active; 'I' for Inactive)
REMARK    1  A    between atoms: CA_3  and  C_7 
REMARK    2  A    between atoms: C_7  and  O_9 
ROOT
HETATM    1  N   UNL     1      65.826   6.919   7.957  1.00  0.00    -0.353 N 
ATOM      2  HN  UNL     1      65.005   7.514   8.067  1.00  0.00     0.166 HD
HETATM    3  CA  UNL     1      66.773   6.973   6.951  1.00  0.00     0.049 A 
HETATM    4  N   UNL     1      67.363   5.361   8.291  1.00  0.00    -0.355 N 
HETATM    5  C   UNL     1      66.210   5.933   8.744  1.00  0.00     0.182 A 
HETATM    6  C   UNL     1      67.734   6.005   7.148  1.00  0.00     0.118 A 
HETATM    7  C   UNL     1      68.074   4.271   8.911  1.00  0.00     0.156 C 
ENDROOT
BRANCH   3   8
HETATM    8  C   UNL     1      66.677   7.984   5.859  1.00  0.00     0.222 C 
BRANCH   8   9
HETATM    9  O   UNL     1      65.773   9.038   6.184  1.00  0.00    -0.395 OA
HETATM   10  H   UNL     1      66.150   9.577   6.897  1.00  0.00     0.209 HD
ENDBRANCH   8   9
ENDBRANCH   3   8
TORSDOF 2
ENDMDL
MODEL 9
REMARK VINA RESULT:      -3.1      1.637      1.774
REMARK  2 active torsions:
REMARK  status: ('A' for Active; 'I' for Inactive)
REMARK    1  A    between atoms: CA_3  and  C_7 
REMARK    2  A    between atoms: C_7  and  O_9 
ROOT
HETATM    1  N   UNL     1      64.768   8.871   5.617  1.00  0.00    -0.353 N 
ATOM      2  HN  UNL     1      65.622   9.422   5.705  1.00  0.00     0.166 HD
HETATM    3  CA  UNL     1      63.476   9.343   5.487  1.00  0.00     0.049 A 
HETATM    4  N   UNL     1      63.363   7.168   5.466  1.00  0.00    -0.355 N 
HETATM    5  C   UNL     1      64.663   7.557   5.605  1.00  0.00     0.182 A 
HETATM    6  C   UNL     1      62.591   8.290   5.394  1.00  0.00     0.118 A 
HETATM    7  C   UNL     1      62.881   5.810   5.397  1.00  0.00     0.156 C 
ENDROOT
BRANCH   3   8
HETATM    8  C   UNL     1      63.192  10.806   5.453  1.00  0.00     0.222 C 
BRANCH   8   9
HETATM    9  O   UNL     1      64.103  11.547   6.262  1.00  0.00    -0.395 OA
HETATM   10  H   UNL     1      64.643  12.120   5.696  1.00  0.00     0.209 HD
ENDBRANCH   8   9
ENDBRANCH   3   8
TORSDOF 2
ENDMDL
