MODEL 1
REMARK VINA RESULT:      -4.9      0.000      0.000
REMARK  2 active torsions:
REMARK  status: ('A' for Active; 'I' for Inactive)
REMARK    1  A    between atoms: C_4  and  C_7 
REMARK    2  A    between atoms: C_7  and  N_9 
ROOT
HETATM    1  N   UNL     1      62.942   9.226   5.617  1.00  0.00    -0.343 N 
ATOM      2  HN  UNL     1      62.959   9.698   6.521  1.00  0.00     0.167 HD
HETATM    3  N   UNL     1      63.122   7.686   4.029  1.00  0.00    -0.338 N 
HETATM    4  C   UNL     1      63.276   7.972   5.368  1.00  0.00     0.110 A 
HETATM    5  C   UNL     1      62.661   8.820   3.396  1.00  0.00     0.062 A 
HETATM    6  C   UNL     1      62.568   9.765   4.410  1.00  0.00     0.060 A 
HETATM    7  C   UNL     1      63.385   6.436   3.361  1.00  0.00     0.158 C 
HETATM    8  C   UNL     1      62.327   9.102   2.066  1.00  0.00     0.032 A 
HETATM    9  C   UNL     1      62.137  11.064   4.107  1.00  0.00     0.032 A 
HETATM   10  C   UNL     1      61.894  10.403   1.782  1.00  0.00     0.002 A 
HETATM   11  C   UNL     1      61.803  11.371   2.782  1.00  0.00     0.002 A 
ENDROOT
BRANCH   4  12
HETATM   12  C   UNL     1      63.770   6.999   6.390  1.00  0.00     0.305 C 
BRANCH  12  13
HETATM   13  N   UNL     1      65.137   7.307   6.813  1.00  0.00    -0.073 N 
HETATM   14  H   UNL     1      65.283   6.964   7.763  1.00  0.00     0.274 HD
HETATM   15  H   UNL     1      65.281   8.316   6.790  1.00  0.00     0.274 HD
HETATM   16  H   UNL     1      65.798   6.854   6.183  1.00  0.00     0.274 HD
ENDBRANCH  12  13
ENDBRANCH   4  12
TORSDOF 2
ENDMDL
MODEL 2
REMARK VINA RESULT:      -4.7      1.894      3.568
REMARK  2 active torsions:
REMARK  status: ('A' for Active; 'I' for Inactive)
REMARK    1  A    between atoms: C_4  and  C_7 
REMARK    2  A    between atoms: C_7  and  N_9 
ROOT
HETATM    1  N   UNL     1      62.891   9.016   4.255  1.00  0.00    -0.343 N 
ATOM      2  HN  UNL     1      63.213   8.580   5.119  1.00  0.00     0.167 HD
HETATM    3  N   UNL     1      62.150  10.501   2.782  1.00  0.00    -0.338 N 
HETATM    4  C   UNL     1      62.520  10.273   4.090  1.00  0.00     0.110 A 
HETATM    5  C   UNL     1      62.299   9.325   2.080  1.00  0.00     0.062 A 
HETATM    6  C   UNL     1      62.753   8.416   3.028  1.00  0.00     0.060 A 
HETATM    7  C   UNL     1      61.682  11.736   2.203  1.00  0.00     0.158 C 
HETATM    8  C   UNL     1      62.085   8.978   0.741  1.00  0.00     0.032 A 
HETATM    9  C   UNL     1      62.998   7.088   2.650  1.00  0.00     0.032 A 
HETATM   10  C   UNL     1      62.339   7.649   0.380  1.00  0.00     0.002 A 
HETATM   11  C   UNL     1      62.784   6.717   1.317  1.00  0.00     0.002 A 
ENDROOT
BRANCH   4  12
HETATM   12  C   UNL     1      62.486  11.305   5.171  1.00  0.00     0.305 C 
BRANCH  12  13
HETATM   13  N   UNL     1      63.650  11.205   6.052  1.00  0.00    -0.073 N 
HETATM   14  H   UNL     1      64.419  11.749   5.663  1.00  0.00     0.274 HD
HETATM   15  H   UNL     1      63.932  10.228   6.132  1.00  0.00     0.274 HD
HETATM   16  H   UNL     1      63.410  11.566   6.975  1.00  0.00     0.274 HD
ENDBRANCH  12  13
ENDBRANCH   4  12
TORSDOF 2
ENDMDL
MODEL 3
REMARK VINA RESULT:      -4.7      1.469      1.528
REMARK  2 active torsions:
REMARK  status: ('A' for Active; 'I' for Inactive)
REMARK    1  A    between atoms: C_4  and  C_7 
REMARK    2  A    between atoms: C_7  and  N_9 
ROOT
HETATM    1  N   UNL     1      64.403   9.182   5.785  1.00  0.00    -0.343 N 
ATOM      2  HN  UNL     1      64.538   9.757   6.616  1.00  0.00     0.167 HD
HETATM    3  N   UNL     1      64.597   7.574   4.268  1.00  0.00    -0.338 N 
HETATM    4  C   UNL     1      65.056   8.080   5.465  1.00  0.00     0.110 A 
HETATM    5  C   UNL     1      63.595   8.399   3.807  1.00  0.00     0.062 A 
HETATM    6  C   UNL     1      63.504   9.397   4.769  1.00  0.00     0.060 A 
HETATM    7  C   UNL     1      65.055   6.392   3.579  1.00  0.00     0.158 C 
HETATM    8  C   UNL     1      62.781   8.369   2.668  1.00  0.00     0.032 A 
HETATM    9  C   UNL     1      62.574  10.434   4.603  1.00  0.00     0.032 A 
HETATM   10  C   UNL     1      61.855   9.409   2.521  1.00  0.00     0.002 A 
HETATM   11  C   UNL     1      61.753  10.428   3.468  1.00  0.00     0.002 A 
ENDROOT
BRANCH   4  12
HETATM   12  C   UNL     1      66.155   7.471   6.276  1.00  0.00     0.305 C 
BRANCH  12  13
HETATM   13  N   UNL     1      66.878   8.479   7.052  1.00  0.00    -0.073 N 
HETATM   14  H   UNL     1      67.307   8.038   7.865  1.00  0.00     0.274 HD
HETATM   15  H   UNL     1      66.228   9.201   7.360  1.00  0.00     0.274 HD
HETATM   16  H   UNL     1      67.604   8.899   6.471  1.00  0.00     0.274 HD
ENDBRANCH  12  13
ENDBRANCH   4  12
TORSDOF 2
ENDMDL
MODEL 4
REMARK VINA RESULT:      -4.4      2.418      4.524
REMARK  2 active torsions:
REMARK  status: ('A' for Active; 'I' for Inactive)
REMARK    1  A    between atoms: C_4  and  C_7 
REMARK    2  A    between atoms: C_7  and  N_9 
ROOT
HETATM    1  N   UNL     1      65.092   9.001   5.856  1.00  0.00    -0.343 N 
ATOM      2  HN  UNL     1      65.334   9.611   6.637  1.00  0.00     0.167 HD
HETATM    3  N   UNL     1      64.040   8.096   4.124  1.00  0.00    -0.338 N 
HETATM    4  C   UNL     1      64.029   9.092   5.077  1.00  0.00     0.110 A 
HETATM    5  C   UNL     1      65.174   7.335   4.308  1.00  0.00     0.062 A 
HETATM    6  C   UNL     1      65.804   7.919   5.401  1.00  0.00     0.060 A 
HETATM    7  C   UNL     1      63.059   7.851   3.096  1.00  0.00     0.158 C 
HETATM    8  C   UNL     1      65.695   6.221   3.640  1.00  0.00     0.032 A 
HETATM    9  C   UNL     1      67.005   7.374   5.878  1.00  0.00     0.032 A 
HETATM   10  C   UNL     1      66.897   5.693   4.127  1.00  0.00     0.002 A 
HETATM   11  C   UNL     1      67.542   6.255   5.230  1.00  0.00     0.002 A 
ENDROOT
BRANCH   4  12
HETATM   12  C   UNL     1      62.951  10.119   5.215  1.00  0.00     0.305 C 
BRANCH  12  13
HETATM   13  N   UNL     1      63.392  11.263   6.014  1.00  0.00    -0.073 N 
HETATM   14  H   UNL     1      64.330  11.084   6.374  1.00  0.00     0.274 HD
HETATM   15  H   UNL     1      62.750  11.401   6.794  1.00  0.00     0.274 HD
HETATM   16  H   UNL     1      63.406  12.099   5.431  1.00  0.00     0.274 HD
ENDBRANCH  12  13
ENDBRANCH   4  12
TORSDOF 2
ENDMDL
MODEL 5
REMARK VINA RESULT:      -4.2      2.281      4.011
REMARK  2 active torsions:
REMARK  status: ('A' for Active; 'I' for Inactive)
REMARK    1  A    between atoms: C_4  and  C_7 
REMARK    2  A    between atoms: C_7  and  N_9 
ROOT
HETATM    1  N   UNL     1      61.106   9.924   2.403  1.00  0.00    -0.343 N 
ATOM      2  HN  UNL     1      60.440  10.659   2.162  1.00  0.00     0.167 HD
HETATM    3  N   UNL     1      62.270   8.035   2.392  1.00  0.00    -0.338 N 
HETATM    4  C   UNL     1      61.274   8.770   1.784  1.00  0.00     0.110 A 
HETATM    5  C   UNL     1      62.761   8.766   3.451  1.00  0.00     0.062 A 
HETATM    6  C   UNL     1      62.009   9.935   3.438  1.00  0.00     0.060 A 
HETATM    7  C   UNL     1      62.747   6.726   2.021  1.00  0.00     0.158 C 
HETATM    8  C   UNL     1      63.765   8.523   4.396  1.00  0.00     0.032 A 
HETATM    9  C   UNL     1      62.241  10.916   4.412  1.00  0.00     0.032 A 
HETATM   10  C   UNL     1      63.986   9.516   5.358  1.00  0.00     0.002 A 
HETATM   11  C   UNL     1      63.236  10.692   5.372  1.00  0.00     0.002 A 
ENDROOT
BRANCH   4  12
HETATM   12  C   UNL     1      60.486   8.310   0.600  1.00  0.00     0.305 C 
BRANCH  12  13
HETATM   13  N   UNL     1      59.052   8.273   0.886  1.00  0.00    -0.073 N 
HETATM   14  H   UNL     1      58.529   8.393   0.019  1.00  0.00     0.274 HD
HETATM   15  H   UNL     1      58.814   9.025   1.532  1.00  0.00     0.274 HD
HETATM   16  H   UNL     1      58.812   7.375   1.306  1.00  0.00     0.274 HD
ENDBRANCH  12  13
ENDBRANCH   4  12
TORSDOF 2
ENDMDL
MODEL 6
REMARK VINA RESULT:      -4.2      1.281      2.671
REMARK  2 active torsions:
REMARK  status: ('A' for Active; 'I' for Inactive)
REMARK    1  A    between atoms: C_4  and  C_7 
REMARK    2  A    between atoms: C_7  and  N_9 
ROOT
HETATM    1  N   UNL     1      62.767   7.571   2.173  1.00  0.00    -0.343 N 
ATOM      2  HN  UNL     1      62.810   7.098   1.270  1.00  0.00     0.167 HD
HETATM    3  N   UNL     1      62.855   7.988   4.351  1.00  0.00    -0.338 N 
HETATM    4  C   UNL     1      63.008   7.043   3.359  1.00  0.00     0.110 A 
HETATM    5  C   UNL     1      62.501   9.181   3.759  1.00  0.00     0.062 A 
HETATM    6  C   UNL     1      62.445   8.886   2.402  1.00  0.00     0.060 A 
HETATM    7  C   UNL     1      63.023   7.807   5.772  1.00  0.00     0.158 C 
HETATM    8  C   UNL     1      62.230  10.456   4.269  1.00  0.00     0.032 A 
HETATM    9  C   UNL     1      62.091   9.892   1.491  1.00  0.00     0.032 A 
HETATM   10  C   UNL     1      61.883  11.449   3.344  1.00  0.00     0.002 A 
HETATM   11  C   UNL     1      61.810  11.174   1.978  1.00  0.00     0.002 A 
ENDROOT
BRANCH   4  12
HETATM   12  C   UNL     1      63.378   5.615   3.601  1.00  0.00     0.305 C 
BRANCH  12  13
HETATM   13  N   UNL     1      62.199   4.783   3.841  1.00  0.00    -0.073 N 
HETATM   14  H   UNL     1      62.484   3.907   4.277  1.00  0.00     0.274 HD
HETATM   15  H   UNL     1      61.736   4.586   2.954  1.00  0.00     0.274 HD
HETATM   16  H   UNL     1      61.554   5.276   4.458  1.00  0.00     0.274 HD
ENDBRANCH  12  13
ENDBRANCH   4  12
TORSDOF 2
ENDMDL
MODEL 7
REMARK VINA RESULT:      -4.2      1.342      2.643
REMARK  2 active torsions:
REMARK  status: ('A' for Active; 'I' for Inactive)
REMARK    1  A    between atoms: C_4  and  C_7 
REMARK    2  A    between atoms: C_7  and  N_9 
ROOT
HETATM    1  N   UNL     1      64.142   7.157   3.567  1.00  0.00    -0.343 N 
ATOM      2  HN  UNL     1      64.651   6.280   3.461  1.00  0.00     0.167 HD
HETATM    3  N   UNL     1      63.393   9.087   4.366  1.00  0.00    -0.338 N 
HETATM    4  C   UNL     1      64.228   8.010   4.572  1.00  0.00     0.110 A 
HETATM    5  C   UNL     1      62.746   8.908   3.163  1.00  0.00     0.062 A 
HETATM    6  C   UNL     1      63.227   7.692   2.693  1.00  0.00     0.060 A 
HETATM    7  C   UNL     1      63.196  10.225   5.230  1.00  0.00     0.158 C 
HETATM    8  C   UNL     1      61.809   9.674   2.459  1.00  0.00     0.032 A 
HETATM    9  C   UNL     1      62.755   7.187   1.473  1.00  0.00     0.032 A 
HETATM   10  C   UNL     1      61.353   9.157   1.240  1.00  0.00     0.002 A 
HETATM   11  C   UNL     1      61.813   7.933   0.754  1.00  0.00     0.002 A 
ENDROOT
BRANCH   4  12
HETATM   12  C   UNL     1      65.095   7.829   5.777  1.00  0.00     0.305 C 
BRANCH  12  13
HETATM   13  N   UNL     1      64.384   7.143   6.856  1.00  0.00    -0.073 N 
HETATM   14  H   UNL     1      63.843   7.821   7.392  1.00  0.00     0.274 HD
HETATM   15  H   UNL     1      65.058   6.685   7.469  1.00  0.00     0.274 HD
HETATM   16  H   UNL     1      63.756   6.444   6.460  1.00  0.00     0.274 HD
ENDBRANCH  12  13
ENDBRANCH   4  12
TORSDOF 2
ENDMDL
MODEL 8
REMARK VINA RESULT:      -4.0      1.977      2.959
REMARK  2 active torsions:
REMARK  status: ('A' for Active; 'I' for Inactive)
REMARK    1  A    between atoms: C_4  and  C_7 
REMARK    2  A    between atoms: C_7  and  N_9 
ROOT
HETATM    1  N   UNL     1      64.104   7.023   3.222  1.00  0.00    -0.343 N 
ATOM      2  HN  UNL     1      63.894   6.399   2.443  1.00  0.00     0.167 HD
HETATM    3  N   UNL     1      65.045   7.926   5.017  1.00  0.00    -0.338 N 
HETATM    4  C   UNL     1      65.066   6.883   4.116  1.00  0.00     0.110 A 
HETATM    5  C   UNL     1      64.016   8.774   4.673  1.00  0.00     0.062 A 
HETATM    6  C   UNL     1      63.442   8.179   3.556  1.00  0.00     0.060 A 
HETATM    7  C   UNL     1      65.925   8.134   6.141  1.00  0.00     0.158 C 
HETATM    8  C   UNL     1      63.544   9.973   5.218  1.00  0.00     0.032 A 
HETATM    9  C   UNL     1      62.334   8.783   2.944  1.00  0.00     0.032 A 
HETATM   10  C   UNL     1      62.439  10.565   4.592  1.00  0.00     0.002 A 
HETATM   11  C   UNL     1      61.840   9.980   3.476  1.00  0.00     0.002 A 
ENDROOT
BRANCH   4  12
HETATM   12  C   UNL     1      66.035   5.745   4.160  1.00  0.00     0.305 C 
BRANCH  12  13
HETATM   13  N   UNL     1      67.321   6.105   3.563  1.00  0.00    -0.073 N 
HETATM   14  H   UNL     1      68.078   5.731   4.135  1.00  0.00     0.274 HD
HETATM   15  H   UNL     1      67.401   7.121   3.515  1.00  0.00     0.274 HD
HETATM   16  H   UNL     1      67.381   5.715   2.623  1.00  0.00     0.274 HD
ENDBRANCH  12  13
ENDBRANCH   4  12
TORSDOF 2
ENDMDL
MODEL 9
REMARK VINA RESULT:      -4.0      1.766      3.255
REMARK  2 active torsions:
REMARK  status: ('A' for Active; 'I' for Inactive)
REMARK    1  A    between atoms: C_4  and  C_7 
REMARK    2  A    between atoms: C_7  and  N_9 
ROOT
HETATM    1  N   UNL     1      61.993   9.968   3.118  1.00  0.00    -0.343 N 
ATOM      2  HN  UNL     1      61.407  10.797   3.022  1.00  0.00     0.167 HD
HETATM    3  N   UNL     1      63.404   8.454   3.919  1.00  0.00    -0.338 N 
HETATM    4  C   UNL     1      62.765   9.655   4.143  1.00  0.00     0.110 A 
HETATM    5  C   UNL     1      63.011   7.979   2.687  1.00  0.00     0.062 A 
HETATM    6  C   UNL     1      62.139   8.949   2.209  1.00  0.00     0.060 A 
HETATM    7  C   UNL     1      64.331   7.775   4.791  1.00  0.00     0.158 C 
HETATM    8  C   UNL     1      63.329   6.823   1.964  1.00  0.00     0.032 A 
HETATM    9  C   UNL     1      61.554   8.788   0.945  1.00  0.00     0.032 A 
HETATM   10  C   UNL     1      62.732   6.677   0.706  1.00  0.00     0.002 A 
HETATM   11  C   UNL     1      61.861   7.643   0.200  1.00  0.00     0.002 A 
ENDROOT
BRANCH   4  12
HETATM   12  C   UNL     1      62.941  10.491   5.370  1.00  0.00     0.305 C 
BRANCH  12  13
HETATM   13  N   UNL     1      62.533  11.878   5.142  1.00  0.00    -0.073 N 
HETATM   14  H   UNL     1      63.180  12.320   4.491  1.00  0.00     0.274 HD
HETATM   15  H   UNL     1      62.543  12.385   6.027  1.00  0.00     0.274 HD
HETATM   16  H   UNL     1      61.591  11.896   4.751  1.00  0.00     0.274 HD
ENDBRANCH  12  13
ENDBRANCH   4  12
TORSDOF 2
ENDMDL
