MODEL 1
REMARK VINA RESULT:      -3.9      0.000      0.000
REMARK  2 active torsions:
REMARK  status: ('A' for Active; 'I' for Inactive)
REMARK    1  A    between atoms: CA_5  and  C_8 
REMARK    2  A    between atoms: O_7  and  C_8 
ROOT
HETATM    1  N   UNL     1      63.452   9.347   4.787  1.00  0.00    -0.365 N 
ATOM      2  HN  UNL     1      64.099   9.000   5.495  1.00  0.00     0.165 HD
HETATM    3  N   UNL     1      61.676  10.310   2.798  1.00  0.00    -0.372 N 
ATOM      4  HN  UNL     1      61.041  10.658   2.080  1.00  0.00     0.164 HD
HETATM    5  CA  UNL     1      62.821  10.547   4.906  1.00  0.00     0.048 A 
HETATM    6  C   UNL     1      61.956  11.013   3.919  1.00  0.00     0.114 A 
HETATM    7  C   UNL     1      63.164   8.643   3.666  1.00  0.00     0.105 A 
HETATM    8  C   UNL     1      62.297   9.113   2.696  1.00  0.00     0.104 A 
ENDROOT
BRANCH   5   9
HETATM    9  C   UNL     1      63.089  11.352   6.148  1.00  0.00     0.222 C 
BRANCH   9  10
HETATM   10  O   UNL     1      64.489  11.415   6.411  1.00  0.00    -0.395 OA
HETATM   11  H   UNL     1      64.782  10.580   6.807  1.00  0.00     0.209 HD
ENDBRANCH   9  10
ENDBRANCH   5   9
TORSDOF 2
ENDMDL
MODEL 2
REMARK VINA RESULT:      -3.9      1.153      1.328
REMARK  2 active torsions:
REMARK  status: ('A' for Active; 'I' for Inactive)
REMARK    1  A    between atoms: CA_5  and  C_8 
REMARK    2  A    between atoms: O_7  and  C_8 
ROOT
HETATM    1  N   UNL     1      64.282   9.184   5.424  1.00  0.00    -0.365 N 
ATOM      2  HN  UNL     1      64.922   9.377   6.194  1.00  0.00     0.165 HD
HETATM    3  N   UNL     1      62.526   8.649   3.263  1.00  0.00    -0.372 N 
ATOM      4  HN  UNL     1      61.897   8.458   2.483  1.00  0.00     0.164 HD
HETATM    5  CA  UNL     1      63.269  10.032   5.093  1.00  0.00     0.048 A 
HETATM    6  C   UNL     1      62.417   9.762   4.026  1.00  0.00     0.114 A 
HETATM    7  C   UNL     1      64.384   8.069   4.663  1.00  0.00     0.105 A 
HETATM    8  C   UNL     1      63.526   7.808   3.609  1.00  0.00     0.104 A 
ENDROOT
BRANCH   5   9
HETATM    9  C   UNL     1      63.100  11.271   5.928  1.00  0.00     0.222 C 
BRANCH   9  10
HETATM   10  O   UNL     1      64.342  11.650   6.518  1.00  0.00    -0.395 OA
HETATM   11  H   UNL     1      64.598  12.529   6.196  1.00  0.00     0.209 HD
ENDBRANCH   9  10
ENDBRANCH   5   9
TORSDOF 2
ENDMDL
MODEL 3
REMARK VINA RESULT:      -3.6      1.698      2.495
REMARK  2 active torsions:
REMARK  status: ('A' for Active; 'I' for Inactive)
REMARK    1  A    between atoms: CA_5  and  C_8 
REMARK    2  A    between atoms: O_7  and  C_8 
ROOT
HETATM    1  N   UNL     1      63.754  10.127   5.709  1.00  0.00    -0.365 N 
ATOM      2  HN  UNL     1      64.246  10.394   6.561  1.00  0.00     0.165 HD
HETATM    3  N   UNL     1      62.361   9.382   3.355  1.00  0.00    -0.372 N 
ATOM      4  HN  UNL     1      61.856   9.113   2.511  1.00  0.00     0.164 HD
HETATM    5  CA  UNL     1      64.062   8.994   5.019  1.00  0.00     0.048 A 
HETATM    6  C   UNL     1      63.366   8.635   3.867  1.00  0.00     0.114 A 
HETATM    7  C   UNL     1      62.752  10.875   5.189  1.00  0.00     0.105 A 
HETATM    8  C   UNL     1      62.073  10.511   4.040  1.00  0.00     0.104 A 
ENDROOT
BRANCH   5   9
HETATM    9  C   UNL     1      65.187   8.146   5.544  1.00  0.00     0.222 C 
BRANCH   9  10
HETATM   10  O   UNL     1      66.058   8.921   6.364  1.00  0.00    -0.395 OA
HETATM   11  H   UNL     1      66.364   9.697   5.869  1.00  0.00     0.209 HD
ENDBRANCH   9  10
ENDBRANCH   5   9
TORSDOF 2
ENDMDL
MODEL 4
REMARK VINA RESULT:      -3.4      4.358      5.453
REMARK  2 active torsions:
REMARK  status: ('A' for Active; 'I' for Inactive)
REMARK    1  A    between atoms: CA_5  and  C_8 
REMARK    2  A    between atoms: O_7  and  C_8 
ROOT
HETATM    1  N   UNL     1      65.108   7.160   7.092  1.00  0.00    -0.365 N 
ATOM      2  HN  UNL     1      64.106   7.233   7.268  1.00  0.00     0.165 HD
HETATM    3  N   UNL     1      67.898   6.967   6.629  1.00  0.00    -0.372 N 
ATOM      4  HN  UNL     1      68.903   6.901   6.466  1.00  0.00     0.164 HD
HETATM    5  CA  UNL     1      65.708   7.788   6.044  1.00  0.00     0.048 A 
HETATM    6  C   UNL     1      67.081   7.691   5.830  1.00  0.00     0.114 A 
HETATM    7  C   UNL     1      65.928   6.431   7.885  1.00  0.00     0.105 A 
HETATM    8  C   UNL     1      67.290   6.337   7.658  1.00  0.00     0.104 A 
ENDROOT
BRANCH   5   9
HETATM    9  C   UNL     1      64.832   8.587   5.119  1.00  0.00     0.222 C 
BRANCH   9  10
HETATM   10  O   UNL     1      64.502   9.844   5.705  1.00  0.00    -0.395 OA
HETATM   11  H   UNL     1      64.765  10.560   5.105  1.00  0.00     0.209 HD
ENDBRANCH   9  10
ENDBRANCH   5   9
TORSDOF 2
ENDMDL
MODEL 5
REMARK VINA RESULT:      -3.4     13.182     13.527
REMARK  2 active torsions:
REMARK  status: ('A' for Active; 'I' for Inactive)
REMARK    1  A    between atoms: CA_5  and  C_8 
REMARK    2  A    between atoms: O_7  and  C_8 
ROOT
HETATM    1  N   UNL     1      57.448   1.730  14.510  1.00  0.00    -0.365 N 
ATOM      2  HN  UNL     1      57.036   1.531  15.421  1.00  0.00     0.165 HD
HETATM    3  N   UNL     1      58.613   2.301  11.989  1.00  0.00    -0.372 N 
ATOM      4  HN  UNL     1      59.034   2.510  11.084  1.00  0.00     0.164 HD
HETATM    5  CA  UNL     1      56.725   2.267  13.489  1.00  0.00     0.048 A 
HETATM    6  C   UNL     1      57.310   2.550  12.257  1.00  0.00     0.114 A 
HETATM    7  C   UNL     1      58.750   1.476  14.236  1.00  0.00     0.105 A 
HETATM    8  C   UNL     1      59.317   1.754  13.005  1.00  0.00     0.104 A 
ENDROOT
BRANCH   5   9
HETATM    9  C   UNL     1      55.268   2.541  13.738  1.00  0.00     0.222 C 
BRANCH   9  10
HETATM   10  O   UNL     1      55.099   3.297  14.935  1.00  0.00    -0.395 OA
HETATM   11  H   UNL     1      55.876   3.862  15.074  1.00  0.00     0.209 HD
ENDBRANCH   9  10
ENDBRANCH   5   9
TORSDOF 2
ENDMDL
MODEL 6
REMARK VINA RESULT:      -3.4      1.548      1.803
REMARK  2 active torsions:
REMARK  status: ('A' for Active; 'I' for Inactive)
REMARK    1  A    between atoms: CA_5  and  C_8 
REMARK    2  A    between atoms: O_7  and  C_8 
ROOT
HETATM    1  N   UNL     1      62.903   8.552   2.891  1.00  0.00    -0.365 N 
ATOM      2  HN  UNL     1      63.371   7.647   2.933  1.00  0.00     0.165 HD
HETATM    3  N   UNL     1      61.621  11.077   2.753  1.00  0.00    -0.372 N 
ATOM      4  HN  UNL     1      61.163  11.987   2.701  1.00  0.00     0.164 HD
HETATM    5  CA  UNL     1      62.783   9.358   3.981  1.00  0.00     0.048 A 
HETATM    6  C   UNL     1      62.157  10.600   3.900  1.00  0.00     0.114 A 
HETATM    7  C   UNL     1      62.359   9.030   1.746  1.00  0.00     0.105 A 
HETATM    8  C   UNL     1      61.733  10.262   1.680  1.00  0.00     0.104 A 
ENDROOT
BRANCH   5   9
HETATM    9  C   UNL     1      63.347   8.856   5.281  1.00  0.00     0.222 C 
BRANCH   9  10
HETATM   10  O   UNL     1      64.562   9.535   5.594  1.00  0.00    -0.395 OA
HETATM   11  H   UNL     1      64.789   9.378   6.525  1.00  0.00     0.209 HD
ENDBRANCH   9  10
ENDBRANCH   5   9
TORSDOF 2
ENDMDL
MODEL 7
REMARK VINA RESULT:      -3.2      5.304      6.356
REMARK  2 active torsions:
REMARK  status: ('A' for Active; 'I' for Inactive)
REMARK    1  A    between atoms: CA_5  and  C_8 
REMARK    2  A    between atoms: O_7  and  C_8 
ROOT
HETATM    1  N   UNL     1      67.017   7.426   7.737  1.00  0.00    -0.365 N 
ATOM      2  HN  UNL     1      67.454   8.339   7.615  1.00  0.00     0.165 HD
HETATM    3  N   UNL     1      65.828   4.874   8.073  1.00  0.00    -0.372 N 
ATOM      4  HN  UNL     1      65.405   3.954   8.192  1.00  0.00     0.164 HD
HETATM    5  CA  UNL     1      66.065   6.958   6.884  1.00  0.00     0.048 A 
HETATM    6  C   UNL     1      65.493   5.699   7.055  1.00  0.00     0.114 A 
HETATM    7  C   UNL     1      67.346   6.599   8.758  1.00  0.00     0.105 A 
HETATM    8  C   UNL     1      66.765   5.354   8.922  1.00  0.00     0.104 A 
ENDROOT
BRANCH   5   9
HETATM    9  C   UNL     1      65.648   7.853   5.750  1.00  0.00     0.222 C 
BRANCH   9  10
HETATM   10  O   UNL     1      65.640   9.217   6.166  1.00  0.00    -0.395 OA
HETATM   11  H   UNL     1      65.443   9.786   5.406  1.00  0.00     0.209 HD
ENDBRANCH   9  10
ENDBRANCH   5   9
TORSDOF 2
ENDMDL
MODEL 8
REMARK VINA RESULT:      -3.2     12.028     12.486
REMARK  2 active torsions:
REMARK  status: ('A' for Active; 'I' for Inactive)
REMARK    1  A    between atoms: CA_5  and  C_8 
REMARK    2  A    between atoms: O_7  and  C_8 
ROOT
HETATM    1  N   UNL     1      59.306   2.194  12.375  1.00  0.00    -0.365 N 
ATOM      2  HN  UNL     1      60.133   2.300  11.787  1.00  0.00     0.165 HD
HETATM    3  N   UNL     1      57.014   1.870  14.012  1.00  0.00    -0.372 N 
ATOM      4  HN  UNL     1      56.190   1.749  14.600  1.00  0.00     0.164 HD
HETATM    5  CA  UNL     1      58.061   2.534  11.944  1.00  0.00     0.048 A 
HETATM    6  C   UNL     1      56.941   2.364  12.755  1.00  0.00     0.114 A 
HETATM    7  C   UNL     1      59.376   1.706  13.637  1.00  0.00     0.105 A 
HETATM    8  C   UNL     1      58.257   1.549  14.435  1.00  0.00     0.104 A 
ENDROOT
BRANCH   5   9
HETATM    9  C   UNL     1      57.937   3.106  10.559  1.00  0.00     0.222 C 
BRANCH   9  10
HETATM   10  O   UNL     1      58.610   4.361  10.474  1.00  0.00    -0.395 OA
HETATM   11  H   UNL     1      58.765   4.706  11.368  1.00  0.00     0.209 HD
ENDBRANCH   9  10
ENDBRANCH   5   9
TORSDOF 2
ENDMDL
MODEL 9
REMARK VINA RESULT:      -3.1      2.223      3.209
REMARK  2 active torsions:
REMARK  status: ('A' for Active; 'I' for Inactive)
REMARK    1  A    between atoms: CA_5  and  C_8 
REMARK    2  A    between atoms: O_7  and  C_8 
ROOT
HETATM    1  N   UNL     1      63.482   7.809   3.359  1.00  0.00    -0.365 N 
ATOM      2  HN  UNL     1      63.124   7.340   2.528  1.00  0.00     0.165 HD
HETATM    3  N   UNL     1      64.474   9.087   5.688  1.00  0.00    -0.372 N 
ATOM      4  HN  UNL     1      64.828   9.543   6.528  1.00  0.00     0.164 HD
HETATM    5  CA  UNL     1      62.909   8.938   3.859  1.00  0.00     0.048 A 
HETATM    6  C   UNL     1      63.402   9.554   5.007  1.00  0.00     0.114 A 
HETATM    7  C   UNL     1      64.559   7.348   4.040  1.00  0.00     0.105 A 
HETATM    8  C   UNL     1      65.042   7.973   5.176  1.00  0.00     0.104 A 
ENDROOT
BRANCH   5   9
HETATM    9  C   UNL     1      61.727   9.502   3.120  1.00  0.00     0.222 C 
BRANCH   9  10
HETATM   10  O   UNL     1      61.260  10.690   3.757  1.00  0.00    -0.395 OA
HETATM   11  H   UNL     1      62.010  11.280   3.931  1.00  0.00     0.209 HD
ENDBRANCH   9  10
ENDBRANCH   5   9
TORSDOF 2
ENDMDL
