MODEL 1
REMARK VINA RESULT:      -4.3      0.000      0.000
REMARK  1 active torsions:
REMARK  status: ('A' for Active; 'I' for Inactive)
REMARK    1  A    between atoms: C_1  and  C_5 
ROOT
HETATM    1  N   UNL     1      61.611  10.678   2.033  1.00  0.00    -0.375 N 
ATOM      2  HN  UNL     1      61.160  11.098   1.220  1.00  0.00     0.164 HD
HETATM    3  C   UNL     1      62.844   9.532   4.251  1.00  0.00     0.043 A 
HETATM    4  C   UNL     1      62.054   9.403   2.011  1.00  0.00     0.088 A 
HETATM    5  C   UNL     1      61.790  11.374   3.176  1.00  0.00     0.088 A 
HETATM    6  C   UNL     1      62.395  10.850   4.303  1.00  0.00     0.035 A 
HETATM    7  C   UNL     1      62.672   8.787   3.085  1.00  0.00     0.035 A 
ENDROOT
BRANCH   3   8
HETATM    8  C   UNL     1      63.500   8.965   5.451  1.00  0.00     0.209 C 
HETATM    9  O   UNL     1      63.004   8.162   6.220  1.00  0.00    -0.644 OA
HETATM   10  O   UNL     1      64.744   9.438   5.635  1.00  0.00    -0.644 OA
ENDBRANCH   3   8
TORSDOF 1
ENDMDL
MODEL 2
REMARK VINA RESULT:      -4.3      2.645      3.461
REMARK  1 active torsions:
REMARK  status: ('A' for Active; 'I' for Inactive)
REMARK    1  A    between atoms: C_1  and  C_5 
ROOT
HETATM    1  N   UNL     1      62.683   7.226   1.610  1.00  0.00    -0.375 N 
ATOM      2  HN  UNL     1      62.867   6.285   1.263  1.00  0.00     0.164 HD
HETATM    3  C   UNL     1      62.184   9.797   2.558  1.00  0.00     0.043 A 
HETATM    4  C   UNL     1      62.980   7.578   2.879  1.00  0.00     0.088 A 
HETATM    5  C   UNL     1      62.133   8.173   0.820  1.00  0.00     0.088 A 
HETATM    6  C   UNL     1      61.865   9.461   1.243  1.00  0.00     0.035 A 
HETATM    7  C   UNL     1      62.752   8.840   3.399  1.00  0.00     0.035 A 
ENDROOT
BRANCH   3   8
HETATM    8  C   UNL     1      61.908  11.176   3.018  1.00  0.00     0.209 C 
HETATM    9  O   UNL     1      61.707  11.515   4.169  1.00  0.00    -0.644 OA
HETATM   10  O   UNL     1      61.889  12.066   2.010  1.00  0.00    -0.644 OA
ENDBRANCH   3   8
TORSDOF 1
ENDMDL
MODEL 3
REMARK VINA RESULT:      -4.2      1.881      2.431
REMARK  1 active torsions:
REMARK  status: ('A' for Active; 'I' for Inactive)
REMARK    1  A    between atoms: C_1  and  C_5 
ROOT
HETATM    1  N   UNL     1      62.371   8.199   1.444  1.00  0.00    -0.375 N 
ATOM      2  HN  UNL     1      62.364   7.537   0.668  1.00  0.00     0.164 HD
HETATM    3  C   UNL     1      62.395  10.006   3.563  1.00  0.00     0.043 A 
HETATM    4  C   UNL     1      62.868   7.859   2.653  1.00  0.00     0.088 A 
HETATM    5  C   UNL     1      61.886   9.451   1.306  1.00  0.00     0.088 A 
HETATM    6  C   UNL     1      61.874  10.383   2.326  1.00  0.00     0.035 A 
HETATM    7  C   UNL     1      62.903   8.718   3.737  1.00  0.00     0.035 A 
ENDROOT
BRANCH   3   8
HETATM    8  C   UNL     1      62.394  11.000   4.659  1.00  0.00     0.209 C 
HETATM    9  O   UNL     1      61.909  12.114   4.608  1.00  0.00    -0.644 OA
HETATM   10  O   UNL     1      63.011  10.552   5.767  1.00  0.00    -0.644 OA
ENDBRANCH   3   8
TORSDOF 1
ENDMDL
MODEL 4
REMARK VINA RESULT:      -4.1      1.939      2.611
REMARK  1 active torsions:
REMARK  status: ('A' for Active; 'I' for Inactive)
REMARK    1  A    between atoms: C_1  and  C_5 
ROOT
HETATM    1  N   UNL     1      62.427   7.908   1.676  1.00  0.00    -0.375 N 
ATOM      2  HN  UNL     1      62.410   7.186   0.956  1.00  0.00     0.164 HD
HETATM    3  C   UNL     1      62.467   9.881   3.641  1.00  0.00     0.043 A 
HETATM    4  C   UNL     1      61.954   9.150   1.436  1.00  0.00     0.088 A 
HETATM    5  C   UNL     1      62.920   7.664   2.908  1.00  0.00     0.088 A 
HETATM    6  C   UNL     1      62.964   8.608   3.917  1.00  0.00     0.035 A 
HETATM    7  C   UNL     1      61.952  10.165   2.376  1.00  0.00     0.035 A 
ENDROOT
BRANCH   3   8
HETATM    8  C   UNL     1      62.503  10.897   4.717  1.00  0.00     0.209 C 
HETATM    9  O   UNL     1      62.944  10.730   5.839  1.00  0.00    -0.644 OA
HETATM   10  O   UNL     1      61.974  12.074   4.338  1.00  0.00    -0.644 OA
ENDBRANCH   3   8
TORSDOF 1
ENDMDL
MODEL 5
REMARK VINA RESULT:      -4.0      2.291      3.141
REMARK  1 active torsions:
REMARK  status: ('A' for Active; 'I' for Inactive)
REMARK    1  A    between atoms: C_1  and  C_5 
ROOT
HETATM    1  N   UNL     1      64.116   7.117   3.406  1.00  0.00    -0.375 N 
ATOM      2  HN  UNL     1      64.457   6.237   3.020  1.00  0.00     0.164 HD
HETATM    3  C   UNL     1      63.189   9.523   4.458  1.00  0.00     0.043 A 
HETATM    4  C   UNL     1      64.658   7.654   4.521  1.00  0.00     0.088 A 
HETATM    5  C   UNL     1      63.105   7.796   2.824  1.00  0.00     0.088 A 
HETATM    6  C   UNL     1      62.608   8.992   3.307  1.00  0.00     0.035 A 
HETATM    7  C   UNL     1      64.234   8.844   5.083  1.00  0.00     0.035 A 
ENDROOT
BRANCH   3   8
HETATM    8  C   UNL     1      62.669  10.808   4.979  1.00  0.00     0.209 C 
HETATM    9  O   UNL     1      61.912  11.558   4.392  1.00  0.00    -0.644 OA
HETATM   10  O   UNL     1      63.131  11.095   6.208  1.00  0.00    -0.644 OA
ENDBRANCH   3   8
TORSDOF 1
ENDMDL
MODEL 6
REMARK VINA RESULT:      -4.0      2.745      3.424
REMARK  1 active torsions:
REMARK  status: ('A' for Active; 'I' for Inactive)
REMARK    1  A    between atoms: C_1  and  C_5 
ROOT
HETATM    1  N   UNL     1      62.541   7.277   4.769  1.00  0.00    -0.375 N 
ATOM      2  HN  UNL     1      62.682   6.316   5.083  1.00  0.00     0.164 HD
HETATM    3  C   UNL     1      62.153   9.898   3.913  1.00  0.00     0.043 A 
HETATM    4  C   UNL     1      61.544   7.599   3.917  1.00  0.00     0.088 A 
HETATM    5  C   UNL     1      63.342   8.279   5.188  1.00  0.00     0.088 A 
HETATM    6  C   UNL     1      63.192   9.595   4.792  1.00  0.00     0.035 A 
HETATM    7  C   UNL     1      61.310   8.884   3.462  1.00  0.00     0.035 A 
ENDROOT
BRANCH   3   8
HETATM    8  C   UNL     1      61.980  11.306   3.490  1.00  0.00     0.209 C 
HETATM    9  O   UNL     1      61.949  11.704   2.340  1.00  0.00    -0.644 OA
HETATM   10  O   UNL     1      61.863  12.150   4.529  1.00  0.00    -0.644 OA
ENDBRANCH   3   8
TORSDOF 1
ENDMDL
MODEL 7
REMARK VINA RESULT:      -3.9      1.938      2.620
REMARK  1 active torsions:
REMARK  status: ('A' for Active; 'I' for Inactive)
REMARK    1  A    between atoms: C_1  and  C_5 
ROOT
HETATM    1  N   UNL     1      61.525   7.894   1.612  1.00  0.00    -0.375 N 
ATOM      2  HN  UNL     1      61.326   7.173   0.919  1.00  0.00     0.164 HD
HETATM    3  C   UNL     1      62.065   9.862   3.507  1.00  0.00     0.043 A 
HETATM    4  C   UNL     1      61.674   9.188   1.259  1.00  0.00     0.088 A 
HETATM    5  C   UNL     1      61.650   7.594   2.922  1.00  0.00     0.088 A 
HETATM    6  C   UNL     1      61.919   8.533   3.900  1.00  0.00     0.035 A 
HETATM    7  C   UNL     1      61.943  10.203   2.160  1.00  0.00     0.035 A 
ENDROOT
BRANCH   3   8
HETATM    8  C   UNL     1      62.345  10.877   4.547  1.00  0.00     0.209 C 
HETATM    9  O   UNL     1      61.959  12.031   4.538  1.00  0.00    -0.644 OA
HETATM   10  O   UNL     1      63.105  10.398   5.548  1.00  0.00    -0.644 OA
ENDBRANCH   3   8
TORSDOF 1
ENDMDL
MODEL 8
REMARK VINA RESULT:      -3.8      2.850      3.819
REMARK  1 active torsions:
REMARK  status: ('A' for Active; 'I' for Inactive)
REMARK    1  A    between atoms: C_1  and  C_5 
ROOT
HETATM    1  N   UNL     1      63.526  10.172   5.637  1.00  0.00    -0.375 N 
ATOM      2  HN  UNL     1      63.955  10.431   6.526  1.00  0.00     0.164 HD
HETATM    3  C   UNL     1      62.358   9.466   3.210  1.00  0.00     0.043 A 
HETATM    4  C   UNL     1      62.621  10.971   5.033  1.00  0.00     0.088 A 
HETATM    5  C   UNL     1      63.840   9.015   5.016  1.00  0.00     0.088 A 
HETATM    6  C   UNL     1      63.288   8.619   3.812  1.00  0.00     0.035 A 
HETATM    7  C   UNL     1      62.012  10.667   3.829  1.00  0.00     0.035 A 
ENDROOT
BRANCH   3   8
HETATM    8  C   UNL     1      61.767   9.054   1.917  1.00  0.00     0.209 C 
HETATM    9  O   UNL     1      62.196   9.342   0.815  1.00  0.00    -0.644 OA
HETATM   10  O   UNL     1      60.659   8.307   2.067  1.00  0.00    -0.644 OA
ENDBRANCH   3   8
TORSDOF 1
ENDMDL
MODEL 9
REMARK VINA RESULT:      -3.5      3.971      5.177
REMARK  1 active torsions:
REMARK  status: ('A' for Active; 'I' for Inactive)
REMARK    1  A    between atoms: C_1  and  C_5 
ROOT
HETATM    1  N   UNL     1      67.699   6.056   4.716  1.00  0.00    -0.375 N 
ATOM      2  HN  UNL     1      68.455   5.379   4.621  1.00  0.00     0.164 HD
HETATM    3  C   UNL     1      65.634   7.907   4.976  1.00  0.00     0.043 A 
HETATM    4  C   UNL     1      67.764   7.062   5.615  1.00  0.00     0.088 A 
HETATM    5  C   UNL     1      66.590   5.985   3.950  1.00  0.00     0.088 A 
HETATM    6  C   UNL     1      65.538   6.878   4.041  1.00  0.00     0.035 A 
HETATM    7  C   UNL     1      66.767   8.006   5.784  1.00  0.00     0.035 A 
ENDROOT
BRANCH   3   8
HETATM    8  C   UNL     1      64.517   8.873   5.076  1.00  0.00     0.209 C 
HETATM    9  O   UNL     1      64.470   9.831   5.824  1.00  0.00    -0.644 OA
HETATM   10  O   UNL     1      63.506   8.586   4.237  1.00  0.00    -0.644 OA
ENDBRANCH   3   8
TORSDOF 1
ENDMDL
