MODEL 1
REMARK VINA RESULT:      -5.5      0.000      0.000
REMARK  1 active torsions:
REMARK  status: ('A' for Active; 'I' for Inactive)
REMARK    1  A    between atoms: CA_3  and  C_4 
ROOT
HETATM    1  N   UNL     1      63.951   8.826   5.779  1.00  0.00    -0.350 N 
ATOM      2  HN  UNL     1      64.138   9.256   6.685  1.00  0.00     0.166 HD
HETATM    3  CA  UNL     1      64.404   7.578   5.490  1.00  0.00     0.110 A 
HETATM    4  C   UNL     1      63.248   9.477   4.834  1.00  0.00     0.043 A 
HETATM    5  C   UNL     1      64.175   6.943   4.277  1.00  0.00     0.037 A 
HETATM    6  C   UNL     1      62.971   8.912   3.570  1.00  0.00    -0.009 A 
HETATM    7  C   UNL     1      63.448   7.622   3.306  1.00  0.00     0.016 A 
HETATM    8  C   UNL     1      62.767  10.754   5.093  1.00  0.00     0.030 A 
HETATM    9  C   UNL     1      62.238   9.635   2.610  1.00  0.00     0.013 A 
HETATM   10  C   UNL     1      62.037  11.477   4.143  1.00  0.00     0.002 A 
HETATM   11  C   UNL     1      61.773  10.916   2.898  1.00  0.00     0.001 A 
ENDROOT
BRANCH   3  12
HETATM   12  C   UNL     1      65.193   6.849   6.532  1.00  0.00     0.226 C 
HETATM   13  O   UNL     1      65.030   6.946   7.737  1.00  0.00    -0.643 OA
HETATM   14  OXT UNL     1      66.140   6.034   6.026  1.00  0.00    -0.643 OA
ENDBRANCH   3  12
TORSDOF 1
ENDMDL
MODEL 2
REMARK VINA RESULT:      -5.4      2.588      4.706
REMARK  1 active torsions:
REMARK  status: ('A' for Active; 'I' for Inactive)
REMARK    1  A    between atoms: CA_3  and  C_4 
ROOT
HETATM    1  N   UNL     1      64.787   9.231   5.624  1.00  0.00    -0.350 N 
ATOM      2  HN  UNL     1      65.052   9.904   6.344  1.00  0.00     0.166 HD
HETATM    3  CA  UNL     1      63.661   9.405   4.884  1.00  0.00     0.110 A 
HETATM    4  C   UNL     1      65.542   8.144   5.379  1.00  0.00     0.043 A 
HETATM    5  C   UNL     1      63.255   8.525   3.890  1.00  0.00     0.037 A 
HETATM    6  C   UNL     1      65.205   7.193   4.391  1.00  0.00    -0.009 A 
HETATM    7  C   UNL     1      64.041   7.405   3.642  1.00  0.00     0.016 A 
HETATM    8  C   UNL     1      66.701   7.933   6.115  1.00  0.00     0.030 A 
HETATM    9  C   UNL     1      66.022   6.068   4.176  1.00  0.00     0.013 A 
HETATM   10  C   UNL     1      67.518   6.816   5.904  1.00  0.00     0.002 A 
HETATM   11  C   UNL     1      67.176   5.881   4.933  1.00  0.00     0.001 A 
ENDROOT
BRANCH   3  12
HETATM   12  C   UNL     1      62.810  10.607   5.154  1.00  0.00     0.226 C 
HETATM   13  O   UNL     1      61.921  11.019   4.429  1.00  0.00    -0.643 OA
HETATM   14  OXT UNL     1      63.104  11.232   6.312  1.00  0.00    -0.643 OA
ENDBRANCH   3  12
TORSDOF 1
ENDMDL
MODEL 3
REMARK VINA RESULT:      -5.1      1.263      1.403
REMARK  1 active torsions:
REMARK  status: ('A' for Active; 'I' for Inactive)
REMARK    1  A    between atoms: CA_3  and  C_4 
ROOT
HETATM    1  N   UNL     1      64.473   9.081   5.491  1.00  0.00    -0.350 N 
ATOM      2  HN  UNL     1      64.516   9.804   6.209  1.00  0.00     0.166 HD
HETATM    3  CA  UNL     1      65.361   8.052   5.481  1.00  0.00     0.110 A 
HETATM    4  C   UNL     1      63.537   9.117   4.525  1.00  0.00     0.043 A 
HETATM    5  C   UNL     1      65.346   7.039   4.531  1.00  0.00     0.037 A 
HETATM    6  C   UNL     1      63.450   8.134   3.516  1.00  0.00    -0.009 A 
HETATM    7  C   UNL     1      64.375   7.084   3.537  1.00  0.00     0.016 A 
HETATM    8  C   UNL     1      62.613  10.154   4.503  1.00  0.00     0.030 A 
HETATM    9  C   UNL     1      62.457   8.218   2.521  1.00  0.00     0.013 A 
HETATM   10  C   UNL     1      61.623  10.242   3.517  1.00  0.00     0.002 A 
HETATM   11  C   UNL     1      61.547   9.273   2.523  1.00  0.00     0.001 A 
ENDROOT
BRANCH   3  12
HETATM   12  C   UNL     1      66.410   8.007   6.546  1.00  0.00     0.226 C 
HETATM   13  O   UNL     1      66.883   8.979   7.112  1.00  0.00    -0.643 OA
HETATM   14  OXT UNL     1      66.816   6.760   6.859  1.00  0.00    -0.643 OA
ENDBRANCH   3  12
TORSDOF 1
ENDMDL
MODEL 4
REMARK VINA RESULT:      -5.1      1.662      2.873
REMARK  1 active torsions:
REMARK  status: ('A' for Active; 'I' for Inactive)
REMARK    1  A    between atoms: CA_3  and  C_4 
ROOT
HETATM    1  N   UNL     1      63.827   7.569   3.896  1.00  0.00    -0.350 N 
ATOM      2  HN  UNL     1      64.357   6.698   3.913  1.00  0.00     0.166 HD
HETATM    3  CA  UNL     1      63.853   8.425   4.952  1.00  0.00     0.110 A 
HETATM    4  C   UNL     1      63.079   7.906   2.829  1.00  0.00     0.043 A 
HETATM    5  C   UNL     1      63.155   9.625   4.981  1.00  0.00     0.037 A 
HETATM    6  C   UNL     1      62.332   9.102   2.772  1.00  0.00    -0.009 A 
HETATM    7  C   UNL     1      62.386   9.965   3.873  1.00  0.00     0.016 A 
HETATM    8  C   UNL     1      63.029   7.056   1.731  1.00  0.00     0.030 A 
HETATM    9  C   UNL     1      61.559   9.408   1.636  1.00  0.00     0.013 A 
HETATM   10  C   UNL     1      62.263   7.356   0.599  1.00  0.00     0.002 A 
HETATM   11  C   UNL     1      61.525   8.533   0.553  1.00  0.00     0.001 A 
ENDROOT
BRANCH   3  12
HETATM   12  C   UNL     1      64.675   8.057   6.147  1.00  0.00     0.226 C 
HETATM   13  O   UNL     1      64.355   7.244   6.999  1.00  0.00    -0.643 OA
HETATM   14  OXT UNL     1      65.851   8.711   6.221  1.00  0.00    -0.643 OA
ENDBRANCH   3  12
TORSDOF 1
ENDMDL
MODEL 5
REMARK VINA RESULT:      -5.0      2.822      4.248
REMARK  1 active torsions:
REMARK  status: ('A' for Active; 'I' for Inactive)
REMARK    1  A    between atoms: CA_3  and  C_4 
ROOT
HETATM    1  N   UNL     1      62.521   9.417   3.184  1.00  0.00    -0.350 N 
ATOM      2  HN  UNL     1      61.899  10.113   2.772  1.00  0.00     0.166 HD
HETATM    3  CA  UNL     1      63.079   9.614   4.408  1.00  0.00     0.110 A 
HETATM    4  C   UNL     1      62.814   8.277   2.533  1.00  0.00     0.043 A 
HETATM    5  C   UNL     1      63.927   8.700   5.017  1.00  0.00     0.037 A 
HETATM    6  C   UNL     1      63.671   7.293   3.072  1.00  0.00    -0.009 A 
HETATM    7  C   UNL     1      64.224   7.524   4.337  1.00  0.00     0.016 A 
HETATM    8  C   UNL     1      62.262   8.040   1.280  1.00  0.00     0.030 A 
HETATM    9  C   UNL     1      63.954   6.119   2.350  1.00  0.00     0.013 A 
HETATM   10  C   UNL     1      62.540   6.874   0.558  1.00  0.00     0.002 A 
HETATM   11  C   UNL     1      63.389   5.912   1.093  1.00  0.00     0.001 A 
ENDROOT
BRANCH   3  12
HETATM   12  C   UNL     1      62.764  10.882   5.137  1.00  0.00     0.226 C 
HETATM   13  O   UNL     1      63.192  11.187   6.239  1.00  0.00    -0.643 OA
HETATM   14  OXT UNL     1      61.941  11.709   4.462  1.00  0.00    -0.643 OA
ENDBRANCH   3  12
TORSDOF 1
ENDMDL
MODEL 6
REMARK VINA RESULT:      -4.6      2.266      3.293
REMARK  1 active torsions:
REMARK  status: ('A' for Active; 'I' for Inactive)
REMARK    1  A    between atoms: CA_3  and  C_4 
ROOT
HETATM    1  N   UNL     1      64.804   6.277   7.229  1.00  0.00    -0.350 N 
ATOM      2  HN  UNL     1      64.340   5.552   7.776  1.00  0.00     0.166 HD
HETATM    3  CA  UNL     1      66.106   6.597   7.452  1.00  0.00     0.110 A 
HETATM    4  C   UNL     1      64.146   6.946   6.264  1.00  0.00     0.043 A 
HETATM    5  C   UNL     1      66.788   7.571   6.735  1.00  0.00     0.037 A 
HETATM    6  C   UNL     1      64.756   7.955   5.489  1.00  0.00    -0.009 A 
HETATM    7  C   UNL     1      66.100   8.257   5.740  1.00  0.00     0.016 A 
HETATM    8  C   UNL     1      62.814   6.646   6.007  1.00  0.00     0.030 A 
HETATM    9  C   UNL     1      64.025   8.633   4.495  1.00  0.00     0.013 A 
HETATM   10  C   UNL     1      62.083   7.316   5.019  1.00  0.00     0.002 A 
HETATM   11  C   UNL     1      62.689   8.313   4.263  1.00  0.00     0.001 A 
ENDROOT
BRANCH   3  12
HETATM   12  C   UNL     1      66.844   5.864   8.528  1.00  0.00     0.226 C 
HETATM   13  O   UNL     1      67.781   6.310   9.170  1.00  0.00    -0.643 OA
HETATM   14  OXT UNL     1      66.381   4.619   8.755  1.00  0.00    -0.643 OA
ENDBRANCH   3  12
TORSDOF 1
ENDMDL
MODEL 7
REMARK VINA RESULT:      -4.4      4.392      7.363
REMARK  1 active torsions:
REMARK  status: ('A' for Active; 'I' for Inactive)
REMARK    1  A    between atoms: CA_3  and  C_4 
ROOT
HETATM    1  N   UNL     1      67.258   5.675   6.130  1.00  0.00    -0.350 N 
ATOM      2  HN  UNL     1      67.264   5.707   5.110  1.00  0.00     0.166 HD
HETATM    3  CA  UNL     1      66.994   6.788   6.864  1.00  0.00     0.110 A 
HETATM    4  C   UNL     1      67.514   4.530   6.790  1.00  0.00     0.043 A 
HETATM    5  C   UNL     1      66.970   6.802   8.251  1.00  0.00     0.037 A 
HETATM    6  C   UNL     1      67.515   4.451   8.199  1.00  0.00    -0.009 A 
HETATM    7  C   UNL     1      67.233   5.614   8.925  1.00  0.00     0.016 A 
HETATM    8  C   UNL     1      67.787   3.372   6.074  1.00  0.00     0.030 A 
HETATM    9  C   UNL     1      67.795   3.232   8.845  1.00  0.00     0.013 A 
HETATM   10  C   UNL     1      68.065   2.157   6.711  1.00  0.00     0.002 A 
HETATM   11  C   UNL     1      68.071   2.088   8.100  1.00  0.00     0.001 A 
ENDROOT
BRANCH   3  12
HETATM   12  C   UNL     1      66.717   8.068   6.139  1.00  0.00     0.226 C 
HETATM   13  O   UNL     1      66.649   8.192   4.927  1.00  0.00    -0.643 OA
HETATM   14  OXT UNL     1      66.534   9.126   6.954  1.00  0.00    -0.643 OA
ENDBRANCH   3  12
TORSDOF 1
ENDMDL
MODEL 8
REMARK VINA RESULT:      -4.4      2.260      2.671
REMARK  1 active torsions:
REMARK  status: ('A' for Active; 'I' for Inactive)
REMARK    1  A    between atoms: CA_3  and  C_4 
ROOT
HETATM    1  N   UNL     1      63.852   7.571   4.051  1.00  0.00    -0.350 N 
ATOM      2  HN  UNL     1      64.398   7.261   4.855  1.00  0.00     0.166 HD
HETATM    3  CA  UNL     1      63.704   6.778   2.957  1.00  0.00     0.110 A 
HETATM    4  C   UNL     1      63.258   8.779   4.040  1.00  0.00     0.043 A 
HETATM    5  C   UNL     1      62.970   7.148   1.838  1.00  0.00     0.037 A 
HETATM    6  C   UNL     1      62.497   9.241   2.944  1.00  0.00    -0.009 A 
HETATM    7  C   UNL     1      62.359   8.396   1.836  1.00  0.00     0.016 A 
HETATM    8  C   UNL     1      63.387   9.617   5.140  1.00  0.00     0.030 A 
HETATM    9  C   UNL     1      61.900  10.515   2.976  1.00  0.00     0.013 A 
HETATM   10  C   UNL     1      62.795  10.885   5.177  1.00  0.00     0.002 A 
HETATM   11  C   UNL     1      62.051  11.335   4.092  1.00  0.00     0.001 A 
ENDROOT
BRANCH   3  12
HETATM   12  C   UNL     1      64.367   5.436   2.956  1.00  0.00     0.226 C 
HETATM   13  O   UNL     1      65.525   5.222   2.636  1.00  0.00    -0.643 OA
HETATM   14  OXT UNL     1      63.563   4.431   3.356  1.00  0.00    -0.643 OA
ENDBRANCH   3  12
TORSDOF 1
ENDMDL
MODEL 9
REMARK VINA RESULT:      -4.3      2.767      3.473
REMARK  1 active torsions:
REMARK  status: ('A' for Active; 'I' for Inactive)
REMARK    1  A    between atoms: CA_3  and  C_4 
ROOT
HETATM    1  N   UNL     1      60.942   7.057   4.336  1.00  0.00    -0.350 N 
ATOM      2  HN  UNL     1      60.322   6.486   4.910  1.00  0.00     0.166 HD
HETATM    3  CA  UNL     1      62.168   7.432   4.788  1.00  0.00     0.110 A 
HETATM    4  C   UNL     1      60.572   7.464   3.107  1.00  0.00     0.043 A 
HETATM    5  C   UNL     1      63.053   8.204   4.049  1.00  0.00     0.037 A 
HETATM    6  C   UNL     1      61.404   8.255   2.287  1.00  0.00    -0.009 A 
HETATM    7  C   UNL     1      62.663   8.619   2.780  1.00  0.00     0.016 A 
HETATM    8  C   UNL     1      59.326   7.100   2.610  1.00  0.00     0.030 A 
HETATM    9  C   UNL     1      60.970   8.663   1.011  1.00  0.00     0.013 A 
HETATM   10  C   UNL     1      58.890   7.502   1.342  1.00  0.00     0.002 A 
HETATM   11  C   UNL     1      59.713   8.286   0.542  1.00  0.00     0.001 A 
ENDROOT
BRANCH   3  12
HETATM   12  C   UNL     1      62.586   6.991   6.156  1.00  0.00     0.226 C 
HETATM   13  O   UNL     1      63.152   7.690   6.980  1.00  0.00    -0.643 OA
HETATM   14  OXT UNL     1      62.277   5.709   6.433  1.00  0.00    -0.643 OA
ENDBRANCH   3  12
TORSDOF 1
ENDMDL
