MODEL 1
REMARK VINA RESULT:      -4.9      0.000      0.000
REMARK  2 active torsions:
REMARK  status: ('A' for Active; 'I' for Inactive)
REMARK    1  A    between atoms: C_7  and  C_11 
REMARK    2  A    between atoms: N_9  and  C_11 
ROOT
HETATM    1  N   UNL     1      62.281   9.575   1.728  1.00  0.00    -0.365 N 
ATOM      2  HN  UNL     1      62.313   9.104   0.824  1.00  0.00     0.165 HD
HETATM    3  C   UNL     1      62.619   9.562   4.118  1.00  0.00    -0.009 A 
HETATM    4  C   UNL     1      62.643   8.935   2.855  1.00  0.00     0.042 A 
HETATM    5  C   UNL     1      63.016   8.858   5.269  1.00  0.00     0.022 A 
HETATM    6  C   UNL     1      63.061   7.613   2.793  1.00  0.00     0.031 A 
HETATM    7  C   UNL     1      63.425   7.519   5.193  1.00  0.00    -0.032 A 
HETATM    8  C   UNL     1      63.444   6.904   3.937  1.00  0.00     0.011 A 
HETATM    9  C   UNL     1      61.874  10.858   1.831  1.00  0.00     0.088 A 
HETATM   10  C   UNL     1      62.188  10.894   4.184  1.00  0.00     0.015 A 
HETATM   11  C   UNL     1      61.807  11.554   3.023  1.00  0.00     0.018 A 
ENDROOT
BRANCH   7  12
HETATM   12  C   UNL     1      63.857   6.766   6.430  1.00  0.00     0.270 C 
BRANCH  12  13
HETATM   13  N   UNL     1      65.098   7.308   6.984  1.00  0.00    -0.075 N 
HETATM   14  C   UNL     1      65.959   6.243   7.480  1.00  0.00     0.267 C 
HETATM   15  H   UNL     1      64.872   7.940   7.752  1.00  0.00     0.277 HD
HETATM   16  H   UNL     1      65.593   7.806   6.244  1.00  0.00     0.277 HD
ENDBRANCH  12  13
ENDBRANCH   7  12
TORSDOF 2
ENDMDL
MODEL 2
REMARK VINA RESULT:      -4.8      1.331      2.454
REMARK  2 active torsions:
REMARK  status: ('A' for Active; 'I' for Inactive)
REMARK    1  A    between atoms: C_7  and  C_11 
REMARK    2  A    between atoms: N_9  and  C_11 
ROOT
HETATM    1  N   UNL     1      61.170   9.558   2.144  1.00  0.00    -0.365 N 
ATOM      2  HN  UNL     1      60.609  10.383   2.355  1.00  0.00     0.165 HD
HETATM    3  C   UNL     1      62.935   8.014   2.715  1.00  0.00    -0.009 A 
HETATM    4  C   UNL     1      62.149   9.156   2.974  1.00  0.00     0.042 A 
HETATM    5  C   UNL     1      63.943   7.625   3.616  1.00  0.00     0.022 A 
HETATM    6  C   UNL     1      62.409   9.876   4.132  1.00  0.00     0.031 A 
HETATM    7  C   UNL     1      64.201   8.368   4.777  1.00  0.00    -0.032 A 
HETATM    8  C   UNL     1      63.419   9.500   5.026  1.00  0.00     0.011 A 
HETATM    9  C   UNL     1      60.953   8.836   1.024  1.00  0.00     0.088 A 
HETATM   10  C   UNL     1      62.681   7.292   1.541  1.00  0.00     0.015 A 
HETATM   11  C   UNL     1      61.675   7.709   0.679  1.00  0.00     0.018 A 
ENDROOT
BRANCH   7  12
HETATM   12  C   UNL     1      65.280   7.944   5.748  1.00  0.00     0.270 C 
BRANCH  12  13
HETATM   13  N   UNL     1      64.721   7.232   6.897  1.00  0.00    -0.075 N 
HETATM   14  C   UNL     1      65.761   6.528   7.633  1.00  0.00     0.267 C 
HETATM   15  H   UNL     1      64.030   6.558   6.567  1.00  0.00     0.277 HD
HETATM   16  H   UNL     1      64.287   7.913   7.520  1.00  0.00     0.277 HD
ENDBRANCH  12  13
ENDBRANCH   7  12
TORSDOF 2
ENDMDL
MODEL 3
REMARK VINA RESULT:      -4.7      1.786      5.127
REMARK  2 active torsions:
REMARK  status: ('A' for Active; 'I' for Inactive)
REMARK    1  A    between atoms: C_7  and  C_11 
REMARK    2  A    between atoms: N_9  and  C_11 
ROOT
HETATM    1  N   UNL     1      66.055   5.944   4.130  1.00  0.00    -0.365 N 
ATOM      2  HN  UNL     1      65.983   5.164   3.476  1.00  0.00     0.165 HD
HETATM    3  C   UNL     1      65.206   8.016   5.031  1.00  0.00    -0.009 A 
HETATM    4  C   UNL     1      65.139   6.930   4.135  1.00  0.00     0.042 A 
HETATM    5  C   UNL     1      64.221   9.020   5.008  1.00  0.00     0.022 A 
HETATM    6  C   UNL     1      64.084   6.894   3.234  1.00  0.00     0.031 A 
HETATM    7  C   UNL     1      63.165   8.975   4.085  1.00  0.00    -0.032 A 
HETATM    8  C   UNL     1      63.108   7.897   3.197  1.00  0.00     0.011 A 
HETATM    9  C   UNL     1      67.071   6.020   5.015  1.00  0.00     0.088 A 
HETATM   10  C   UNL     1      66.277   8.059   5.934  1.00  0.00     0.015 A 
HETATM   11  C   UNL     1      67.227   7.047   5.927  1.00  0.00     0.018 A 
ENDROOT
BRANCH   7  12
HETATM   12  C   UNL     1      62.104  10.052   4.065  1.00  0.00     0.270 C 
BRANCH  12  13
HETATM   13  N   UNL     1      61.509  10.197   2.737  1.00  0.00    -0.075 N 
HETATM   14  C   UNL     1      61.813  11.501   2.166  1.00  0.00     0.267 C 
HETATM   15  H   UNL     1      60.498  10.092   2.812  1.00  0.00     0.277 HD
HETATM   16  H   UNL     1      61.899   9.477   2.127  1.00  0.00     0.277 HD
ENDBRANCH  12  13
ENDBRANCH   7  12
TORSDOF 2
ENDMDL
MODEL 4
REMARK VINA RESULT:      -4.6      2.524      3.750
REMARK  2 active torsions:
REMARK  status: ('A' for Active; 'I' for Inactive)
REMARK    1  A    between atoms: C_7  and  C_11 
REMARK    2  A    between atoms: N_9  and  C_11 
ROOT
HETATM    1  N   UNL     1      61.751  11.035   3.058  1.00  0.00    -0.365 N 
ATOM      2  HN  UNL     1      61.236  11.709   2.490  1.00  0.00     0.165 HD
HETATM    3  C   UNL     1      62.807   8.881   3.322  1.00  0.00    -0.009 A 
HETATM    4  C   UNL     1      62.088   9.829   2.566  1.00  0.00     0.042 A 
HETATM    5  C   UNL     1      63.148   7.636   2.764  1.00  0.00     0.022 A 
HETATM    6  C   UNL     1      61.726   9.489   1.270  1.00  0.00     0.031 A 
HETATM    7  C   UNL     1      62.766   7.301   1.457  1.00  0.00    -0.032 A 
HETATM    8  C   UNL     1      62.050   8.245   0.714  1.00  0.00     0.011 A 
HETATM    9  C   UNL     1      62.115  11.327   4.325  1.00  0.00     0.088 A 
HETATM   10  C   UNL     1      63.166   9.220   4.634  1.00  0.00     0.015 A 
HETATM   11  C   UNL     1      62.813  10.462   5.147  1.00  0.00     0.018 A 
ENDROOT
BRANCH   7  12
HETATM   12  C   UNL     1      63.137   5.964   0.857  1.00  0.00     0.270 C 
BRANCH  12  13
HETATM   13  N   UNL     1      64.222   5.324   1.600  1.00  0.00    -0.075 N 
HETATM   14  C   UNL     1      64.696   4.132   0.911  1.00  0.00     0.267 C 
HETATM   15  H   UNL     1      63.883   5.063   2.525  1.00  0.00     0.277 HD
HETATM   16  H   UNL     1      64.997   5.984   1.675  1.00  0.00     0.277 HD
ENDBRANCH  12  13
ENDBRANCH   7  12
TORSDOF 2
ENDMDL
MODEL 5
REMARK VINA RESULT:      -4.6      1.556      1.925
REMARK  2 active torsions:
REMARK  status: ('A' for Active; 'I' for Inactive)
REMARK    1  A    between atoms: C_7  and  C_11 
REMARK    2  A    between atoms: N_9  and  C_11 
ROOT
HETATM    1  N   UNL     1      62.461   8.340   2.796  1.00  0.00    -0.365 N 
ATOM      2  HN  UNL     1      62.184   7.749   2.012  1.00  0.00     0.165 HD
HETATM    3  C   UNL     1      63.936   8.829   4.642  1.00  0.00    -0.009 A 
HETATM    4  C   UNL     1      63.523   8.027   3.559  1.00  0.00     0.042 A 
HETATM    5  C   UNL     1      65.060   8.469   5.408  1.00  0.00     0.022 A 
HETATM    6  C   UNL     1      64.253   6.878   3.285  1.00  0.00     0.031 A 
HETATM    7  C   UNL     1      65.781   7.300   5.126  1.00  0.00    -0.032 A 
HETATM    8  C   UNL     1      65.364   6.508   4.052  1.00  0.00     0.011 A 
HETATM    9  C   UNL     1      61.772   9.461   3.099  1.00  0.00     0.088 A 
HETATM   10  C   UNL     1      63.194   9.984   4.926  1.00  0.00     0.015 A 
HETATM   11  C   UNL     1      62.093  10.307   4.144  1.00  0.00     0.018 A 
ENDROOT
BRANCH   7  12
HETATM   12  C   UNL     1      66.992   6.917   5.946  1.00  0.00     0.270 C 
BRANCH  12  13
HETATM   13  N   UNL     1      67.060   7.678   7.193  1.00  0.00    -0.075 N 
HETATM   14  C   UNL     1      66.855   6.814   8.347  1.00  0.00     0.267 C 
HETATM   15  H   UNL     1      66.338   8.399   7.183  1.00  0.00     0.277 HD
HETATM   16  H   UNL     1      67.985   8.101   7.265  1.00  0.00     0.277 HD
ENDBRANCH  12  13
ENDBRANCH   7  12
TORSDOF 2
ENDMDL
MODEL 6
REMARK VINA RESULT:      -4.4      3.291      7.891
REMARK  2 active torsions:
REMARK  status: ('A' for Active; 'I' for Inactive)
REMARK    1  A    between atoms: C_7  and  C_11 
REMARK    2  A    between atoms: N_9  and  C_11 
ROOT
HETATM    1  N   UNL     1      67.442   3.200   9.056  1.00  0.00    -0.365 N 
ATOM      2  HN  UNL     1      67.266   3.165  10.060  1.00  0.00     0.165 HD
HETATM    3  C   UNL     1      67.552   4.431   6.983  1.00  0.00    -0.009 A 
HETATM    4  C   UNL     1      67.306   4.349   8.368  1.00  0.00     0.042 A 
HETATM    5  C   UNL     1      67.407   5.656   6.306  1.00  0.00     0.022 A 
HETATM    6  C   UNL     1      66.913   5.504   9.029  1.00  0.00     0.031 A 
HETATM    7  C   UNL     1      66.999   6.813   6.985  1.00  0.00    -0.032 A 
HETATM    8  C   UNL     1      66.754   6.723   8.358  1.00  0.00     0.011 A 
HETATM    9  C   UNL     1      67.819   2.096   8.376  1.00  0.00     0.088 A 
HETATM   10  C   UNL     1      67.940   3.263   6.312  1.00  0.00     0.015 A 
HETATM   11  C   UNL     1      68.074   2.075   7.017  1.00  0.00     0.018 A 
ENDROOT
BRANCH   7  12
HETATM   12  C   UNL     1      66.849   8.129   6.257  1.00  0.00     0.270 C 
BRANCH  12  13
HETATM   13  N   UNL     1      65.453   8.563   6.211  1.00  0.00    -0.075 N 
HETATM   14  C   UNL     1      64.840   8.221   4.935  1.00  0.00     0.267 C 
HETATM   15  H   UNL     1      65.414   9.574   6.340  1.00  0.00     0.277 HD
HETATM   16  H   UNL     1      64.941   8.088   6.954  1.00  0.00     0.277 HD
ENDBRANCH  12  13
ENDBRANCH   7  12
TORSDOF 2
ENDMDL
MODEL 7
REMARK VINA RESULT:      -4.1      2.395      6.622
REMARK  2 active torsions:
REMARK  status: ('A' for Active; 'I' for Inactive)
REMARK    1  A    between atoms: C_7  and  C_11 
REMARK    2  A    between atoms: N_9  and  C_11 
ROOT
HETATM    1  N   UNL     1      66.740   3.815   8.278  1.00  0.00    -0.365 N 
ATOM      2  HN  UNL     1      66.608   2.804   8.258  1.00  0.00     0.165 HD
HETATM    3  C   UNL     1      66.024   6.041   7.677  1.00  0.00    -0.009 A 
HETATM    4  C   UNL     1      65.875   4.639   7.659  1.00  0.00     0.042 A 
HETATM    5  C   UNL     1      65.090   6.865   7.024  1.00  0.00     0.022 A 
HETATM    6  C   UNL     1      64.790   4.109   6.974  1.00  0.00     0.031 A 
HETATM    7  C   UNL     1      64.004   6.315   6.327  1.00  0.00    -0.032 A 
HETATM    8  C   UNL     1      63.864   4.924   6.311  1.00  0.00     0.011 A 
HETATM    9  C   UNL     1      67.787   4.368   8.926  1.00  0.00     0.088 A 
HETATM   10  C   UNL     1      67.125   6.576   8.359  1.00  0.00     0.015 A 
HETATM   11  C   UNL     1      68.024   5.729   8.993  1.00  0.00     0.018 A 
ENDROOT
BRANCH   7  12
HETATM   12  C   UNL     1      62.997   7.202   5.631  1.00  0.00     0.270 C 
BRANCH  12  13
HETATM   13  N   UNL     1      63.041   8.571   6.144  1.00  0.00    -0.075 N 
HETATM   14  C   UNL     1      63.172   9.534   5.060  1.00  0.00     0.267 C 
HETATM   15  H   UNL     1      63.838   8.666   6.773  1.00  0.00     0.277 HD
HETATM   16  H   UNL     1      62.170   8.759   6.641  1.00  0.00     0.277 HD
ENDBRANCH  12  13
ENDBRANCH   7  12
TORSDOF 2
ENDMDL
MODEL 8
REMARK VINA RESULT:      -4.0      2.729      6.501
REMARK  2 active torsions:
REMARK  status: ('A' for Active; 'I' for Inactive)
REMARK    1  A    between atoms: C_7  and  C_11 
REMARK    2  A    between atoms: N_9  and  C_11 
ROOT
HETATM    1  N   UNL     1      67.389   7.240   8.399  1.00  0.00    -0.365 N 
ATOM      2  HN  UNL     1      67.634   8.176   8.722  1.00  0.00     0.165 HD
HETATM    3  C   UNL     1      66.404   5.775   6.753  1.00  0.00    -0.009 A 
HETATM    4  C   UNL     1      66.748   7.056   7.230  1.00  0.00     0.042 A 
HETATM    5  C   UNL     1      65.742   5.630   5.520  1.00  0.00     0.022 A 
HETATM    6  C   UNL     1      66.406   8.154   6.453  1.00  0.00     0.031 A 
HETATM    7  C   UNL     1      65.394   6.749   4.750  1.00  0.00    -0.032 A 
HETATM    8  C   UNL     1      65.736   8.016   5.232  1.00  0.00     0.011 A 
HETATM    9  C   UNL     1      67.697   6.148   9.131  1.00  0.00     0.088 A 
HETATM   10  C   UNL     1      66.739   4.667   7.542  1.00  0.00     0.015 A 
HETATM   11  C   UNL     1      67.395   4.853   8.751  1.00  0.00     0.018 A 
ENDROOT
BRANCH   7  12
HETATM   12  C   UNL     1      64.688   6.590   3.423  1.00  0.00     0.270 C 
BRANCH  12  13
HETATM   13  N   UNL     1      63.640   7.595   3.247  1.00  0.00    -0.075 N 
HETATM   14  C   UNL     1      62.364   7.117   3.760  1.00  0.00     0.267 C 
HETATM   15  H   UNL     1      63.543   7.805   2.253  1.00  0.00     0.277 HD
HETATM   16  H   UNL     1      63.904   8.433   3.765  1.00  0.00     0.277 HD
ENDBRANCH  12  13
ENDBRANCH   7  12
TORSDOF 2
ENDMDL
MODEL 9
REMARK VINA RESULT:      -4.0      2.545      3.325
REMARK  2 active torsions:
REMARK  status: ('A' for Active; 'I' for Inactive)
REMARK    1  A    between atoms: C_7  and  C_11 
REMARK    2  A    between atoms: N_9  and  C_11 
ROOT
HETATM    1  N   UNL     1      59.459   7.957   3.125  1.00  0.00    -0.365 N 
ATOM      2  HN  UNL     1      59.101   8.595   2.413  1.00  0.00     0.165 HD
HETATM    3  C   UNL     1      61.233   7.216   4.584  1.00  0.00    -0.009 A 
HETATM    4  C   UNL     1      60.714   8.076   3.594  1.00  0.00     0.042 A 
HETATM    5  C   UNL     1      62.548   7.384   5.053  1.00  0.00     0.022 A 
HETATM    6  C   UNL     1      61.541   9.076   3.102  1.00  0.00     0.031 A 
HETATM    7  C   UNL     1      63.377   8.392   4.538  1.00  0.00    -0.032 A 
HETATM    8  C   UNL     1      62.856   9.239   3.555  1.00  0.00     0.011 A 
HETATM    9  C   UNL     1      58.688   6.967   3.623  1.00  0.00     0.088 A 
HETATM   10  C   UNL     1      60.402   6.200   5.075  1.00  0.00     0.015 A 
HETATM   11  C   UNL     1      59.108   6.070   4.587  1.00  0.00     0.018 A 
ENDROOT
BRANCH   7  12
HETATM   12  C   UNL     1      64.788   8.574   5.048  1.00  0.00     0.270 C 
BRANCH  12  13
HETATM   13  N   UNL     1      65.017   7.819   6.280  1.00  0.00    -0.075 N 
HETATM   14  C   UNL     1      66.436   7.755   6.600  1.00  0.00     0.267 C 
HETATM   15  H   UNL     1      64.658   6.872   6.162  1.00  0.00     0.277 HD
HETATM   16  H   UNL     1      64.534   8.291   7.044  1.00  0.00     0.277 HD
ENDBRANCH  12  13
ENDBRANCH   7  12
TORSDOF 2
ENDMDL
