MODEL 1
REMARK VINA RESULT:      -5.8      0.000      0.000
REMARK  1 active torsions:
REMARK  status: ('A' for Active; 'I' for Inactive)
REMARK    1  A    between atoms: C_1  and  C_2 
ROOT
HETATM    1  C   UNL     1      63.134   9.389   4.602  1.00  0.00     0.054 A 
HETATM    2  C   UNL     1      62.811   8.858   3.319  1.00  0.00     0.008 A 
HETATM    3  N   UNL     1      61.645  10.929   2.822  1.00  0.00    -0.365 N 
ATOM      4  HN  UNL     1      61.098  11.500   2.177  1.00  0.00     0.165 HD
HETATM    5  C   UNL     1      62.051   9.700   2.472  1.00  0.00     0.043 A 
HETATM    6  C   UNL     1      61.972  11.394   4.039  1.00  0.00     0.089 A 
HETATM    7  C   UNL     1      62.703  10.675   4.954  1.00  0.00     0.036 A 
HETATM    8  C   UNL     1      63.176   7.579   2.814  1.00  0.00     0.015 A 
HETATM    9  C   UNL     1      61.692   9.257   1.207  1.00  0.00     0.030 A 
HETATM   10  C   UNL     1      62.804   7.159   1.536  1.00  0.00     0.001 A 
HETATM   11  C   UNL     1      62.057   8.000   0.730  1.00  0.00     0.002 A 
ENDROOT
BRANCH   1  12
HETATM   12  C   UNL     1      63.924   8.617   5.610  1.00  0.00     0.210 C 
HETATM   13  O   UNL     1      63.549   7.705   6.320  1.00  0.00    -0.644 OA
HETATM   14  O   UNL     1      65.203   9.039   5.690  1.00  0.00    -0.644 OA
ENDBRANCH   1  12
TORSDOF 1
ENDMDL
MODEL 2
REMARK VINA RESULT:      -5.6      1.382      2.897
REMARK  1 active torsions:
REMARK  status: ('A' for Active; 'I' for Inactive)
REMARK    1  A    between atoms: C_1  and  C_2 
ROOT
HETATM    1  C   UNL     1      63.162   7.915   4.377  1.00  0.00     0.054 A 
HETATM    2  C   UNL     1      62.674   9.077   3.710  1.00  0.00     0.008 A 
HETATM    3  N   UNL     1      62.667   7.812   1.638  1.00  0.00    -0.365 N 
ATOM      4  HN  UNL     1      62.490   7.767   0.634  1.00  0.00     0.165 HD
HETATM    5  C   UNL     1      62.449   8.946   2.319  1.00  0.00     0.043 A 
HETATM    6  C   UNL     1      63.124   6.738   2.302  1.00  0.00     0.089 A 
HETATM    7  C   UNL     1      63.384   6.737   3.652  1.00  0.00     0.036 A 
HETATM    8  C   UNL     1      62.395  10.340   4.303  1.00  0.00     0.015 A 
HETATM    9  C   UNL     1      61.978  10.033   1.596  1.00  0.00     0.030 A 
HETATM   10  C   UNL     1      61.920  11.417   3.552  1.00  0.00     0.001 A 
HETATM   11  C   UNL     1      61.712  11.263   2.193  1.00  0.00     0.002 A 
ENDROOT
BRANCH   1  12
HETATM   12  C   UNL     1      63.455   7.898   5.844  1.00  0.00     0.210 C 
HETATM   13  O   UNL     1      62.685   7.696   6.761  1.00  0.00    -0.644 OA
HETATM   14  O   UNL     1      64.755   8.148   6.108  1.00  0.00    -0.644 OA
ENDBRANCH   1  12
TORSDOF 1
ENDMDL
MODEL 3
REMARK VINA RESULT:      -5.4      1.641      3.296
REMARK  1 active torsions:
REMARK  status: ('A' for Active; 'I' for Inactive)
REMARK    1  A    between atoms: C_1  and  C_2 
ROOT
HETATM    1  C   UNL     1      64.516   7.895   4.855  1.00  0.00     0.054 A 
HETATM    2  C   UNL     1      63.615   8.921   4.443  1.00  0.00     0.008 A 
HETATM    3  N   UNL     1      63.107   7.599   2.471  1.00  0.00    -0.365 N 
ATOM      4  HN  UNL     1      62.595   7.482   1.596  1.00  0.00     0.165 HD
HETATM    5  C   UNL     1      62.938   8.698   3.220  1.00  0.00     0.043 A 
HETATM    6  C   UNL     1      63.963   6.654   2.895  1.00  0.00     0.089 A 
HETATM    7  C   UNL     1      64.681   6.752   4.062  1.00  0.00     0.036 A 
HETATM    8  C   UNL     1      63.335  10.132   5.135  1.00  0.00     0.015 A 
HETATM    9  C   UNL     1      62.046   9.649   2.746  1.00  0.00     0.030 A 
HETATM   10  C   UNL     1      62.431  11.072   4.637  1.00  0.00     0.001 A 
HETATM   11  C   UNL     1      61.785  10.831   3.437  1.00  0.00     0.002 A 
ENDROOT
BRANCH   1  12
HETATM   12  C   UNL     1      65.310   7.990   6.119  1.00  0.00     0.210 C 
HETATM   13  O   UNL     1      66.265   8.702   6.354  1.00  0.00    -0.644 OA
HETATM   14  O   UNL     1      64.853   7.152   7.073  1.00  0.00    -0.644 OA
ENDBRANCH   1  12
TORSDOF 1
ENDMDL
MODEL 4
REMARK VINA RESULT:      -5.0      2.627      3.727
REMARK  1 active torsions:
REMARK  status: ('A' for Active; 'I' for Inactive)
REMARK    1  A    between atoms: C_1  and  C_2 
ROOT
HETATM    1  C   UNL     1      62.359   9.308   3.338  1.00  0.00     0.054 A 
HETATM    2  C   UNL     1      63.418   8.473   3.800  1.00  0.00     0.008 A 
HETATM    3  N   UNL     1      63.787  10.042   5.615  1.00  0.00    -0.365 N 
ATOM      4  HN  UNL     1      64.305  10.319   6.449  1.00  0.00     0.165 HD
HETATM    5  C   UNL     1      64.096   8.913   4.961  1.00  0.00     0.043 A 
HETATM    6  C   UNL     1      62.781  10.801   5.150  1.00  0.00     0.089 A 
HETATM    7  C   UNL     1      62.046  10.485   4.033  1.00  0.00     0.036 A 
HETATM    8  C   UNL     1      63.851   7.252   3.211  1.00  0.00     0.015 A 
HETATM    9  C   UNL     1      65.142   8.158   5.472  1.00  0.00     0.030 A 
HETATM   10  C   UNL     1      64.906   6.510   3.748  1.00  0.00     0.001 A 
HETATM   11  C   UNL     1      65.555   6.966   4.882  1.00  0.00     0.002 A 
ENDROOT
BRANCH   1  12
HETATM   12  C   UNL     1      61.554   8.981   2.121  1.00  0.00     0.210 C 
HETATM   13  O   UNL     1      60.549   8.304   2.046  1.00  0.00    -0.644 OA
HETATM   14  O   UNL     1      62.067   9.538   1.004  1.00  0.00    -0.644 OA
ENDBRANCH   1  12
TORSDOF 1
ENDMDL
MODEL 5
REMARK VINA RESULT:      -4.7      2.368      3.660
REMARK  1 active torsions:
REMARK  status: ('A' for Active; 'I' for Inactive)
REMARK    1  A    between atoms: C_1  and  C_2 
ROOT
HETATM    1  C   UNL     1      63.052   7.277   3.467  1.00  0.00     0.054 A 
HETATM    2  C   UNL     1      62.641   8.618   3.213  1.00  0.00     0.008 A 
HETATM    3  N   UNL     1      62.987   9.109   5.565  1.00  0.00    -0.365 N 
ATOM      4  HN  UNL     1      62.966   9.774   6.339  1.00  0.00     0.165 HD
HETATM    5  C   UNL     1      62.633   9.488   4.328  1.00  0.00     0.043 A 
HETATM    6  C   UNL     1      63.371   7.838   5.764  1.00  0.00     0.089 A 
HETATM    7  C   UNL     1      63.420   6.896   4.765  1.00  0.00     0.036 A 
HETATM    8  C   UNL     1      62.244   9.159   1.958  1.00  0.00     0.015 A 
HETATM    9  C   UNL     1      62.242  10.810   4.165  1.00  0.00     0.030 A 
HETATM   10  C   UNL     1      61.856  10.493   1.821  1.00  0.00     0.001 A 
HETATM   11  C   UNL     1      61.854  11.322   2.929  1.00  0.00     0.002 A 
ENDROOT
BRANCH   1  12
HETATM   12  C   UNL     1      63.105   6.239   2.392  1.00  0.00     0.210 C 
HETATM   13  O   UNL     1      64.070   5.863   1.758  1.00  0.00    -0.644 OA
HETATM   14  O   UNL     1      61.895   5.695   2.147  1.00  0.00    -0.644 OA
ENDBRANCH   1  12
TORSDOF 1
ENDMDL
MODEL 6
REMARK VINA RESULT:      -4.3      4.142      6.347
REMARK  1 active torsions:
REMARK  status: ('A' for Active; 'I' for Inactive)
REMARK    1  A    between atoms: C_1  and  C_2 
ROOT
HETATM    1  C   UNL     1      65.181   7.116   5.581  1.00  0.00     0.054 A 
HETATM    2  C   UNL     1      66.095   6.595   6.543  1.00  0.00     0.008 A 
HETATM    3  N   UNL     1      67.287   5.501   4.733  1.00  0.00    -0.365 N 
ATOM      4  HN  UNL     1      68.055   4.910   4.414  1.00  0.00     0.165 HD
HETATM    5  C   UNL     1      67.137   5.783   6.035  1.00  0.00     0.043 A 
HETATM    6  C   UNL     1      66.407   6.013   3.857  1.00  0.00     0.089 A 
HETATM    7  C   UNL     1      65.351   6.814   4.223  1.00  0.00     0.036 A 
HETATM    8  C   UNL     1      66.061   6.813   7.949  1.00  0.00     0.015 A 
HETATM    9  C   UNL     1      68.066   5.234   6.907  1.00  0.00     0.030 A 
HETATM   10  C   UNL     1      67.010   6.250   8.804  1.00  0.00     0.001 A 
HETATM   11  C   UNL     1      68.016   5.456   8.281  1.00  0.00     0.002 A 
ENDROOT
BRANCH   1  12
HETATM   12  C   UNL     1      64.025   7.983   5.964  1.00  0.00     0.210 C 
HETATM   13  O   UNL     1      63.067   7.696   6.653  1.00  0.00    -0.644 OA
HETATM   14  O   UNL     1      64.123   9.225   5.445  1.00  0.00    -0.644 OA
ENDBRANCH   1  12
TORSDOF 1
ENDMDL
MODEL 7
REMARK VINA RESULT:      -4.3      3.644      5.187
REMARK  1 active torsions:
REMARK  status: ('A' for Active; 'I' for Inactive)
REMARK    1  A    between atoms: C_1  and  C_2 
ROOT
HETATM    1  C   UNL     1      66.380   6.249   6.949  1.00  0.00     0.054 A 
HETATM    2  C   UNL     1      65.292   6.905   6.301  1.00  0.00     0.008 A 
HETATM    3  N   UNL     1      66.887   7.917   4.776  1.00  0.00    -0.365 N 
ATOM      4  HN  UNL     1      67.081   8.527   3.981  1.00  0.00     0.165 HD
HETATM    5  C   UNL     1      65.630   7.736   5.207  1.00  0.00     0.043 A 
HETATM    6  C   UNL     1      67.884   7.280   5.411  1.00  0.00     0.089 A 
HETATM    7  C   UNL     1      67.688   6.448   6.487  1.00  0.00     0.036 A 
HETATM    8  C   UNL     1      63.915   6.803   6.646  1.00  0.00     0.015 A 
HETATM    9  C   UNL     1      64.629   8.413   4.525  1.00  0.00     0.030 A 
HETATM   10  C   UNL     1      62.927   7.494   5.941  1.00  0.00     0.001 A 
HETATM   11  C   UNL     1      63.286   8.303   4.877  1.00  0.00     0.002 A 
ENDROOT
BRANCH   1  12
HETATM   12  C   UNL     1      66.184   5.346   8.124  1.00  0.00     0.210 C 
HETATM   13  O   UNL     1      65.952   4.153   8.124  1.00  0.00    -0.644 OA
HETATM   14  O   UNL     1      66.290   6.003   9.298  1.00  0.00    -0.644 OA
ENDBRANCH   1  12
TORSDOF 1
ENDMDL
MODEL 8
REMARK VINA RESULT:      -4.2      2.705      4.042
REMARK  1 active torsions:
REMARK  status: ('A' for Active; 'I' for Inactive)
REMARK    1  A    between atoms: C_1  and  C_2 
ROOT
HETATM    1  C   UNL     1      65.110   7.279   5.721  1.00  0.00     0.054 A 
HETATM    2  C   UNL     1      63.899   7.646   5.064  1.00  0.00     0.008 A 
HETATM    3  N   UNL     1      62.912   5.573   5.853  1.00  0.00    -0.365 N 
ATOM      4  HN  UNL     1      62.112   4.942   5.906  1.00  0.00     0.165 HD
HETATM    5  C   UNL     1      62.828   6.727   5.175  1.00  0.00     0.043 A 
HETATM    6  C   UNL     1      64.069   5.264   6.461  1.00  0.00     0.089 A 
HETATM    7  C   UNL     1      65.182   6.070   6.426  1.00  0.00     0.036 A 
HETATM    8  C   UNL     1      63.667   8.834   4.316  1.00  0.00     0.015 A 
HETATM    9  C   UNL     1      61.616   7.008   4.561  1.00  0.00     0.030 A 
HETATM   10  C   UNL     1      62.436   9.093   3.709  1.00  0.00     0.001 A 
HETATM   11  C   UNL     1      61.407   8.176   3.831  1.00  0.00     0.002 A 
ENDROOT
BRANCH   1  12
HETATM   12  C   UNL     1      66.331   8.142   5.687  1.00  0.00     0.210 C 
HETATM   13  O   UNL     1      67.180   8.207   4.822  1.00  0.00    -0.644 OA
HETATM   14  O   UNL     1      66.439   8.918   6.786  1.00  0.00    -0.644 OA
ENDBRANCH   1  12
TORSDOF 1
ENDMDL
MODEL 9
REMARK VINA RESULT:      -4.2      2.578      3.298
REMARK  1 active torsions:
REMARK  status: ('A' for Active; 'I' for Inactive)
REMARK    1  A    between atoms: C_1  and  C_2 
ROOT
HETATM    1  C   UNL     1      62.955   8.463   4.230  1.00  0.00     0.054 A 
HETATM    2  C   UNL     1      61.978   7.579   4.774  1.00  0.00     0.008 A 
HETATM    3  N   UNL     1      60.495   8.190   2.952  1.00  0.00    -0.365 N 
ATOM      4  HN  UNL     1      59.596   8.096   2.478  1.00  0.00     0.165 HD
HETATM    5  C   UNL     1      60.754   7.496   4.070  1.00  0.00     0.043 A 
HETATM    6  C   UNL     1      61.442   9.010   2.468  1.00  0.00     0.089 A 
HETATM    7  C   UNL     1      62.671   9.181   3.060  1.00  0.00     0.036 A 
HETATM    8  C   UNL     1      62.115   6.782   5.945  1.00  0.00     0.015 A 
HETATM    9  C   UNL     1      59.748   6.661   4.536  1.00  0.00     0.030 A 
HETATM   10  C   UNL     1      61.088   5.948   6.392  1.00  0.00     0.001 A 
HETATM   11  C   UNL     1      59.900   5.888   5.686  1.00  0.00     0.002 A 
ENDROOT
BRANCH   1  12
HETATM   12  C   UNL     1      64.294   8.665   4.865  1.00  0.00     0.210 C 
HETATM   13  O   UNL     1      64.635   9.539   5.635  1.00  0.00    -0.644 OA
HETATM   14  O   UNL     1      65.184   7.722   4.491  1.00  0.00    -0.644 OA
ENDBRANCH   1  12
TORSDOF 1
ENDMDL
