MODEL 1
REMARK VINA RESULT:      -4.2      0.000      0.000
REMARK  2 active torsions:
REMARK  status: ('A' for Active; 'I' for Inactive)
REMARK    1  A    between atoms: C_3  and  C_6 
REMARK    2  A    between atoms: O_5  and  C_6 
ROOT
HETATM    1  N   UNL     1      61.606  10.765   2.450  1.00  0.00    -0.375 N 
ATOM      2  HN  UNL     1      61.093  11.304   1.753  1.00  0.00     0.164 HD
HETATM    3  C   UNL     1      62.608  10.593   4.651  1.00  0.00    -0.019 A 
HETATM    4  C   UNL     1      61.919  11.284   3.660  1.00  0.00     0.096 A 
HETATM    5  C   UNL     1      62.006   9.498   2.212  1.00  0.00     0.087 A 
HETATM    6  C   UNL     1      63.008   9.285   4.362  1.00  0.00     0.012 A 
HETATM    7  C   UNL     1      62.704   8.725   3.125  1.00  0.00     0.018 A 
ENDROOT
BRANCH   3   8
HETATM    8  C   UNL     1      62.921  11.231   5.970  1.00  0.00     0.204 C 
BRANCH   8   9
HETATM    9  O   UNL     1      64.327  11.339   6.154  1.00  0.00    -0.396 OA
HETATM   10  H   UNL     1      64.655  12.124   5.688  1.00  0.00     0.209 HD
ENDBRANCH   8   9
ENDBRANCH   3   8
TORSDOF 2
ENDMDL
MODEL 2
REMARK VINA RESULT:      -3.9      1.831      2.297
REMARK  2 active torsions:
REMARK  status: ('A' for Active; 'I' for Inactive)
REMARK    1  A    between atoms: C_3  and  C_6 
REMARK    2  A    between atoms: O_5  and  C_6 
ROOT
HETATM    1  N   UNL     1      64.461   7.917   4.430  1.00  0.00    -0.375 N 
ATOM      2  HN  UNL     1      65.219   7.263   4.624  1.00  0.00     0.164 HD
HETATM    3  C   UNL     1      63.266   9.960   4.954  1.00  0.00    -0.019 A 
HETATM    4  C   UNL     1      64.274   9.028   5.178  1.00  0.00     0.096 A 
HETATM    5  C   UNL     1      63.596   7.718   3.413  1.00  0.00     0.087 A 
HETATM    6  C   UNL     1      62.388   9.714   3.894  1.00  0.00     0.012 A 
HETATM    7  C   UNL     1      62.553   8.577   3.109  1.00  0.00     0.018 A 
ENDROOT
BRANCH   3   8
HETATM    8  C   UNL     1      63.117  11.170   5.825  1.00  0.00     0.204 C 
BRANCH   8   9
HETATM    9  O   UNL     1      64.351  11.491   6.454  1.00  0.00    -0.396 OA
HETATM   10  H   UNL     1      64.407  11.037   7.309  1.00  0.00     0.209 HD
ENDBRANCH   8   9
ENDBRANCH   3   8
TORSDOF 2
ENDMDL
MODEL 3
REMARK VINA RESULT:      -3.7      1.165      1.867
REMARK  2 active torsions:
REMARK  status: ('A' for Active; 'I' for Inactive)
REMARK    1  A    between atoms: C_3  and  C_6 
REMARK    2  A    between atoms: O_5  and  C_6 
ROOT
HETATM    1  N   UNL     1      62.563   8.664   2.038  1.00  0.00    -0.375 N 
ATOM      2  HN  UNL     1      62.752   7.798   1.534  1.00  0.00     0.164 HD
HETATM    3  C   UNL     1      62.614   9.953   4.091  1.00  0.00    -0.019 A 
HETATM    4  C   UNL     1      62.842   8.795   3.355  1.00  0.00     0.096 A 
HETATM    5  C   UNL     1      62.021   9.737   1.424  1.00  0.00     0.087 A 
HETATM    6  C   UNL     1      62.047  11.040   3.418  1.00  0.00     0.012 A 
HETATM    7  C   UNL     1      61.745  10.934   2.064  1.00  0.00     0.018 A 
ENDROOT
BRANCH   3   8
HETATM    8  C   UNL     1      62.948  10.027   5.550  1.00  0.00     0.204 C 
BRANCH   8   9
HETATM    9  O   UNL     1      63.915  11.041   5.792  1.00  0.00    -0.396 OA
HETATM   10  H   UNL     1      64.769  10.631   6.000  1.00  0.00     0.209 HD
ENDBRANCH   8   9
ENDBRANCH   3   8
TORSDOF 2
ENDMDL
MODEL 4
REMARK VINA RESULT:      -3.6      2.523      3.418
REMARK  2 active torsions:
REMARK  status: ('A' for Active; 'I' for Inactive)
REMARK    1  A    between atoms: C_3  and  C_6 
REMARK    2  A    between atoms: O_5  and  C_6 
ROOT
HETATM    1  N   UNL     1      62.314  11.517   4.626  1.00  0.00    -0.375 N 
ATOM      2  HN  UNL     1      62.098  12.454   4.964  1.00  0.00     0.164 HD
HETATM    3  C   UNL     1      62.205   9.839   2.879  1.00  0.00    -0.019 A 
HETATM    4  C   UNL     1      61.931  11.101   3.397  1.00  0.00     0.096 A 
HETATM    5  C   UNL     1      62.996  10.630   5.381  1.00  0.00     0.087 A 
HETATM    6  C   UNL     1      62.910   8.949   3.696  1.00  0.00     0.012 A 
HETATM    7  C   UNL     1      63.314   9.347   4.966  1.00  0.00     0.018 A 
ENDROOT
BRANCH   3   8
HETATM    8  C   UNL     1      61.750   9.445   1.507  1.00  0.00     0.204 C 
BRANCH   8   9
HETATM    9  O   UNL     1      60.376   9.078   1.521  1.00  0.00    -0.396 OA
HETATM   10  H   UNL     1      59.844   9.828   1.828  1.00  0.00     0.209 HD
ENDBRANCH   8   9
ENDBRANCH   3   8
TORSDOF 2
ENDMDL
MODEL 5
REMARK VINA RESULT:      -3.5      1.682      2.528
REMARK  2 active torsions:
REMARK  status: ('A' for Active; 'I' for Inactive)
REMARK    1  A    between atoms: C_3  and  C_6 
REMARK    2  A    between atoms: O_5  and  C_6 
ROOT
HETATM    1  N   UNL     1      62.217   9.549   2.557  1.00  0.00    -0.375 N 
ATOM      2  HN  UNL     1      61.981   9.312   1.593  1.00  0.00     0.164 HD
HETATM    3  C   UNL     1      63.171   8.929   4.697  1.00  0.00    -0.019 A 
HETATM    4  C   UNL     1      62.818   8.659   3.379  1.00  0.00     0.096 A 
HETATM    5  C   UNL     1      61.946  10.766   3.074  1.00  0.00     0.087 A 
HETATM    6  C   UNL     1      62.869  10.199   5.196  1.00  0.00     0.012 A 
HETATM    7  C   UNL     1      62.247  11.135   4.375  1.00  0.00     0.018 A 
ENDROOT
BRANCH   3   8
HETATM    8  C   UNL     1      63.836   7.893   5.552  1.00  0.00     0.204 C 
BRANCH   8   9
HETATM    9  O   UNL     1      63.143   7.740   6.784  1.00  0.00    -0.396 OA
HETATM   10  H   UNL     1      62.196   7.622   6.611  1.00  0.00     0.209 HD
ENDBRANCH   8   9
ENDBRANCH   3   8
TORSDOF 2
ENDMDL
MODEL 6
REMARK VINA RESULT:      -3.5      2.644      3.783
REMARK  2 active torsions:
REMARK  status: ('A' for Active; 'I' for Inactive)
REMARK    1  A    between atoms: C_3  and  C_6 
REMARK    2  A    between atoms: O_5  and  C_6 
ROOT
HETATM    1  N   UNL     1      63.388   9.588   5.487  1.00  0.00    -0.375 N 
ATOM      2  HN  UNL     1      63.919   9.136   6.230  1.00  0.00     0.164 HD
HETATM    3  C   UNL     1      62.335   9.496   3.305  1.00  0.00    -0.019 A 
HETATM    4  C   UNL     1      63.064   8.934   4.348  1.00  0.00     0.096 A 
HETATM    5  C   UNL     1      62.972  10.868   5.590  1.00  0.00     0.087 A 
HETATM    6  C   UNL     1      61.927  10.826   3.450  1.00  0.00     0.012 A 
HETATM    7  C   UNL     1      62.249  11.525   4.609  1.00  0.00     0.018 A 
ENDROOT
BRANCH   3   8
HETATM    8  C   UNL     1      62.012   8.712   2.070  1.00  0.00     0.204 C 
BRANCH   8   9
HETATM    9  O   UNL     1      60.730   9.070   1.570  1.00  0.00    -0.396 OA
HETATM   10  H   UNL     1      60.809   9.347   0.644  1.00  0.00     0.209 HD
ENDBRANCH   8   9
ENDBRANCH   3   8
TORSDOF 2
ENDMDL
MODEL 7
REMARK VINA RESULT:      -3.5      2.303      2.978
REMARK  2 active torsions:
REMARK  status: ('A' for Active; 'I' for Inactive)
REMARK    1  A    between atoms: C_3  and  C_6 
REMARK    2  A    between atoms: O_5  and  C_6 
ROOT
HETATM    1  N   UNL     1      64.360   8.951   5.671  1.00  0.00    -0.375 N 
ATOM      2  HN  UNL     1      64.848   9.162   6.541  1.00  0.00     0.164 HD
HETATM    3  C   UNL     1      62.776   9.578   3.946  1.00  0.00    -0.019 A 
HETATM    4  C   UNL     1      63.464   9.810   5.133  1.00  0.00     0.096 A 
HETATM    5  C   UNL     1      64.576   7.800   4.999  1.00  0.00     0.087 A 
HETATM    6  C   UNL     1      63.025   8.373   3.284  1.00  0.00     0.012 A 
HETATM    7  C   UNL     1      63.939   7.468   3.815  1.00  0.00     0.018 A 
ENDROOT
BRANCH   3   8
HETATM    8  C   UNL     1      61.795  10.575   3.408  1.00  0.00     0.204 C 
BRANCH   8   9
HETATM    9  O   UNL     1      62.008  11.854   3.993  1.00  0.00    -0.396 OA
HETATM   10  H   UNL     1      61.206  12.133   4.460  1.00  0.00     0.209 HD
ENDBRANCH   8   9
ENDBRANCH   3   8
TORSDOF 2
ENDMDL
MODEL 8
REMARK VINA RESULT:      -3.4     12.251     12.802
REMARK  2 active torsions:
REMARK  status: ('A' for Active; 'I' for Inactive)
REMARK    1  A    between atoms: C_3  and  C_6 
REMARK    2  A    between atoms: O_5  and  C_6 
ROOT
HETATM    1  N   UNL     1      57.079   1.873  14.062  1.00  0.00    -0.375 N 
ATOM      2  HN  UNL     1      56.263   1.837  14.673  1.00  0.00     0.164 HD
HETATM    3  C   UNL     1      58.087   2.465  11.939  1.00  0.00    -0.019 A 
HETATM    4  C   UNL     1      57.007   2.383  12.812  1.00  0.00     0.096 A 
HETATM    5  C   UNL     1      58.284   1.413  14.462  1.00  0.00     0.087 A 
HETATM    6  C   UNL     1      59.316   1.974  12.389  1.00  0.00     0.012 A 
HETATM    7  C   UNL     1      59.420   1.439  13.670  1.00  0.00     0.018 A 
ENDROOT
BRANCH   3   8
HETATM    8  C   UNL     1      57.935   3.043  10.564  1.00  0.00     0.204 C 
BRANCH   8   9
HETATM    9  O   UNL     1      58.586   4.303  10.475  1.00  0.00    -0.396 OA
HETATM   10  H   UNL     1      59.546   4.169  10.444  1.00  0.00     0.209 HD
ENDBRANCH   8   9
ENDBRANCH   3   8
TORSDOF 2
ENDMDL
MODEL 9
REMARK VINA RESULT:      -3.2      6.573      7.358
REMARK  2 active torsions:
REMARK  status: ('A' for Active; 'I' for Inactive)
REMARK    1  A    between atoms: C_3  and  C_6 
REMARK    2  A    between atoms: O_5  and  C_6 
ROOT
HETATM    1  N   UNL     1      66.261   5.157   8.847  1.00  0.00    -0.375 N 
ATOM      2  HN  UNL     1      65.687   4.982   9.672  1.00  0.00     0.164 HD
HETATM    3  C   UNL     1      66.889   6.585   6.992  1.00  0.00    -0.019 A 
HETATM    4  C   UNL     1      66.129   6.289   8.118  1.00  0.00     0.096 A 
HETATM    5  C   UNL     1      67.190   4.271   8.429  1.00  0.00     0.087 A 
HETATM    6  C   UNL     1      67.837   5.639   6.590  1.00  0.00     0.012 A 
HETATM    7  C   UNL     1      67.993   4.463   7.317  1.00  0.00     0.018 A 
ENDROOT
BRANCH   3   8
HETATM    8  C   UNL     1      66.689   7.860   6.231  1.00  0.00     0.204 C 
BRANCH   8   9
HETATM    9  O   UNL     1      66.875   8.985   7.079  1.00  0.00    -0.396 OA
HETATM   10  H   UNL     1      66.788   9.800   6.560  1.00  0.00     0.209 HD
ENDBRANCH   8   9
ENDBRANCH   3   8
TORSDOF 2
ENDMDL
