MODEL 1
REMARK VINA RESULT:      -4.2      0.000      0.000
REMARK  2 active torsions:
REMARK  status: ('A' for Active; 'I' for Inactive)
REMARK    1  A    between atoms: CA_3  and  C_6 
REMARK    2  A    between atoms: O_4  and  C_6 
ROOT
ATOM      1  N   LYS A   1      64.240   9.193   5.422  1.00  0.00    -0.367 N 
ATOM      2  HN  LYS A   1      64.858   9.382   6.212  1.00  0.00     0.165 HD
ATOM      3  CA  LYS A   1      63.236  10.049   5.083  1.00  0.00     0.032 A 
ATOM      4  CE  LYS A   1      64.383   8.082   4.665  1.00  0.00     0.088 A 
ATOM      5  CB  LYS A   1      62.379   9.818   4.012  1.00  0.00     0.027 A 
ATOM      6  CD  LYS A   1      63.576   7.779   3.582  1.00  0.00     0.017 A 
ATOM      7  CG  LYS A   1      62.556   8.664   3.251  1.00  0.00     0.003 A 
ENDROOT
BRANCH   3   8
ATOM      8  C   LYS A   1      63.081  11.295   5.926  1.00  0.00     0.220 C 
BRANCH   8   9
ATOM      9  O   LYS A   1      64.320  11.672   6.525  1.00  0.00    -0.395 OA
ATOM     10  H   LYS A   1      64.154  12.049   7.403  1.00  0.00     0.209 HD
ENDBRANCH   8   9
ENDBRANCH   3   8
TORSDOF 2
ENDMDL
MODEL 2
REMARK VINA RESULT:      -4.1      1.661      2.333
REMARK  2 active torsions:
REMARK  status: ('A' for Active; 'I' for Inactive)
REMARK    1  A    between atoms: CA_3  and  C_6 
REMARK    2  A    between atoms: O_4  and  C_6 
ROOT
ATOM      1  N   LYS A   1      62.025  11.494   3.660  1.00  0.00    -0.367 N 
ATOM      2  HN  LYS A   1      61.802  12.466   3.880  1.00  0.00     0.165 HD
ATOM      3  CA  LYS A   1      62.607  10.673   4.578  1.00  0.00     0.032 A 
ATOM      4  CE  LYS A   1      61.756  10.966   2.446  1.00  0.00     0.088 A 
ATOM      5  CB  LYS A   1      62.921   9.345   4.307  1.00  0.00     0.027 A 
ATOM      6  CD  LYS A   1      62.034   9.656   2.096  1.00  0.00     0.017 A 
ATOM      7  CG  LYS A   1      62.628   8.832   3.046  1.00  0.00     0.003 A 
ENDROOT
BRANCH   3   8
ATOM      8  C   LYS A   1      62.903  11.262   5.939  1.00  0.00     0.220 C 
BRANCH   8   9
ATOM      9  O   LYS A   1      64.308  11.306   6.189  1.00  0.00    -0.395 OA
ATOM     10  H   LYS A   1      64.666  10.405   6.179  1.00  0.00     0.209 HD
ENDBRANCH   8   9
ENDBRANCH   3   8
TORSDOF 2
ENDMDL
MODEL 3
REMARK VINA RESULT:      -4.1      1.564      2.122
REMARK  2 active torsions:
REMARK  status: ('A' for Active; 'I' for Inactive)
REMARK    1  A    between atoms: CA_3  and  C_6 
REMARK    2  A    between atoms: O_4  and  C_6 
ROOT
ATOM      1  N   LYS A   1      62.726   9.329   3.988  1.00  0.00    -0.367 N 
ATOM      2  HN  LYS A   1      63.094   8.703   4.706  1.00  0.00     0.165 HD
ATOM      3  CA  LYS A   1      62.457  10.637   4.256  1.00  0.00     0.032 A 
ATOM      4  CE  LYS A   1      62.485   8.896   2.731  1.00  0.00     0.088 A 
ATOM      5  CB  LYS A   1      61.956  11.513   3.297  1.00  0.00     0.027 A 
ATOM      6  CD  LYS A   1      61.991   9.702   1.719  1.00  0.00     0.017 A 
ATOM      7  CG  LYS A   1      61.722  11.034   2.011  1.00  0.00     0.003 A 
ENDROOT
BRANCH   3   8
ATOM      8  C   LYS A   1      62.732  11.123   5.661  1.00  0.00     0.220 C 
BRANCH   8   9
ATOM      9  O   LYS A   1      64.129  11.101   5.952  1.00  0.00    -0.395 OA
ATOM     10  H   LYS A   1      64.341  11.814   6.573  1.00  0.00     0.209 HD
ENDBRANCH   8   9
ENDBRANCH   3   8
TORSDOF 2
ENDMDL
MODEL 4
REMARK VINA RESULT:      -3.7      1.977      2.335
REMARK  2 active torsions:
REMARK  status: ('A' for Active; 'I' for Inactive)
REMARK    1  A    between atoms: CA_3  and  C_6 
REMARK    2  A    between atoms: O_4  and  C_6 
ROOT
ATOM      1  N   LYS A   1      62.729   8.641   3.723  1.00  0.00    -0.367 N 
ATOM      2  HN  LYS A   1      63.029   8.321   4.644  1.00  0.00     0.165 HD
ATOM      3  CA  LYS A   1      62.343   9.930   3.510  1.00  0.00     0.032 A 
ATOM      4  CE  LYS A   1      62.696   7.806   2.661  1.00  0.00     0.088 A 
ATOM      5  CB  LYS A   1      61.929  10.396   2.266  1.00  0.00     0.027 A 
ATOM      6  CD  LYS A   1      62.300   8.190   1.391  1.00  0.00     0.017 A 
ATOM      7  CG  LYS A   1      61.909   9.509   1.192  1.00  0.00     0.003 A 
ENDROOT
BRANCH   3   8
ATOM      8  C   LYS A   1      62.385  10.866   4.697  1.00  0.00     0.220 C 
BRANCH   8   9
ATOM      9  O   LYS A   1      62.091  12.208   4.308  1.00  0.00    -0.395 OA
ATOM     10  H   LYS A   1      62.548  12.411   3.478  1.00  0.00     0.209 HD
ENDBRANCH   8   9
ENDBRANCH   3   8
TORSDOF 2
ENDMDL
MODEL 5
REMARK VINA RESULT:      -3.7     12.921     13.095
REMARK  2 active torsions:
REMARK  status: ('A' for Active; 'I' for Inactive)
REMARK    1  A    between atoms: CA_3  and  C_6 
REMARK    2  A    between atoms: O_4  and  C_6 
ROOT
ATOM      1  N   LYS A   1      57.440   1.760  14.506  1.00  0.00    -0.367 N 
ATOM      2  HN  LYS A   1      56.990   1.596  15.406  1.00  0.00     0.165 HD
ATOM      3  CA  LYS A   1      56.755   2.289  13.454  1.00  0.00     0.032 A 
ATOM      4  CE  LYS A   1      58.743   1.462  14.304  1.00  0.00     0.088 A 
ATOM      5  CB  LYS A   1      57.343   2.524  12.215  1.00  0.00     0.027 A 
ATOM      6  CD  LYS A   1      59.404   1.667  13.105  1.00  0.00     0.017 A 
ATOM      7  CG  LYS A   1      58.688   2.208  12.042  1.00  0.00     0.003 A 
ENDROOT
BRANCH   3   8
ATOM      8  C   LYS A   1      55.299   2.627  13.681  1.00  0.00     0.220 C 
BRANCH   8   9
ATOM      9  O   LYS A   1      55.109   3.279  14.937  1.00  0.00    -0.395 OA
ATOM     10  H   LYS A   1      54.831   2.628  15.600  1.00  0.00     0.209 HD
ENDBRANCH   8   9
ENDBRANCH   3   8
TORSDOF 2
ENDMDL
MODEL 6
REMARK VINA RESULT:      -3.4      2.865      4.092
REMARK  2 active torsions:
REMARK  status: ('A' for Active; 'I' for Inactive)
REMARK    1  A    between atoms: CA_3  and  C_6 
REMARK    2  A    between atoms: O_4  and  C_6 
ROOT
ATOM      1  N   LYS A   1      65.802   7.649   6.909  1.00  0.00    -0.367 N 
ATOM      2  HN  LYS A   1      65.148   8.103   7.547  1.00  0.00     0.165 HD
ATOM      3  CA  LYS A   1      65.709   7.814   5.560  1.00  0.00     0.032 A 
ATOM      4  CE  LYS A   1      66.799   6.858   7.364  1.00  0.00     0.088 A 
ATOM      5  CB  LYS A   1      66.586   7.208   4.665  1.00  0.00     0.027 A 
ATOM      6  CD  LYS A   1      67.714   6.222   6.543  1.00  0.00     0.017 A 
ATOM      7  CG  LYS A   1      67.604   6.402   5.169  1.00  0.00     0.003 A 
ENDROOT
BRANCH   3   8
ATOM      8  C   LYS A   1      64.597   8.703   5.050  1.00  0.00     0.220 C 
BRANCH   8   9
ATOM      9  O   LYS A   1      64.546   9.933   5.773  1.00  0.00    -0.395 OA
ATOM     10  H   LYS A   1      63.623  10.212   5.871  1.00  0.00     0.209 HD
ENDBRANCH   8   9
ENDBRANCH   3   8
TORSDOF 2
ENDMDL
MODEL 7
REMARK VINA RESULT:      -3.3      2.945      4.023
REMARK  2 active torsions:
REMARK  status: ('A' for Active; 'I' for Inactive)
REMARK    1  A    between atoms: CA_3  and  C_6 
REMARK    2  A    between atoms: O_4  and  C_6 
ROOT
ATOM      1  N   LYS A   1      62.478   9.190   3.809  1.00  0.00    -0.367 N 
ATOM      2  HN  LYS A   1      62.726   8.460   4.478  1.00  0.00     0.165 HD
ATOM      3  CA  LYS A   1      62.385   8.930   2.475  1.00  0.00     0.032 A 
ATOM      4  CE  LYS A   1      62.226  10.457   4.208  1.00  0.00     0.088 A 
ATOM      5  CB  LYS A   1      62.048   9.905   1.541  1.00  0.00     0.027 A 
ATOM      6  CD  LYS A   1      61.882  11.483   3.345  1.00  0.00     0.017 A 
ATOM      7  CG  LYS A   1      61.792  11.199   1.987  1.00  0.00     0.003 A 
ENDROOT
BRANCH   3   8
ATOM      8  C   LYS A   1      62.660   7.512   2.029  1.00  0.00     0.220 C 
BRANCH   8   9
ATOM      9  O   LYS A   1      62.163   6.566   2.976  1.00  0.00    -0.395 OA
ATOM     10  H   LYS A   1      62.870   6.328   3.596  1.00  0.00     0.209 HD
ENDBRANCH   8   9
ENDBRANCH   3   8
TORSDOF 2
ENDMDL
MODEL 8
REMARK VINA RESULT:      -3.3     12.866     13.112
REMARK  2 active torsions:
REMARK  status: ('A' for Active; 'I' for Inactive)
REMARK    1  A    between atoms: CA_3  and  C_6 
REMARK    2  A    between atoms: O_4  and  C_6 
ROOT
ATOM      1  N   LYS A   1      57.140   2.644  12.218  1.00  0.00    -0.367 N 
ATOM      2  HN  LYS A   1      56.490   3.139  11.607  1.00  0.00     0.165 HD
ATOM      3  CA  LYS A   1      56.745   2.148  13.424  1.00  0.00     0.032 A 
ATOM      4  CE  LYS A   1      58.431   2.452  11.868  1.00  0.00     0.088 A 
ATOM      5  CB  LYS A   1      57.609   1.468  14.277  1.00  0.00     0.027 A 
ATOM      6  CD  LYS A   1      59.353   1.785  12.656  1.00  0.00     0.017 A 
ATOM      7  CG  LYS A   1      58.932   1.285  13.883  1.00  0.00     0.003 A 
ENDROOT
BRANCH   3   8
ATOM      8  C   LYS A   1      55.299   2.358  13.814  1.00  0.00     0.220 C 
BRANCH   8   9
ATOM      9  O   LYS A   1      55.189   3.227  14.941  1.00  0.00    -0.395 OA
ATOM     10  H   LYS A   1      55.226   2.705  15.757  1.00  0.00     0.209 HD
ENDBRANCH   8   9
ENDBRANCH   3   8
TORSDOF 2
ENDMDL
MODEL 9
REMARK VINA RESULT:      -3.2      2.911      3.731
REMARK  2 active torsions:
REMARK  status: ('A' for Active; 'I' for Inactive)
REMARK    1  A    between atoms: CA_3  and  C_6 
REMARK    2  A    between atoms: O_4  and  C_6 
ROOT
ATOM      1  N   LYS A   1      62.821   8.731   3.353  1.00  0.00    -0.367 N 
ATOM      2  HN  LYS A   1      63.008   7.820   2.932  1.00  0.00     0.165 HD
ATOM      3  CA  LYS A   1      62.163   9.708   2.668  1.00  0.00     0.032 A 
ATOM      4  CE  LYS A   1      63.215   9.021   4.613  1.00  0.00     0.088 A 
ATOM      5  CB  LYS A   1      61.893  10.959   3.216  1.00  0.00     0.027 A 
ATOM      6  CD  LYS A   1      62.984  10.238   5.231  1.00  0.00     0.017 A 
ATOM      7  CG  LYS A   1      62.311  11.223   4.518  1.00  0.00     0.003 A 
ENDROOT
BRANCH   3   8
ATOM      8  C   LYS A   1      61.718   9.381   1.261  1.00  0.00     0.220 C 
BRANCH   8   9
ATOM      9  O   LYS A   1      62.417   8.248   0.746  1.00  0.00    -0.395 OA
ATOM     10  H   LYS A   1      61.935   7.888  -0.013  1.00  0.00     0.209 HD
ENDBRANCH   8   9
ENDBRANCH   3   8
TORSDOF 2
ENDMDL
