MODEL 1
REMARK VINA RESULT:      -4.4      0.000      0.000
REMARK  1 active torsions:
REMARK  status: ('A' for Active; 'I' for Inactive)
REMARK    1  A    between atoms: C_1  and  C_2 
ROOT
HETATM    1  C   UNL     1      62.842   9.352   4.082  1.00  0.00     0.056 A 
HETATM    2  N   UNL     1      61.622  10.996   2.796  1.00  0.00    -0.374 N 
ATOM      3  HN  UNL     1      61.164  11.905   2.730  1.00  0.00     0.164 HD
HETATM    4  C   UNL     1      62.185  10.568   3.952  1.00  0.00     0.105 A 
HETATM    5  C   UNL     1      62.887   8.503   2.973  1.00  0.00     0.021 A 
HETATM    6  C   UNL     1      61.695  10.163   1.735  1.00  0.00     0.087 A 
HETATM    7  C   UNL     1      62.308   8.919   1.776  1.00  0.00     0.018 A 
ENDROOT
BRANCH   1   8
HETATM    8  C   UNL     1      63.423   9.003   5.391  1.00  0.00     0.210 C 
HETATM    9  O   UNL     1      62.839   8.318   6.211  1.00  0.00    -0.644 OA
HETATM   10  O   UNL     1      64.638   9.546   5.610  1.00  0.00    -0.644 OA
ENDBRANCH   1   8
TORSDOF 1
ENDMDL
MODEL 2
REMARK VINA RESULT:      -4.3      1.942      2.447
REMARK  1 active torsions:
REMARK  status: ('A' for Active; 'I' for Inactive)
REMARK    1  A    between atoms: C_1  and  C_2 
ROOT
HETATM    1  C   UNL     1      62.384  10.020   3.549  1.00  0.00     0.056 A 
HETATM    2  N   UNL     1      62.969   7.797   2.799  1.00  0.00    -0.374 N 
ATOM      3  HN  UNL     1      63.364   6.876   2.986  1.00  0.00     0.164 HD
HETATM    4  C   UNL     1      62.935   8.762   3.750  1.00  0.00     0.105 A 
HETATM    5  C   UNL     1      61.875  10.324   2.284  1.00  0.00     0.021 A 
HETATM    6  C   UNL     1      62.454   8.113   1.590  1.00  0.00     0.087 A 
HETATM    7  C   UNL     1      61.906   9.350   1.287  1.00  0.00     0.018 A 
ENDROOT
BRANCH   1   8
HETATM    8  C   UNL     1      62.399  10.981   4.666  1.00  0.00     0.210 C 
HETATM    9  O   UNL     1      61.919  12.098   4.584  1.00  0.00    -0.644 OA
HETATM   10  O   UNL     1      63.029  10.525   5.769  1.00  0.00    -0.644 OA
ENDBRANCH   1   8
TORSDOF 1
ENDMDL
MODEL 3
REMARK VINA RESULT:      -4.2      2.623      3.320
REMARK  1 active torsions:
REMARK  status: ('A' for Active; 'I' for Inactive)
REMARK    1  A    between atoms: C_1  and  C_2 
ROOT
HETATM    1  C   UNL     1      62.481  10.007   3.874  1.00  0.00     0.056 A 
HETATM    2  N   UNL     1      63.337   8.656   5.687  1.00  0.00    -0.374 N 
ATOM      3  HN  UNL     1      63.629   8.564   6.660  1.00  0.00     0.164 HD
HETATM    4  C   UNL     1      62.912   9.840   5.183  1.00  0.00     0.105 A 
HETATM    5  C   UNL     1      62.528   8.905   3.017  1.00  0.00     0.021 A 
HETATM    6  C   UNL     1      63.356   7.603   4.841  1.00  0.00     0.087 A 
HETATM    7  C   UNL     1      62.969   7.679   3.511  1.00  0.00     0.018 A 
ENDROOT
BRANCH   1   8
HETATM    8  C   UNL     1      62.033  11.345   3.446  1.00  0.00     0.210 C 
HETATM    9  O   UNL     1      61.904  11.656   2.276  1.00  0.00    -0.644 OA
HETATM   10  O   UNL     1      61.822  12.201   4.468  1.00  0.00    -0.644 OA
ENDBRANCH   1   8
TORSDOF 1
ENDMDL
MODEL 4
REMARK VINA RESULT:      -4.1      2.655      3.361
REMARK  1 active torsions:
REMARK  status: ('A' for Active; 'I' for Inactive)
REMARK    1  A    between atoms: C_1  and  C_2 
ROOT
HETATM    1  C   UNL     1      62.196   9.898   2.499  1.00  0.00     0.056 A 
HETATM    2  N   UNL     1      62.259   8.144   0.837  1.00  0.00    -0.374 N 
ATOM      3  HN  UNL     1      62.115   7.829  -0.122  1.00  0.00     0.164 HD
HETATM    4  C   UNL     1      61.990   9.418   1.213  1.00  0.00     0.105 A 
HETATM    5  C   UNL     1      62.663   9.009   3.470  1.00  0.00     0.021 A 
HETATM    6  C   UNL     1      62.727   7.310   1.792  1.00  0.00     0.087 A 
HETATM    7  C   UNL     1      62.939   7.692   3.108  1.00  0.00     0.018 A 
ENDROOT
BRANCH   1   8
HETATM    8  C   UNL     1      61.873  11.309   2.783  1.00  0.00     0.210 C 
HETATM    9  O   UNL     1      61.788  12.156   1.911  1.00  0.00    -0.644 OA
HETATM   10  O   UNL     1      61.723  11.579   4.096  1.00  0.00    -0.644 OA
ENDBRANCH   1   8
TORSDOF 1
ENDMDL
MODEL 5
REMARK VINA RESULT:      -4.0      2.064      2.864
REMARK  1 active torsions:
REMARK  status: ('A' for Active; 'I' for Inactive)
REMARK    1  A    between atoms: C_1  and  C_2 
ROOT
HETATM    1  C   UNL     1      63.155   9.668   4.558  1.00  0.00     0.056 A 
HETATM    2  N   UNL     1      62.803   8.005   2.839  1.00  0.00    -0.374 N 
ATOM      3  HN  UNL     1      62.300   7.679   2.014  1.00  0.00     0.164 HD
HETATM    4  C   UNL     1      62.482   9.171   3.451  1.00  0.00     0.105 A 
HETATM    5  C   UNL     1      64.193   8.904   5.099  1.00  0.00     0.021 A 
HETATM    6  C   UNL     1      63.821   7.295   3.372  1.00  0.00     0.087 A 
HETATM    7  C   UNL     1      64.535   7.697   4.491  1.00  0.00     0.018 A 
ENDROOT
BRANCH   1   8
HETATM    8  C   UNL     1      62.717  10.954   5.129  1.00  0.00     0.210 C 
HETATM    9  O   UNL     1      62.035  11.753   4.512  1.00  0.00    -0.644 OA
HETATM   10  O   UNL     1      63.175  11.179   6.378  1.00  0.00    -0.644 OA
ENDBRANCH   1   8
TORSDOF 1
ENDMDL
MODEL 6
REMARK VINA RESULT:      -3.8      5.590      6.901
REMARK  1 active torsions:
REMARK  status: ('A' for Active; 'I' for Inactive)
REMARK    1  A    between atoms: C_1  and  C_2 
ROOT
HETATM    1  C   UNL     1      66.935   6.788   6.856  1.00  0.00     0.056 A 
HETATM    2  N   UNL     1      66.209   5.435   8.724  1.00  0.00    -0.374 N 
ATOM      3  HN  UNL     1      65.610   5.301   9.538  1.00  0.00     0.164 HD
HETATM    4  C   UNL     1      66.160   6.572   7.987  1.00  0.00     0.105 A 
HETATM    5  C   UNL     1      67.847   5.798   6.481  1.00  0.00     0.021 A 
HETATM    6  C   UNL     1      67.087   4.487   8.328  1.00  0.00     0.087 A 
HETATM    7  C   UNL     1      67.920   4.624   7.227  1.00  0.00     0.018 A 
ENDROOT
BRANCH   1   8
HETATM    8  C   UNL     1      66.784   8.064   6.134  1.00  0.00     0.210 C 
HETATM    9  O   UNL     1      65.960   8.906   6.443  1.00  0.00    -0.644 OA
HETATM   10  O   UNL     1      67.614   8.192   5.077  1.00  0.00    -0.644 OA
ENDBRANCH   1   8
TORSDOF 1
ENDMDL
MODEL 7
REMARK VINA RESULT:      -3.7      2.687      3.562
REMARK  1 active torsions:
REMARK  status: ('A' for Active; 'I' for Inactive)
REMARK    1  A    between atoms: C_1  and  C_2 
ROOT
HETATM    1  C   UNL     1      62.541   9.413   3.181  1.00  0.00     0.056 A 
HETATM    2  N   UNL     1      63.505   9.583   5.391  1.00  0.00    -0.374 N 
ATOM      3  HN  UNL     1      64.065   9.185   6.144  1.00  0.00     0.164 HD
HETATM    4  C   UNL     1      63.273   8.901   4.243  1.00  0.00     0.105 A 
HETATM    5  C   UNL     1      61.975  10.683   3.319  1.00  0.00     0.021 A 
HETATM    6  C   UNL     1      62.961  10.816   5.490  1.00  0.00     0.087 A 
HETATM    7  C   UNL     1      62.195  11.400   4.493  1.00  0.00     0.018 A 
ENDROOT
BRANCH   1   8
HETATM    8  C   UNL     1      62.365   8.576   1.980  1.00  0.00     0.210 C 
HETATM    9  O   UNL     1      61.688   8.920   1.027  1.00  0.00    -0.644 OA
HETATM   10  O   UNL     1      62.987   7.380   2.054  1.00  0.00    -0.644 OA
ENDBRANCH   1   8
TORSDOF 1
ENDMDL
MODEL 8
REMARK VINA RESULT:      -3.5      4.339      5.865
REMARK  1 active torsions:
REMARK  status: ('A' for Active; 'I' for Inactive)
REMARK    1  A    between atoms: C_1  and  C_2 
ROOT
HETATM    1  C   UNL     1      65.793   7.597   6.126  1.00  0.00     0.056 A 
HETATM    2  N   UNL     1      68.052   6.879   6.599  1.00  0.00    -0.374 N 
ATOM      3  HN  UNL     1      69.056   6.949   6.432  1.00  0.00     0.164 HD
HETATM    4  C   UNL     1      67.164   7.638   5.913  1.00  0.00     0.105 A 
HETATM    5  C   UNL     1      65.297   6.692   7.068  1.00  0.00     0.021 A 
HETATM    6  C   UNL     1      67.547   6.026   7.517  1.00  0.00     0.087 A 
HETATM    7  C   UNL     1      66.191   5.896   7.781  1.00  0.00     0.018 A 
ENDROOT
BRANCH   1   8
HETATM    8  C   UNL     1      64.930   8.480   5.320  1.00  0.00     0.210 C 
HETATM    9  O   UNL     1      64.678   9.628   5.639  1.00  0.00    -0.644 OA
HETATM   10  O   UNL     1      64.413   7.884   4.225  1.00  0.00    -0.644 OA
ENDBRANCH   1   8
TORSDOF 1
ENDMDL
MODEL 9
REMARK VINA RESULT:      -3.5      2.366      3.010
REMARK  1 active torsions:
REMARK  status: ('A' for Active; 'I' for Inactive)
REMARK    1  A    between atoms: C_1  and  C_2 
ROOT
HETATM    1  C   UNL     1      63.411   8.485   3.897  1.00  0.00     0.056 A 
HETATM    2  N   UNL     1      63.659  10.143   5.638  1.00  0.00    -0.374 N 
ATOM      3  HN  UNL     1      64.124  10.476   6.482  1.00  0.00     0.164 HD
HETATM    4  C   UNL     1      63.996   8.964   5.060  1.00  0.00     0.105 A 
HETATM    5  C   UNL     1      62.389   9.236   3.312  1.00  0.00     0.021 A 
HETATM    6  C   UNL     1      62.680  10.858   5.042  1.00  0.00     0.087 A 
HETATM    7  C   UNL     1      62.020  10.449   3.893  1.00  0.00     0.018 A 
ENDROOT
BRANCH   1   8
HETATM    8  C   UNL     1      63.870   7.190   3.360  1.00  0.00     0.210 C 
HETATM    9  O   UNL     1      64.678   6.485   3.938  1.00  0.00    -0.644 OA
HETATM   10  O   UNL     1      63.345   6.884   2.156  1.00  0.00    -0.644 OA
ENDBRANCH   1   8
TORSDOF 1
ENDMDL
