MODEL 1
REMARK VINA RESULT:      -5.6      0.000      0.000
REMARK  1 active torsions:
REMARK  status: ('A' for Active; 'I' for Inactive)
REMARK    1  A    between atoms: CA_3  and  C_4 
ROOT
HETATM    1  N   UNL     1      63.285   8.967   5.980  1.00  0.00    -0.360 N 
ATOM      2  HN  UNL     1      63.463   9.120   6.973  1.00  0.00     0.165 HD
HETATM    3  CA  UNL     1      63.543   7.775   5.385  1.00  0.00     0.110 A 
HETATM    4  C   UNL     1      63.309   7.524   4.037  1.00  0.00     0.049 A 
HETATM    5  C   UNL     1      62.784   8.548   3.238  1.00  0.00    -0.022 A 
HETATM    6  C   UNL     1      62.779   9.941   5.190  1.00  0.00     0.100 A 
HETATM    7  C   UNL     1      62.511   9.799   3.826  1.00  0.00    -0.011 A 
HETATM    8  C   UNL     1      62.522   8.360   1.872  1.00  0.00     0.012 A 
HETATM    9  C   UNL     1      61.990  10.840   3.035  1.00  0.00     0.013 A 
HETATM   10  C   UNL     1      61.999   9.398   1.097  1.00  0.00     0.001 A 
HETATM   11  C   UNL     1      61.736  10.637   1.678  1.00  0.00     0.001 A 
ENDROOT
BRANCH   3  12
HETATM   12  C   UNL     1      64.109   6.675   6.221  1.00  0.00     0.226 C 
HETATM   13  O   UNL     1      64.135   5.493   5.913  1.00  0.00    -0.643 OA
HETATM   14  OXT UNL     1      64.620   7.093   7.396  1.00  0.00    -0.643 OA
ENDBRANCH   3  12
TORSDOF 1
ENDMDL
MODEL 2
REMARK VINA RESULT:      -5.3      1.179      2.061
REMARK  1 active torsions:
REMARK  status: ('A' for Active; 'I' for Inactive)
REMARK    1  A    between atoms: CA_3  and  C_4 
ROOT
HETATM    1  N   UNL     1      63.192   6.844   3.593  1.00  0.00    -0.360 N 
ATOM      2  HN  UNL     1      63.426   5.866   3.418  1.00  0.00     0.165 HD
HETATM    3  CA  UNL     1      63.249   7.378   4.839  1.00  0.00     0.110 A 
HETATM    4  C   UNL     1      62.944   8.706   5.119  1.00  0.00     0.049 A 
HETATM    5  C   UNL     1      62.553   9.547   4.069  1.00  0.00    -0.022 A 
HETATM    6  C   UNL     1      62.812   7.674   2.595  1.00  0.00     0.100 A 
HETATM    7  C   UNL     1      62.480   9.021   2.765  1.00  0.00    -0.011 A 
HETATM    8  C   UNL     1      62.235  10.898   4.282  1.00  0.00     0.012 A 
HETATM    9  C   UNL     1      62.082   9.851   1.701  1.00  0.00     0.013 A 
HETATM   10  C   UNL     1      61.847  11.715   3.218  1.00  0.00     0.001 A 
HETATM   11  C   UNL     1      61.768  11.191   1.929  1.00  0.00     0.001 A 
ENDROOT
BRANCH   3  12
HETATM   12  C   UNL     1      63.657   6.493   5.971  1.00  0.00     0.226 C 
HETATM   13  O   UNL     1      63.583   5.274   5.979  1.00  0.00    -0.643 OA
HETATM   14  OXT UNL     1      64.141   7.162   7.036  1.00  0.00    -0.643 OA
ENDBRANCH   3  12
TORSDOF 1
ENDMDL
MODEL 3
REMARK VINA RESULT:      -5.2      2.537      3.842
REMARK  1 active torsions:
REMARK  status: ('A' for Active; 'I' for Inactive)
REMARK    1  A    between atoms: CA_3  and  C_4 
ROOT
HETATM    1  N   UNL     1      64.368   9.153   5.533  1.00  0.00    -0.360 N 
ATOM      2  HN  UNL     1      64.760   9.583   6.371  1.00  0.00     0.165 HD
HETATM    3  CA  UNL     1      63.356   9.735   4.840  1.00  0.00     0.110 A 
HETATM    4  C   UNL     1      62.798   9.185   3.691  1.00  0.00     0.049 A 
HETATM    5  C   UNL     1      63.293   7.965   3.214  1.00  0.00    -0.022 A 
HETATM    6  C   UNL     1      64.830   7.975   5.054  1.00  0.00     0.100 A 
HETATM    7  C   UNL     1      64.339   7.333   3.914  1.00  0.00    -0.011 A 
HETATM    8  C   UNL     1      62.775   7.357   2.058  1.00  0.00     0.012 A 
HETATM    9  C   UNL     1      64.843   6.103   3.451  1.00  0.00     0.013 A 
HETATM   10  C   UNL     1      63.286   6.139   1.605  1.00  0.00     0.001 A 
HETATM   11  C   UNL     1      64.317   5.512   2.302  1.00  0.00     0.001 A 
ENDROOT
BRANCH   3  12
HETATM   12  C   UNL     1      62.812  11.033   5.339  1.00  0.00     0.226 C 
HETATM   13  O   UNL     1      62.038  11.757   4.732  1.00  0.00    -0.643 OA
HETATM   14  OXT UNL     1      63.249  11.368   6.569  1.00  0.00    -0.643 OA
ENDBRANCH   3  12
TORSDOF 1
ENDMDL
MODEL 4
REMARK VINA RESULT:      -5.0      3.207      4.925
REMARK  1 active torsions:
REMARK  status: ('A' for Active; 'I' for Inactive)
REMARK    1  A    between atoms: CA_3  and  C_4 
ROOT
HETATM    1  N   UNL     1      60.819   9.171   3.205  1.00  0.00    -0.360 N 
ATOM      2  HN  UNL     1      60.139   9.572   2.557  1.00  0.00     0.165 HD
HETATM    3  CA  UNL     1      61.811   9.918   3.750  1.00  0.00     0.110 A 
HETATM    4  C   UNL     1      62.753   9.412   4.640  1.00  0.00     0.049 A 
HETATM    5  C   UNL     1      62.688   8.060   4.997  1.00  0.00    -0.022 A 
HETATM    6  C   UNL     1      60.776   7.868   3.564  1.00  0.00     0.100 A 
HETATM    7  C   UNL     1      61.672   7.256   4.444  1.00  0.00    -0.011 A 
HETATM    8  C   UNL     1      63.606   7.486   5.892  1.00  0.00     0.012 A 
HETATM    9  C   UNL     1      61.598   5.894   4.788  1.00  0.00     0.013 A 
HETATM   10  C   UNL     1      63.519   6.134   6.232  1.00  0.00     0.001 A 
HETATM   11  C   UNL     1      62.518   5.338   5.678  1.00  0.00     0.001 A 
ENDROOT
BRANCH   3  12
HETATM   12  C   UNL     1      61.899  11.361   3.373  1.00  0.00     0.226 C 
HETATM   13  O   UNL     1      62.009  11.790   2.235  1.00  0.00    -0.643 OA
HETATM   14  OXT UNL     1      61.841  12.202   4.425  1.00  0.00    -0.643 OA
ENDBRANCH   3  12
TORSDOF 1
ENDMDL
MODEL 5
REMARK VINA RESULT:      -5.0      2.205      3.222
REMARK  1 active torsions:
REMARK  status: ('A' for Active; 'I' for Inactive)
REMARK    1  A    between atoms: CA_3  and  C_4 
ROOT
HETATM    1  N   UNL     1      62.176  10.918   3.445  1.00  0.00    -0.360 N 
ATOM      2  HN  UNL     1      61.978  11.878   3.729  1.00  0.00     0.165 HD
HETATM    3  CA  UNL     1      62.907  10.080   4.223  1.00  0.00     0.110 A 
HETATM    4  C   UNL     1      63.195   8.765   3.875  1.00  0.00     0.049 A 
HETATM    5  C   UNL     1      62.716   8.266   2.658  1.00  0.00    -0.022 A 
HETATM    6  C   UNL     1      61.725  10.416   2.273  1.00  0.00     0.100 A 
HETATM    7  C   UNL     1      61.959   9.113   1.824  1.00  0.00    -0.011 A 
HETATM    8  C   UNL     1      62.969   6.947   2.247  1.00  0.00     0.012 A 
HETATM    9  C   UNL     1      61.477   8.629   0.594  1.00  0.00     0.013 A 
HETATM   10  C   UNL     1      62.480   6.475   1.027  1.00  0.00     0.001 A 
HETATM   11  C   UNL     1      61.737   7.316   0.200  1.00  0.00     0.001 A 
ENDROOT
BRANCH   3  12
HETATM   12  C   UNL     1      63.431  10.599   5.522  1.00  0.00     0.226 C 
HETATM   13  O   UNL     1      62.890  11.445   6.217  1.00  0.00    -0.643 OA
HETATM   14  OXT UNL     1      64.598  10.039   5.899  1.00  0.00    -0.643 OA
ENDBRANCH   3  12
TORSDOF 1
ENDMDL
MODEL 6
REMARK VINA RESULT:      -4.9      2.922      4.848
REMARK  1 active torsions:
REMARK  status: ('A' for Active; 'I' for Inactive)
REMARK    1  A    between atoms: CA_3  and  C_4 
ROOT
HETATM    1  N   UNL     1      62.925   8.440   3.573  1.00  0.00    -0.360 N 
ATOM      2  HN  UNL     1      62.038   8.719   3.154  1.00  0.00     0.165 HD
HETATM    3  CA  UNL     1      63.498   9.157   4.572  1.00  0.00     0.110 A 
HETATM    4  C   UNL     1      64.703   8.809   5.173  1.00  0.00     0.049 A 
HETATM    5  C   UNL     1      65.374   7.662   4.731  1.00  0.00    -0.022 A 
HETATM    6  C   UNL     1      63.591   7.336   3.162  1.00  0.00     0.100 A 
HETATM    7  C   UNL     1      64.807   6.898   3.692  1.00  0.00    -0.011 A 
HETATM    8  C   UNL     1      66.592   7.253   5.297  1.00  0.00     0.012 A 
HETATM    9  C   UNL     1      65.472   5.747   3.232  1.00  0.00     0.013 A 
HETATM   10  C   UNL     1      67.241   6.105   4.837  1.00  0.00     0.001 A 
HETATM   11  C   UNL     1      66.683   5.354   3.804  1.00  0.00     0.001 A 
ENDROOT
BRANCH   3  12
HETATM   12  C   UNL     1      62.800  10.388   5.050  1.00  0.00     0.226 C 
HETATM   13  O   UNL     1      63.094  11.026   6.048  1.00  0.00    -0.643 OA
HETATM   14  OXT UNL     1      61.774  10.770   4.264  1.00  0.00    -0.643 OA
ENDBRANCH   3  12
TORSDOF 1
ENDMDL
MODEL 7
REMARK VINA RESULT:      -4.8      2.802      4.105
REMARK  1 active torsions:
REMARK  status: ('A' for Active; 'I' for Inactive)
REMARK    1  A    between atoms: CA_3  and  C_4 
ROOT
HETATM    1  N   UNL     1      61.229   9.524   3.373  1.00  0.00    -0.360 N 
ATOM      2  HN  UNL     1      60.446  10.178   3.357  1.00  0.00     0.165 HD
HETATM    3  CA  UNL     1      62.362   9.787   4.072  1.00  0.00     0.110 A 
HETATM    4  C   UNL     1      63.449   8.921   4.125  1.00  0.00     0.049 A 
HETATM    5  C   UNL     1      63.387   7.712   3.422  1.00  0.00    -0.022 A 
HETATM    6  C   UNL     1      61.191   8.351   2.701  1.00  0.00     0.100 A 
HETATM    7  C   UNL     1      62.226   7.412   2.683  1.00  0.00    -0.011 A 
HETATM    8  C   UNL     1      64.448   6.792   3.435  1.00  0.00     0.012 A 
HETATM    9  C   UNL     1      62.151   6.204   1.965  1.00  0.00     0.013 A 
HETATM   10  C   UNL     1      64.361   5.594   2.725  1.00  0.00     0.001 A 
HETATM   11  C   UNL     1      63.215   5.301   1.988  1.00  0.00     0.001 A 
ENDROOT
BRANCH   3  12
HETATM   12  C   UNL     1      62.448  11.076   4.822  1.00  0.00     0.226 C 
HETATM   13  O   UNL     1      62.007  12.149   4.439  1.00  0.00    -0.643 OA
HETATM   14  OXT UNL     1      63.072  10.972   6.012  1.00  0.00    -0.643 OA
ENDBRANCH   3  12
TORSDOF 1
ENDMDL
MODEL 8
REMARK VINA RESULT:      -4.7      1.994      2.852
REMARK  1 active torsions:
REMARK  status: ('A' for Active; 'I' for Inactive)
REMARK    1  A    between atoms: CA_3  and  C_4 
ROOT
HETATM    1  N   UNL     1      65.439   6.625   4.233  1.00  0.00    -0.360 N 
ATOM      2  HN  UNL     1      66.094   5.843   4.226  1.00  0.00     0.165 HD
HETATM    3  CA  UNL     1      65.534   7.626   5.144  1.00  0.00     0.110 A 
HETATM    4  C   UNL     1      64.664   8.711   5.185  1.00  0.00     0.049 A 
HETATM    5  C   UNL     1      63.629   8.785   4.245  1.00  0.00    -0.022 A 
HETATM    6  C   UNL     1      64.431   6.716   3.336  1.00  0.00     0.100 A 
HETATM    7  C   UNL     1      63.500   7.758   3.290  1.00  0.00    -0.011 A 
HETATM    8  C   UNL     1      62.718   9.855   4.229  1.00  0.00     0.012 A 
HETATM    9  C   UNL     1      62.460   7.814   2.344  1.00  0.00     0.013 A 
HETATM   10  C   UNL     1      61.694   9.903   3.282  1.00  0.00     0.001 A 
HETATM   11  C   UNL     1      61.563   8.883   2.342  1.00  0.00     0.001 A 
ENDROOT
BRANCH   3  12
HETATM   12  C   UNL     1      66.628   7.559   6.158  1.00  0.00     0.226 C 
HETATM   13  O   UNL     1      66.561   7.983   7.301  1.00  0.00    -0.643 OA
HETATM   14  OXT UNL     1      67.751   6.966   5.707  1.00  0.00    -0.643 OA
ENDBRANCH   3  12
TORSDOF 1
ENDMDL
MODEL 9
REMARK VINA RESULT:      -4.5      2.968      4.582
REMARK  1 active torsions:
REMARK  status: ('A' for Active; 'I' for Inactive)
REMARK    1  A    between atoms: CA_3  and  C_4 
ROOT
HETATM    1  N   UNL     1      63.963   9.371   5.253  1.00  0.00    -0.360 N 
ATOM      2  HN  UNL     1      63.739  10.200   5.803  1.00  0.00     0.165 HD
HETATM    3  CA  UNL     1      63.145   8.927   4.266  1.00  0.00     0.110 A 
HETATM    4  C   UNL     1      63.418   7.805   3.490  1.00  0.00     0.049 A 
HETATM    5  C   UNL     1      64.593   7.083   3.733  1.00  0.00    -0.022 A 
HETATM    6  C   UNL     1      65.092   8.658   5.471  1.00  0.00     0.100 A 
HETATM    7  C   UNL     1      65.461   7.515   4.755  1.00  0.00    -0.011 A 
HETATM    8  C   UNL     1      64.929   5.943   2.985  1.00  0.00     0.012 A 
HETATM    9  C   UNL     1      66.642   6.796   5.016  1.00  0.00     0.013 A 
HETATM   10  C   UNL     1      66.107   5.240   3.248  1.00  0.00     0.001 A 
HETATM   11  C   UNL     1      66.961   5.665   4.264  1.00  0.00     0.001 A 
ENDROOT
BRANCH   3  12
HETATM   12  C   UNL     1      61.884   9.681   3.999  1.00  0.00     0.226 C 
HETATM   13  O   UNL     1      61.741  10.887   4.126  1.00  0.00    -0.643 OA
HETATM   14  OXT UNL     1      60.864   8.905   3.583  1.00  0.00    -0.643 OA
ENDBRANCH   3  12
TORSDOF 1
ENDMDL
