MODEL 1
REMARK VINA RESULT:      -5.6      0.000      0.000
REMARK  2 active torsions:
REMARK  status: ('A' for Active; 'I' for Inactive)
REMARK    1  A    between atoms: C_7  and  C_12 
REMARK    2  A    between atoms: O_9  and  C_12 
ROOT
HETATM    1  N   UNL     1      63.020   7.209   2.066  1.00  0.00    -0.365 N 
ATOM      2  HN  UNL     1      63.539   6.344   2.220  1.00  0.00     0.165 HD
HETATM    3  C   UNL     1      62.306   9.394   2.806  1.00  0.00    -0.009 A 
HETATM    4  C   UNL     1      63.012   8.186   2.989  1.00  0.00     0.042 A 
HETATM    5  C   UNL     1      62.334  10.389   3.801  1.00  0.00     0.023 A 
HETATM    6  C   UNL     1      63.721   8.017   4.170  1.00  0.00     0.031 A 
HETATM    7  C   UNL     1      63.060  10.204   4.985  1.00  0.00    -0.034 A 
HETATM    8  C   UNL     1      63.753   9.005   5.162  1.00  0.00     0.011 A 
HETATM    9  C   UNL     1      62.319   7.406   0.927  1.00  0.00     0.088 A 
HETATM   10  C   UNL     1      61.588   9.560   1.615  1.00  0.00     0.015 A 
HETATM   11  C   UNL     1      61.594   8.550   0.657  1.00  0.00     0.018 A 
ENDROOT
BRANCH   7  12
HETATM   12  C   UNL     1      63.074  11.272   6.045  1.00  0.00     0.202 C 
BRANCH  12  13
HETATM   13  O   UNL     1      64.407  11.546   6.453  1.00  0.00    -0.396 OA
HETATM   14  H   UNL     1      65.020  10.978   5.961  1.00  0.00     0.209 HD
ENDBRANCH  12  13
ENDBRANCH   7  12
TORSDOF 2
ENDMDL
MODEL 2
REMARK VINA RESULT:      -5.4      1.059      2.084
REMARK  2 active torsions:
REMARK  status: ('A' for Active; 'I' for Inactive)
REMARK    1  A    between atoms: C_7  and  C_12 
REMARK    2  A    between atoms: O_9  and  C_12 
ROOT
HETATM    1  N   UNL     1      61.904   8.916   0.877  1.00  0.00    -0.365 N 
ATOM      2  HN  UNL     1      61.442   9.461   0.148  1.00  0.00     0.165 HD
HETATM    3  C   UNL     1      62.787   8.722   3.116  1.00  0.00    -0.009 A 
HETATM    4  C   UNL     1      62.152   9.448   2.086  1.00  0.00     0.042 A 
HETATM    5  C   UNL     1      63.019   9.321   4.368  1.00  0.00     0.023 A 
HETATM    6  C   UNL     1      61.774  10.758   2.349  1.00  0.00     0.031 A 
HETATM    7  C   UNL     1      62.626  10.643   4.617  1.00  0.00    -0.034 A 
HETATM    8  C   UNL     1      62.002  11.358   3.593  1.00  0.00     0.011 A 
HETATM    9  C   UNL     1      62.285   7.639   0.655  1.00  0.00     0.088 A 
HETATM   10  C   UNL     1      63.171   7.402   2.846  1.00  0.00     0.015 A 
HETATM   11  C   UNL     1      62.916   6.848   1.595  1.00  0.00     0.018 A 
ENDROOT
BRANCH   7  12
HETATM   12  C   UNL     1      62.888  11.276   5.957  1.00  0.00     0.202 C 
BRANCH  12  13
HETATM   13  O   UNL     1      64.285  11.349   6.205  1.00  0.00    -0.396 OA
HETATM   14  H   UNL     1      64.740  10.656   5.702  1.00  0.00     0.209 HD
ENDBRANCH  12  13
ENDBRANCH   7  12
TORSDOF 2
ENDMDL
MODEL 3
REMARK VINA RESULT:      -5.0      1.303      2.765
REMARK  2 active torsions:
REMARK  status: ('A' for Active; 'I' for Inactive)
REMARK    1  A    between atoms: C_7  and  C_12 
REMARK    2  A    between atoms: O_9  and  C_12 
ROOT
HETATM    1  N   UNL     1      63.437   6.796   2.471  1.00  0.00    -0.365 N 
ATOM      2  HN  UNL     1      62.747   6.675   1.729  1.00  0.00     0.165 HD
HETATM    3  C   UNL     1      64.312   8.040   4.347  1.00  0.00    -0.009 A 
HETATM    4  C   UNL     1      63.375   7.844   3.310  1.00  0.00     0.042 A 
HETATM    5  C   UNL     1      64.201   9.151   5.203  1.00  0.00     0.023 A 
HETATM    6  C   UNL     1      62.358   8.778   3.166  1.00  0.00     0.031 A 
HETATM    7  C   UNL     1      63.164  10.081   5.046  1.00  0.00    -0.034 A 
HETATM    8  C   UNL     1      62.242   9.884   4.016  1.00  0.00     0.011 A 
HETATM    9  C   UNL     1      64.441   5.907   2.639  1.00  0.00     0.088 A 
HETATM   10  C   UNL     1      65.341   7.099   4.486  1.00  0.00     0.015 A 
HETATM   11  C   UNL     1      65.408   6.013   3.620  1.00  0.00     0.018 A 
ENDROOT
BRANCH   7  12
HETATM   12  C   UNL     1      63.062  11.269   5.963  1.00  0.00     0.202 C 
BRANCH  12  13
HETATM   13  O   UNL     1      64.339  11.600   6.490  1.00  0.00    -0.396 OA
HETATM   14  H   UNL     1      64.722  12.328   5.977  1.00  0.00     0.209 HD
ENDBRANCH  12  13
ENDBRANCH   7  12
TORSDOF 2
ENDMDL
MODEL 4
REMARK VINA RESULT:      -4.9      2.294      3.820
REMARK  2 active torsions:
REMARK  status: ('A' for Active; 'I' for Inactive)
REMARK    1  A    between atoms: C_7  and  C_12 
REMARK    2  A    between atoms: O_9  and  C_12 
ROOT
HETATM    1  N   UNL     1      64.068   7.985   6.209  1.00  0.00    -0.365 N 
ATOM      2  HN  UNL     1      64.130   8.435   7.122  1.00  0.00     0.165 HD
HETATM    3  C   UNL     1      63.398   8.018   3.889  1.00  0.00    -0.009 A 
HETATM    4  C   UNL     1      63.498   8.611   5.166  1.00  0.00     0.042 A 
HETATM    5  C   UNL     1      62.796   8.717   2.827  1.00  0.00     0.023 A 
HETATM    6  C   UNL     1      62.984   9.890   5.332  1.00  0.00     0.031 A 
HETATM    7  C   UNL     1      62.287  10.009   3.012  1.00  0.00    -0.034 A 
HETATM    8  C   UNL     1      62.385  10.590   4.277  1.00  0.00     0.011 A 
HETATM    9  C   UNL     1      64.558   6.741   6.012  1.00  0.00     0.088 A 
HETATM   10  C   UNL     1      63.913   6.725   3.725  1.00  0.00     0.015 A 
HETATM   11  C   UNL     1      64.504   6.074   4.804  1.00  0.00     0.018 A 
ENDROOT
BRANCH   7  12
HETATM   12  C   UNL     1      61.638  10.743   1.870  1.00  0.00     0.202 C 
BRANCH  12  13
HETATM   13  O   UNL     1      62.041  12.106   1.864  1.00  0.00    -0.396 OA
HETATM   14  H   UNL     1      62.071  12.438   2.774  1.00  0.00     0.209 HD
ENDBRANCH  12  13
ENDBRANCH   7  12
TORSDOF 2
ENDMDL
MODEL 5
REMARK VINA RESULT:      -4.7      1.481      2.396
REMARK  2 active torsions:
REMARK  status: ('A' for Active; 'I' for Inactive)
REMARK    1  A    between atoms: C_7  and  C_12 
REMARK    2  A    between atoms: O_9  and  C_12 
ROOT
HETATM    1  N   UNL     1      61.140   9.497   2.088  1.00  0.00    -0.365 N 
ATOM      2  HN  UNL     1      60.578  10.324   2.289  1.00  0.00     0.165 HD
HETATM    3  C   UNL     1      62.911   7.964   2.675  1.00  0.00    -0.009 A 
HETATM    4  C   UNL     1      62.117   9.104   2.923  1.00  0.00     0.042 A 
HETATM    5  C   UNL     1      63.918   7.590   3.585  1.00  0.00     0.023 A 
HETATM    6  C   UNL     1      62.366   9.833   4.078  1.00  0.00     0.031 A 
HETATM    7  C   UNL     1      64.152   8.335   4.748  1.00  0.00    -0.034 A 
HETATM    8  C   UNL     1      63.366   9.464   4.986  1.00  0.00     0.011 A 
HETATM    9  C   UNL     1      60.925   8.764   0.974  1.00  0.00     0.088 A 
HETATM   10  C   UNL     1      62.661   7.233   1.507  1.00  0.00     0.015 A 
HETATM   11  C   UNL     1      61.651   7.637   0.640  1.00  0.00     0.018 A 
ENDROOT
BRANCH   7  12
HETATM   12  C   UNL     1      65.238   7.929   5.707  1.00  0.00     0.202 C 
BRANCH  12  13
HETATM   13  O   UNL     1      65.857   9.078   6.269  1.00  0.00    -0.396 OA
HETATM   14  H   UNL     1      65.961   8.954   7.226  1.00  0.00     0.209 HD
ENDBRANCH  12  13
ENDBRANCH   7  12
TORSDOF 2
ENDMDL
MODEL 6
REMARK VINA RESULT:      -4.7      2.673      4.741
REMARK  2 active torsions:
REMARK  status: ('A' for Active; 'I' for Inactive)
REMARK    1  A    between atoms: C_7  and  C_12 
REMARK    2  A    between atoms: O_9  and  C_12 
ROOT
HETATM    1  N   UNL     1      61.735  11.032   3.056  1.00  0.00    -0.365 N 
ATOM      2  HN  UNL     1      61.203  11.693   2.490  1.00  0.00     0.165 HD
HETATM    3  C   UNL     1      62.816   8.890   3.330  1.00  0.00    -0.009 A 
HETATM    4  C   UNL     1      62.081   9.827   2.573  1.00  0.00     0.042 A 
HETATM    5  C   UNL     1      63.159   7.642   2.775  1.00  0.00     0.023 A 
HETATM    6  C   UNL     1      61.710   9.474   1.282  1.00  0.00     0.031 A 
HETATM    7  C   UNL     1      62.780   7.306   1.469  1.00  0.00    -0.034 A 
HETATM    8  C   UNL     1      62.049   8.235   0.726  1.00  0.00     0.011 A 
HETATM    9  C   UNL     1      62.112  11.342   4.316  1.00  0.00     0.088 A 
HETATM   10  C   UNL     1      63.185   9.246   4.633  1.00  0.00     0.015 A 
HETATM   11  C   UNL     1      62.828  10.493   5.137  1.00  0.00     0.018 A 
ENDROOT
BRANCH   7  12
HETATM   12  C   UNL     1      63.145   5.966   0.892  1.00  0.00     0.202 C 
BRANCH  12  13
HETATM   13  O   UNL     1      64.221   5.389   1.619  1.00  0.00    -0.396 OA
HETATM   14  H   UNL     1      64.792   6.093   1.965  1.00  0.00     0.209 HD
ENDBRANCH  12  13
ENDBRANCH   7  12
TORSDOF 2
ENDMDL
MODEL 7
REMARK VINA RESULT:      -4.6      1.857      2.823
REMARK  2 active torsions:
REMARK  status: ('A' for Active; 'I' for Inactive)
REMARK    1  A    between atoms: C_7  and  C_12 
REMARK    2  A    between atoms: O_9  and  C_12 
ROOT
HETATM    1  N   UNL     1      62.383   8.973   1.686  1.00  0.00    -0.365 N 
ATOM      2  HN  UNL     1      62.420   8.414   0.834  1.00  0.00     0.165 HD
HETATM    3  C   UNL     1      62.786   9.230   4.053  1.00  0.00    -0.009 A 
HETATM    4  C   UNL     1      62.823   8.482   2.857  1.00  0.00     0.042 A 
HETATM    5  C   UNL     1      63.265   8.672   5.253  1.00  0.00     0.023 A 
HETATM    6  C   UNL     1      63.337   7.194   2.909  1.00  0.00     0.031 A 
HETATM    7  C   UNL     1      63.785   7.372   5.286  1.00  0.00    -0.034 A 
HETATM    8  C   UNL     1      63.815   6.635   4.100  1.00  0.00     0.011 A 
HETATM    9  C   UNL     1      61.888  10.231   1.671  1.00  0.00     0.088 A 
HETATM   10  C   UNL     1      62.262  10.528   3.998  1.00  0.00     0.015 A 
HETATM   11  C   UNL     1      61.806  11.040   2.788  1.00  0.00     0.018 A 
ENDROOT
BRANCH   7  12
HETATM   12  C   UNL     1      64.285   6.784   6.577  1.00  0.00     0.202 C 
BRANCH  12  13
HETATM   13  O   UNL     1      65.427   7.494   7.035  1.00  0.00    -0.396 OA
HETATM   14  H   UNL     1      65.309   8.442   6.865  1.00  0.00     0.209 HD
ENDBRANCH  12  13
ENDBRANCH   7  12
TORSDOF 2
ENDMDL
MODEL 8
REMARK VINA RESULT:      -4.4      2.613      4.228
REMARK  2 active torsions:
REMARK  status: ('A' for Active; 'I' for Inactive)
REMARK    1  A    between atoms: C_7  and  C_12 
REMARK    2  A    between atoms: O_9  and  C_12 
ROOT
HETATM    1  N   UNL     1      65.823   5.966   3.871  1.00  0.00    -0.365 N 
ATOM      2  HN  UNL     1      65.656   5.248   3.166  1.00  0.00     0.165 HD
HETATM    3  C   UNL     1      65.195   8.022   4.970  1.00  0.00    -0.009 A 
HETATM    4  C   UNL     1      64.992   7.014   4.004  1.00  0.00     0.042 A 
HETATM    5  C   UNL     1      64.292   9.097   5.073  1.00  0.00     0.023 A 
HETATM    6  C   UNL     1      63.888   7.123   3.169  1.00  0.00     0.031 A 
HETATM    7  C   UNL     1      63.180   9.188   4.225  1.00  0.00    -0.034 A 
HETATM    8  C   UNL     1      62.987   8.189   3.269  1.00  0.00     0.011 A 
HETATM    9  C   UNL     1      66.888   5.892   4.700  1.00  0.00     0.088 A 
HETATM   10  C   UNL     1      66.312   7.913   5.808  1.00  0.00     0.015 A 
HETATM   11  C   UNL     1      67.174   6.829   5.673  1.00  0.00     0.018 A 
ENDROOT
BRANCH   7  12
HETATM   12  C   UNL     1      62.228  10.347   4.340  1.00  0.00     0.202 C 
BRANCH  12  13
HETATM   13  O   UNL     1      61.002  10.047   3.687  1.00  0.00    -0.396 OA
HETATM   14  H   UNL     1      61.184   9.602   2.845  1.00  0.00     0.209 HD
ENDBRANCH  12  13
ENDBRANCH   7  12
TORSDOF 2
ENDMDL
MODEL 9
REMARK VINA RESULT:      -4.2      1.976      2.569
REMARK  2 active torsions:
REMARK  status: ('A' for Active; 'I' for Inactive)
REMARK    1  A    between atoms: C_7  and  C_12 
REMARK    2  A    between atoms: O_9  and  C_12 
ROOT
HETATM    1  N   UNL     1      63.213   6.056   3.146  1.00  0.00    -0.365 N 
ATOM      2  HN  UNL     1      63.455   5.611   4.032  1.00  0.00     0.165 HD
HETATM    3  C   UNL     1      62.533   8.000   1.886  1.00  0.00    -0.009 A 
HETATM    4  C   UNL     1      62.872   7.355   3.094  1.00  0.00     0.042 A 
HETATM    5  C   UNL     1      62.188   9.365   1.884  1.00  0.00     0.023 A 
HETATM    6  C   UNL     1      62.848   8.104   4.263  1.00  0.00     0.031 A 
HETATM    7  C   UNL     1      62.174  10.106   3.072  1.00  0.00    -0.034 A 
HETATM    8  C   UNL     1      62.506   9.462   4.265  1.00  0.00     0.011 A 
HETATM    9  C   UNL     1      63.226   5.356   1.990  1.00  0.00     0.088 A 
HETATM   10  C   UNL     1      62.553   7.241   0.709  1.00  0.00     0.015 A 
HETATM   11  C   UNL     1      62.906   5.896   0.759  1.00  0.00     0.018 A 
ENDROOT
BRANCH   7  12
HETATM   12  C   UNL     1      61.794  11.562   3.057  1.00  0.00     0.202 C 
BRANCH  12  13
HETATM   13  O   UNL     1      62.033  12.123   1.774  1.00  0.00    -0.396 OA
HETATM   14  H   UNL     1      62.337  11.429   1.168  1.00  0.00     0.209 HD
ENDBRANCH  12  13
ENDBRANCH   7  12
TORSDOF 2
ENDMDL
