MODEL 1
REMARK VINA RESULT:      -4.3      0.000      0.000
REMARK  1 active torsions:
REMARK  status: ('A' for Active; 'I' for Inactive)
REMARK    1  A    between atoms: C_1  and  CA_2 
ROOT
ATOM      1  CA  LYS A   1      62.407   9.988   3.665  1.00  0.00     0.109 A 
ATOM      2  N   LYS A   1      61.687  10.458   2.601  1.00  0.00    -0.360 N 
ATOM      3  HN  LYS A   1      61.245  11.377   2.610  1.00  0.00     0.165 HD
ATOM      4  CE  LYS A   1      61.598   9.628   1.538  1.00  0.00     0.088 A 
ATOM      5  CB  LYS A   1      63.024   8.745   3.708  1.00  0.00     0.037 A 
ATOM      6  CD  LYS A   1      62.178   8.367   1.490  1.00  0.00     0.017 A 
ATOM      7  CG  LYS A   1      62.900   7.921   2.596  1.00  0.00     0.004 A 
ENDROOT
BRANCH   1   8
ATOM      8  C   LYS A   1      62.496  10.911   4.833  1.00  0.00     0.226 C 
ATOM      9  O   LYS A   1      63.024  10.646   5.897  1.00  0.00    -0.643 OA
ATOM     10  OXT LYS A   1      61.899  12.094   4.544  1.00  0.00    -0.643 OA
ENDBRANCH   1   8
TORSDOF 1
ENDMDL
MODEL 2
REMARK VINA RESULT:      -4.3      1.271      2.140
REMARK  1 active torsions:
REMARK  status: ('A' for Active; 'I' for Inactive)
REMARK    1  A    between atoms: C_1  and  CA_2 
ROOT
ATOM      1  CA  LYS A   1      62.567   9.954   4.004  1.00  0.00     0.109 A 
ATOM      2  N   LYS A   1      62.823   8.732   3.447  1.00  0.00    -0.360 N 
ATOM      3  HN  LYS A   1      63.224   7.963   3.986  1.00  0.00     0.165 HD
ATOM      4  CE  LYS A   1      62.511   8.605   2.138  1.00  0.00     0.088 A 
ATOM      5  CB  LYS A   1      62.028  11.033   3.318  1.00  0.00     0.037 A 
ATOM      6  CD  LYS A   1      61.972   9.628   1.369  1.00  0.00     0.017 A 
ATOM      7  CG  LYS A   1      61.729  10.860   1.971  1.00  0.00     0.004 A 
ENDROOT
BRANCH   1   8
ATOM      8  C   LYS A   1      62.917  10.083   5.449  1.00  0.00     0.226 C 
ATOM      9  O   LYS A   1      63.093  11.134   6.036  1.00  0.00    -0.643 OA
ATOM     10  OXT LYS A   1      63.018   8.857   6.020  1.00  0.00    -0.643 OA
ENDBRANCH   1   8
TORSDOF 1
ENDMDL
MODEL 3
REMARK VINA RESULT:      -4.3      1.850      2.523
REMARK  1 active torsions:
REMARK  status: ('A' for Active; 'I' for Inactive)
REMARK    1  A    between atoms: C_1  and  CA_2 
ROOT
ATOM      1  CA  LYS A   1      63.316   9.704   4.863  1.00  0.00     0.109 A 
ATOM      2  N   LYS A   1      64.366   9.084   5.482  1.00  0.00    -0.360 N 
ATOM      3  HN  LYS A   1      64.825   9.484   6.301  1.00  0.00     0.165 HD
ATOM      4  CE  LYS A   1      64.758   7.909   4.940  1.00  0.00     0.088 A 
ATOM      5  CB  LYS A   1      62.660   9.209   3.744  1.00  0.00     0.037 A 
ATOM      6  CD  LYS A   1      64.165   7.337   3.822  1.00  0.00     0.017 A 
ATOM      7  CG  LYS A   1      63.100   8.001   3.217  1.00  0.00     0.004 A 
ENDROOT
BRANCH   1   8
ATOM      8  C   LYS A   1      62.894  11.001   5.468  1.00  0.00     0.226 C 
ATOM      9  O   LYS A   1      63.227  11.403   6.568  1.00  0.00    -0.643 OA
ATOM     10  OXT LYS A   1      62.077  11.673   4.619  1.00  0.00    -0.643 OA
ENDBRANCH   1   8
TORSDOF 1
ENDMDL
MODEL 4
REMARK VINA RESULT:      -4.2      2.851      3.521
REMARK  1 active torsions:
REMARK  status: ('A' for Active; 'I' for Inactive)
REMARK    1  A    between atoms: C_1  and  CA_2 
ROOT
ATOM      1  CA  LYS A   1      64.052   9.023   5.058  1.00  0.00     0.109 A 
ATOM      2  N   LYS A   1      63.721  10.185   5.699  1.00  0.00    -0.360 N 
ATOM      3  HN  LYS A   1      64.196  10.489   6.549  1.00  0.00     0.165 HD
ATOM      4  CE  LYS A   1      62.726  10.905   5.135  1.00  0.00     0.088 A 
ATOM      5  CB  LYS A   1      63.437   8.560   3.904  1.00  0.00     0.037 A 
ATOM      6  CD  LYS A   1      62.050  10.521   3.984  1.00  0.00     0.017 A 
ATOM      7  CG  LYS A   1      62.413   9.328   3.362  1.00  0.00     0.004 A 
ENDROOT
BRANCH   1   8
ATOM      8  C   LYS A   1      65.151   8.235   5.691  1.00  0.00     0.226 C 
ATOM      9  O   LYS A   1      65.022   7.502   6.654  1.00  0.00    -0.643 OA
ATOM     10  OXT LYS A   1      66.321   8.457   5.044  1.00  0.00    -0.643 OA
ENDBRANCH   1   8
TORSDOF 1
ENDMDL
MODEL 5
REMARK VINA RESULT:      -4.2      1.683      2.346
REMARK  1 active torsions:
REMARK  status: ('A' for Active; 'I' for Inactive)
REMARK    1  A    between atoms: C_1  and  CA_2 
ROOT
ATOM      1  CA  LYS A   1      61.669   9.890   2.365  1.00  0.00     0.109 A 
ATOM      2  N   LYS A   1      61.030   9.119   3.296  1.00  0.00    -0.360 N 
ATOM      3  HN  LYS A   1      60.675   9.507   4.170  1.00  0.00     0.165 HD
ATOM      4  CE  LYS A   1      60.897   7.810   2.985  1.00  0.00     0.088 A 
ATOM      5  CB  LYS A   1      62.175   9.414   1.164  1.00  0.00     0.037 A 
ATOM      6  CD  LYS A   1      61.373   7.242   1.810  1.00  0.00     0.017 A 
ATOM      7  CG  LYS A   1      62.023   8.060   0.888  1.00  0.00     0.004 A 
ENDROOT
BRANCH   1   8
ATOM      8  C   LYS A   1      61.811  11.333   2.720  1.00  0.00     0.226 C 
ATOM      9  O   LYS A   1      61.902  12.245   1.920  1.00  0.00    -0.643 OA
ATOM     10  OXT LYS A   1      61.830  11.486   4.068  1.00  0.00    -0.643 OA
ENDBRANCH   1   8
TORSDOF 1
ENDMDL
MODEL 6
REMARK VINA RESULT:      -3.8      4.464      5.452
REMARK  1 active torsions:
REMARK  status: ('A' for Active; 'I' for Inactive)
REMARK    1  A    between atoms: C_1  and  CA_2 
ROOT
ATOM      1  CA  LYS A   1      65.649   7.950   5.673  1.00  0.00     0.109 A 
ATOM      2  N   LYS A   1      65.362   7.372   6.878  1.00  0.00    -0.360 N 
ATOM      3  HN  LYS A   1      64.474   7.528   7.357  1.00  0.00     0.165 HD
ATOM      4  CE  LYS A   1      66.327   6.581   7.397  1.00  0.00     0.088 A 
ATOM      5  CB  LYS A   1      66.840   7.776   4.982  1.00  0.00     0.037 A 
ATOM      6  CD  LYS A   1      67.551   6.349   6.781  1.00  0.00     0.017 A 
ATOM      7  CG  LYS A   1      67.808   6.959   5.555  1.00  0.00     0.004 A 
ENDROOT
BRANCH   1   8
ATOM      8  C   LYS A   1      64.576   8.823   5.112  1.00  0.00     0.226 C 
ATOM      9  O   LYS A   1      63.859   8.535   4.172  1.00  0.00    -0.643 OA
ATOM     10  OXT LYS A   1      64.516   9.992   5.797  1.00  0.00    -0.643 OA
ENDBRANCH   1   8
TORSDOF 1
ENDMDL
MODEL 7
REMARK VINA RESULT:      -3.7      6.330      7.349
REMARK  1 active torsions:
REMARK  status: ('A' for Active; 'I' for Inactive)
REMARK    1  A    between atoms: C_1  and  CA_2 
ROOT
ATOM      1  CA  LYS A   1      66.927   6.815   6.980  1.00  0.00     0.109 A 
ATOM      2  N   LYS A   1      67.111   7.217   8.274  1.00  0.00    -0.360 N 
ATOM      3  HN  LYS A   1      66.837   8.144   8.598  1.00  0.00     0.165 HD
ATOM      4  CE  LYS A   1      67.680   6.308   9.097  1.00  0.00     0.088 A 
ATOM      5  CB  LYS A   1      67.286   5.569   6.485  1.00  0.00     0.037 A 
ATOM      6  CD  LYS A   1      68.075   5.039   8.693  1.00  0.00     0.017 A 
ATOM      7  CG  LYS A   1      67.875   4.668   7.365  1.00  0.00     0.004 A 
ENDROOT
BRANCH   1   8
ATOM      8  C   LYS A   1      66.301   7.828   6.080  1.00  0.00     0.226 C 
ATOM      9  O   LYS A   1      66.872   8.411   5.177  1.00  0.00    -0.643 OA
ATOM     10  OXT LYS A   1      65.000   8.013   6.415  1.00  0.00    -0.643 OA
ENDBRANCH   1   8
TORSDOF 1
ENDMDL
MODEL 8
REMARK VINA RESULT:      -3.7      5.832      6.753
REMARK  1 active torsions:
REMARK  status: ('A' for Active; 'I' for Inactive)
REMARK    1  A    between atoms: C_1  and  CA_2 
ROOT
ATOM      1  CA  LYS A   1      66.579   6.651   7.382  1.00  0.00     0.109 A 
ATOM      2  N   LYS A   1      65.588   7.503   6.980  1.00  0.00    -0.360 N 
ATOM      3  HN  LYS A   1      64.792   7.729   7.578  1.00  0.00     0.165 HD
ATOM      4  CE  LYS A   1      65.728   8.027   5.742  1.00  0.00     0.088 A 
ATOM      5  CB  LYS A   1      67.679   6.306   6.609  1.00  0.00     0.037 A 
ATOM      6  CD  LYS A   1      66.791   7.740   4.896  1.00  0.00     0.017 A 
ATOM      7  CG  LYS A   1      67.779   6.863   5.339  1.00  0.00     0.004 A 
ENDROOT
BRANCH   1   8
ATOM      8  C   LYS A   1      66.413   6.077   8.749  1.00  0.00     0.226 C 
ATOM      9  O   LYS A   1      66.502   6.704   9.788  1.00  0.00    -0.643 OA
ATOM     10  OXT LYS A   1      66.152   4.748   8.672  1.00  0.00    -0.643 OA
ENDBRANCH   1   8
TORSDOF 1
ENDMDL
MODEL 9
REMARK VINA RESULT:      -3.7      2.554      3.536
REMARK  1 active torsions:
REMARK  status: ('A' for Active; 'I' for Inactive)
REMARK    1  A    between atoms: C_1  and  CA_2 
ROOT
ATOM      1  CA  LYS A   1      62.161   9.587   2.884  1.00  0.00     0.109 A 
ATOM      2  N   LYS A   1      61.718  10.872   3.035  1.00  0.00    -0.360 N 
ATOM      3  HN  LYS A   1      61.175  11.347   2.313  1.00  0.00     0.165 HD
ATOM      4  CE  LYS A   1      62.044  11.474   4.201  1.00  0.00     0.088 A 
ATOM      5  CB  LYS A   1      62.905   8.897   3.831  1.00  0.00     0.037 A 
ATOM      6  CD  LYS A   1      62.786  10.865   5.205  1.00  0.00     0.017 A 
ATOM      7  CG  LYS A   1      63.224   9.556   5.012  1.00  0.00     0.004 A 
ENDROOT
BRANCH   1   8
ATOM      8  C   LYS A   1      61.797   8.934   1.593  1.00  0.00     0.226 C 
ATOM      9  O   LYS A   1      62.348   9.136   0.527  1.00  0.00    -0.643 OA
ATOM     10  OXT LYS A   1      60.756   8.084   1.773  1.00  0.00    -0.643 OA
ENDBRANCH   1   8
TORSDOF 1
ENDMDL
