MODEL 1
REMARK VINA RESULT:      -4.2      0.000      0.000
REMARK  2 active torsions:
REMARK  status: ('A' for Active; 'I' for Inactive)
REMARK    1  A    between atoms: C_3  and  C_7 
REMARK    2  A    between atoms: O_4  and  C_7 
ROOT
HETATM    1  N   UNL     1      62.602   8.737   2.782  1.00  0.00    -0.375 N 
ATOM      2  HN  UNL     1      62.493   8.117   1.979  1.00  0.00     0.164 HD
HETATM    3  C   UNL     1      62.900  10.446   4.993  1.00  0.00    -0.032 A 
HETATM    4  C   UNL     1      63.386   8.408   3.831  1.00  0.00     0.088 A 
HETATM    5  C   UNL     1      61.969   9.926   2.850  1.00  0.00     0.088 A 
HETATM    6  C   UNL     1      62.083  10.804   3.920  1.00  0.00     0.026 A 
HETATM    7  C   UNL     1      63.564   9.216   4.943  1.00  0.00     0.026 A 
ENDROOT
BRANCH   3   8
HETATM    8  C   UNL     1      63.080  11.359   6.173  1.00  0.00     0.203 C 
BRANCH   8   9
HETATM    9  O   UNL     1      64.460  11.531   6.462  1.00  0.00    -0.396 OA
HETATM   10  H   UNL     1      64.561  12.161   7.194  1.00  0.00     0.209 HD
ENDBRANCH   8   9
ENDBRANCH   3   8
TORSDOF 2
ENDMDL
MODEL 2
REMARK VINA RESULT:      -4.0      0.614      1.753
REMARK  2 active torsions:
REMARK  status: ('A' for Active; 'I' for Inactive)
REMARK    1  A    between atoms: C_3  and  C_7 
REMARK    2  A    between atoms: O_4  and  C_7 
ROOT
HETATM    1  N   UNL     1      63.124   8.037   2.984  1.00  0.00    -0.375 N 
ATOM      2  HN  UNL     1      63.131   7.284   2.297  1.00  0.00     0.164 HD
HETATM    3  C   UNL     1      63.106  10.111   4.880  1.00  0.00    -0.032 A 
HETATM    4  C   UNL     1      62.351   9.133   2.828  1.00  0.00     0.088 A 
HETATM    5  C   UNL     1      63.887   7.989   4.096  1.00  0.00     0.088 A 
HETATM    6  C   UNL     1      63.915   8.988   5.060  1.00  0.00     0.026 A 
HETATM    7  C   UNL     1      62.309  10.181   3.734  1.00  0.00     0.026 A 
ENDROOT
BRANCH   3   8
HETATM    8  C   UNL     1      63.076  11.219   5.895  1.00  0.00     0.203 C 
BRANCH   8   9
HETATM    9  O   UNL     1      64.376  11.451   6.416  1.00  0.00    -0.396 OA
HETATM   10  H   UNL     1      64.799  12.172   5.923  1.00  0.00     0.209 HD
ENDBRANCH   8   9
ENDBRANCH   3   8
TORSDOF 2
ENDMDL
MODEL 3
REMARK VINA RESULT:      -4.0      2.341      3.313
REMARK  2 active torsions:
REMARK  status: ('A' for Active; 'I' for Inactive)
REMARK    1  A    between atoms: C_3  and  C_7 
REMARK    2  A    between atoms: O_4  and  C_7 
ROOT
HETATM    1  N   UNL     1      63.399   9.681   5.838  1.00  0.00    -0.375 N 
ATOM      2  HN  UNL     1      63.826   9.408   6.723  1.00  0.00     0.164 HD
HETATM    3  C   UNL     1      62.224  10.433   3.398  1.00  0.00    -0.032 A 
HETATM    4  C   UNL     1      62.892  10.918   5.647  1.00  0.00     0.088 A 
HETATM    5  C   UNL     1      63.313   8.826   4.798  1.00  0.00     0.088 A 
HETATM    6  C   UNL     1      62.741   9.148   3.575  1.00  0.00     0.026 A 
HETATM    7  C   UNL     1      62.302  11.334   4.464  1.00  0.00     0.026 A 
ENDROOT
BRANCH   3   8
HETATM    8  C   UNL     1      61.607  10.851   2.093  1.00  0.00     0.203 C 
BRANCH   8   9
HETATM    9  O   UNL     1      62.018  12.166   1.748  1.00  0.00    -0.396 OA
HETATM   10  H   UNL     1      61.919  12.295   0.792  1.00  0.00     0.209 HD
ENDBRANCH   8   9
ENDBRANCH   3   8
TORSDOF 2
ENDMDL
MODEL 4
REMARK VINA RESULT:      -3.8      1.437      2.217
REMARK  2 active torsions:
REMARK  status: ('A' for Active; 'I' for Inactive)
REMARK    1  A    between atoms: C_3  and  C_7 
REMARK    2  A    between atoms: O_4  and  C_7 
ROOT
HETATM    1  N   UNL     1      61.557  10.891   2.925  1.00  0.00    -0.375 N 
ATOM      2  HN  UNL     1      60.946  11.483   2.362  1.00  0.00     0.164 HD
HETATM    3  C   UNL     1      63.240   9.265   4.480  1.00  0.00    -0.032 A 
HETATM    4  C   UNL     1      61.956   9.674   2.499  1.00  0.00     0.088 A 
HETATM    5  C   UNL     1      62.007  11.286   4.134  1.00  0.00     0.088 A 
HETATM    6  C   UNL     1      62.838  10.519   4.940  1.00  0.00     0.026 A 
HETATM    7  C   UNL     1      62.783   8.836   3.230  1.00  0.00     0.026 A 
ENDROOT
BRANCH   3   8
HETATM    8  C   UNL     1      64.153   8.392   5.295  1.00  0.00     0.203 C 
BRANCH   8   9
HETATM    9  O   UNL     1      65.252   9.146   5.786  1.00  0.00    -0.396 OA
HETATM   10  H   UNL     1      65.099   9.374   6.717  1.00  0.00     0.209 HD
ENDBRANCH   8   9
ENDBRANCH   3   8
TORSDOF 2
ENDMDL
MODEL 5
REMARK VINA RESULT:      -3.7      1.447      2.312
REMARK  2 active torsions:
REMARK  status: ('A' for Active; 'I' for Inactive)
REMARK    1  A    between atoms: C_3  and  C_7 
REMARK    2  A    between atoms: O_4  and  C_7 
ROOT
HETATM    1  N   UNL     1      61.566  10.872   2.913  1.00  0.00    -0.375 N 
ATOM      2  HN  UNL     1      60.959  11.462   2.345  1.00  0.00     0.164 HD
HETATM    3  C   UNL     1      63.239   9.243   4.478  1.00  0.00    -0.032 A 
HETATM    4  C   UNL     1      62.005  11.266   4.128  1.00  0.00     0.088 A 
HETATM    5  C   UNL     1      61.972   9.656   2.490  1.00  0.00     0.088 A 
HETATM    6  C   UNL     1      62.798   8.816   3.224  1.00  0.00     0.026 A 
HETATM    7  C   UNL     1      62.831  10.500   4.935  1.00  0.00     0.026 A 
ENDROOT
BRANCH   3   8
HETATM    8  C   UNL     1      64.120   8.373   5.330  1.00  0.00     0.203 C 
BRANCH   8   9
HETATM    9  O   UNL     1      65.266   9.095   5.756  1.00  0.00    -0.396 OA
HETATM   10  H   UNL     1      66.037   8.814   5.239  1.00  0.00     0.209 HD
ENDBRANCH   8   9
ENDBRANCH   3   8
TORSDOF 2
ENDMDL
MODEL 6
REMARK VINA RESULT:      -3.6      2.529      3.223
REMARK  2 active torsions:
REMARK  status: ('A' for Active; 'I' for Inactive)
REMARK    1  A    between atoms: C_3  and  C_7 
REMARK    2  A    between atoms: O_4  and  C_7 
ROOT
HETATM    1  N   UNL     1      62.833   7.219   2.052  1.00  0.00    -0.375 N 
ATOM      2  HN  UNL     1      63.071   6.250   1.844  1.00  0.00     0.164 HD
HETATM    3  C   UNL     1      62.175   9.890   2.629  1.00  0.00    -0.032 A 
HETATM    4  C   UNL     1      62.253   8.021   1.133  1.00  0.00     0.088 A 
HETATM    5  C   UNL     1      63.080   7.766   3.261  1.00  0.00     0.088 A 
HETATM    6  C   UNL     1      62.776   9.079   3.593  1.00  0.00     0.026 A 
HETATM    7  C   UNL     1      61.912   9.343   1.370  1.00  0.00     0.026 A 
ENDROOT
BRANCH   3   8
HETATM    8  C   UNL     1      61.805  11.315   2.932  1.00  0.00     0.203 C 
BRANCH   8   9
HETATM    9  O   UNL     1      62.062  12.144   1.808  1.00  0.00    -0.396 OA
HETATM   10  H   UNL     1      61.293  12.133   1.215  1.00  0.00     0.209 HD
ENDBRANCH   8   9
ENDBRANCH   3   8
TORSDOF 2
ENDMDL
MODEL 7
REMARK VINA RESULT:      -3.5     11.968     12.495
REMARK  2 active torsions:
REMARK  status: ('A' for Active; 'I' for Inactive)
REMARK    1  A    between atoms: C_3  and  C_7 
REMARK    2  A    between atoms: O_4  and  C_7 
ROOT
HETATM    1  N   UNL     1      57.503   1.616  14.425  1.00  0.00    -0.375 N 
ATOM      2  HN  UNL     1      57.314   1.287  15.372  1.00  0.00     0.164 HD
HETATM    3  C   UNL     1      58.029   2.523  11.818  1.00  0.00    -0.032 A 
HETATM    4  C   UNL     1      56.525   2.107  13.636  1.00  0.00     0.088 A 
HETATM    5  C   UNL     1      58.745   1.582  13.899  1.00  0.00     0.088 A 
HETATM    6  C   UNL     1      59.055   2.017  12.617  1.00  0.00     0.026 A 
HETATM    7  C   UNL     1      56.734   2.565  12.344  1.00  0.00     0.026 A 
ENDROOT
BRANCH   3   8
HETATM    8  C   UNL     1      58.300   3.026  10.428  1.00  0.00     0.203 C 
BRANCH   8   9
HETATM    9  O   UNL     1      58.639   4.404  10.456  1.00  0.00    -0.396 OA
HETATM   10  H   UNL     1      58.487   4.757  11.347  1.00  0.00     0.209 HD
ENDBRANCH   8   9
ENDBRANCH   3   8
TORSDOF 2
ENDMDL
MODEL 8
REMARK VINA RESULT:      -3.3      3.000      3.989
REMARK  2 active torsions:
REMARK  status: ('A' for Active; 'I' for Inactive)
REMARK    1  A    between atoms: C_3  and  C_7 
REMARK    2  A    between atoms: O_4  and  C_7 
ROOT
HETATM    1  N   UNL     1      61.753  11.375   3.015  1.00  0.00    -0.375 N 
ATOM      2  HN  UNL     1      61.448  12.342   3.126  1.00  0.00     0.164 HD
HETATM    3  C   UNL     1      62.595   8.711   2.713  1.00  0.00    -0.032 A 
HETATM    4  C   UNL     1      61.779  10.774   1.807  1.00  0.00     0.088 A 
HETATM    5  C   UNL     1      62.150  10.633   4.069  1.00  0.00     0.088 A 
HETATM    6  C   UNL     1      62.573   9.314   3.972  1.00  0.00     0.026 A 
HETATM    7  C   UNL     1      62.185   9.463   1.608  1.00  0.00     0.026 A 
ENDROOT
BRANCH   3   8
HETATM    8  C   UNL     1      63.058   7.292   2.537  1.00  0.00     0.203 C 
BRANCH   8   9
HETATM    9  O   UNL     1      62.944   6.898   1.178  1.00  0.00    -0.396 OA
HETATM   10  H   UNL     1      62.677   5.966   1.133  1.00  0.00     0.209 HD
ENDBRANCH   8   9
ENDBRANCH   3   8
TORSDOF 2
ENDMDL
MODEL 9
REMARK VINA RESULT:      -3.1      1.710      2.298
REMARK  2 active torsions:
REMARK  status: ('A' for Active; 'I' for Inactive)
REMARK    1  A    between atoms: C_3  and  C_7 
REMARK    2  A    between atoms: O_4  and  C_7 
ROOT
HETATM    1  N   UNL     1      64.730   7.065   4.040  1.00  0.00    -0.375 N 
ATOM      2  HN  UNL     1      65.339   6.248   3.983  1.00  0.00     0.164 HD
HETATM    3  C   UNL     1      63.053   9.314   4.193  1.00  0.00    -0.032 A 
HETATM    4  C   UNL     1      64.912   8.021   4.976  1.00  0.00     0.088 A 
HETATM    5  C   UNL     1      63.703   7.244   3.184  1.00  0.00     0.088 A 
HETATM    6  C   UNL     1      62.846   8.335   3.220  1.00  0.00     0.026 A 
HETATM    7  C   UNL     1      64.111   9.146   5.092  1.00  0.00     0.026 A 
ENDROOT
BRANCH   3   8
HETATM    8  C   UNL     1      62.172  10.529   4.275  1.00  0.00     0.203 C 
BRANCH   8   9
HETATM    9  O   UNL     1      62.701  11.465   5.203  1.00  0.00    -0.396 OA
HETATM   10  H   UNL     1      62.003  12.081   5.476  1.00  0.00     0.209 HD
ENDBRANCH   8   9
ENDBRANCH   3   8
TORSDOF 2
ENDMDL
