MODEL 1
REMARK VINA RESULT:      -5.4      0.000      0.000
REMARK  1 active torsions:
REMARK  status: ('A' for Active; 'I' for Inactive)
REMARK    1  A    between atoms: C_1  and  C_2 
ROOT
HETATM    1  C   UNL     1      62.812   9.874   4.261  1.00  0.00     0.041 A 
HETATM    2  C   UNL     1      62.079   9.850   3.069  1.00  0.00     0.032 A 
HETATM    3  C   UNL     1      62.155   8.741   2.209  1.00  0.00    -0.008 A 
HETATM    4  N   UNL     1      63.072   6.554   1.755  1.00  0.00    -0.365 N 
ATOM      5  HN  UNL     1      63.675   5.773   2.012  1.00  0.00     0.165 HD
HETATM    6  C   UNL     1      62.972   7.638   2.540  1.00  0.00     0.042 A 
HETATM    7  C   UNL     1      63.610   8.779   4.600  1.00  0.00     0.021 A 
HETATM    8  C   UNL     1      63.685   7.682   3.733  1.00  0.00     0.031 A 
HETATM    9  C   UNL     1      62.349   6.529   0.613  1.00  0.00     0.088 A 
HETATM   10  C   UNL     1      61.426   8.682   1.014  1.00  0.00     0.015 A 
HETATM   11  C   UNL     1      61.521   7.558   0.202  1.00  0.00     0.018 A 
ENDROOT
BRANCH   1  12
HETATM   12  C   UNL     1      62.665  11.048   5.154  1.00  0.00     0.209 C 
HETATM   13  O   UNL     1      63.135  11.082   6.279  1.00  0.00    -0.644 OA
HETATM   14  O   UNL     1      61.932  12.049   4.627  1.00  0.00    -0.644 OA
ENDBRANCH   1  12
TORSDOF 1
ENDMDL
MODEL 2
REMARK VINA RESULT:      -5.3      1.050      2.277
REMARK  1 active torsions:
REMARK  status: ('A' for Active; 'I' for Inactive)
REMARK    1  A    between atoms: C_1  and  C_2 
ROOT
HETATM    1  C   UNL     1      62.397   9.995   3.548  1.00  0.00     0.041 A 
HETATM    2  C   UNL     1      63.022   8.756   3.728  1.00  0.00     0.032 A 
HETATM    3  C   UNL     1      63.076   7.828   2.674  1.00  0.00    -0.008 A 
HETATM    4  N   UNL     1      62.533   7.286   0.384  1.00  0.00    -0.365 N 
ATOM      5  HN  UNL     1      62.104   7.529  -0.508  1.00  0.00     0.165 HD
HETATM    6  C   UNL     1      62.500   8.137   1.422  1.00  0.00     0.042 A 
HETATM    7  C   UNL     1      61.840  10.311   2.307  1.00  0.00     0.021 A 
HETATM    8  C   UNL     1      61.892   9.377   1.266  1.00  0.00     0.031 A 
HETATM    9  C   UNL     1      63.153   6.097   0.558  1.00  0.00     0.088 A 
HETATM   10  C   UNL     1      63.703   6.583   2.818  1.00  0.00     0.015 A 
HETATM   11  C   UNL     1      63.746   5.703   1.744  1.00  0.00     0.018 A 
ENDROOT
BRANCH   1  12
HETATM   12  C   UNL     1      62.403  10.956   4.677  1.00  0.00     0.209 C 
HETATM   13  O   UNL     1      61.931  12.077   4.589  1.00  0.00    -0.644 OA
HETATM   14  O   UNL     1      63.011  10.493   5.788  1.00  0.00    -0.644 OA
ENDBRANCH   1  12
TORSDOF 1
ENDMDL
MODEL 3
REMARK VINA RESULT:      -5.2      2.171      2.930
REMARK  1 active torsions:
REMARK  status: ('A' for Active; 'I' for Inactive)
REMARK    1  A    between atoms: C_1  and  C_2 
ROOT
HETATM    1  C   UNL     1      63.935   8.653   4.978  1.00  0.00     0.041 A 
HETATM    2  C   UNL     1      63.810   7.829   3.854  1.00  0.00     0.032 A 
HETATM    3  C   UNL     1      62.886   8.143   2.842  1.00  0.00    -0.008 A 
HETATM    4  N   UNL     1      61.185   9.638   2.007  1.00  0.00    -0.365 N 
ATOM      5  HN  UNL     1      60.605  10.471   2.110  1.00  0.00     0.165 HD
HETATM    6  C   UNL     1      62.075   9.294   2.950  1.00  0.00     0.042 A 
HETATM    7  C   UNL     1      63.147   9.801   5.082  1.00  0.00     0.021 A 
HETATM    8  C   UNL     1      62.223  10.100   4.072  1.00  0.00     0.031 A 
HETATM    9  C   UNL     1      61.079   8.848   0.915  1.00  0.00     0.088 A 
HETATM   10  C   UNL     1      62.743   7.345   1.700  1.00  0.00     0.015 A 
HETATM   11  C   UNL     1      61.827   7.702   0.717  1.00  0.00     0.018 A 
ENDROOT
BRANCH   1  12
HETATM   12  C   UNL     1      64.954   8.302   5.997  1.00  0.00     0.209 C 
HETATM   13  O   UNL     1      66.014   8.897   6.099  1.00  0.00    -0.644 OA
HETATM   14  O   UNL     1      64.620   7.245   6.764  1.00  0.00    -0.644 OA
ENDBRANCH   1  12
TORSDOF 1
ENDMDL
MODEL 4
REMARK VINA RESULT:      -5.1      1.501      3.036
REMARK  1 active torsions:
REMARK  status: ('A' for Active; 'I' for Inactive)
REMARK    1  A    between atoms: C_1  and  C_2 
ROOT
HETATM    1  C   UNL     1      63.148   9.683   4.642  1.00  0.00     0.041 A 
HETATM    2  C   UNL     1      64.289   8.975   5.034  1.00  0.00     0.032 A 
HETATM    3  C   UNL     1      64.638   7.776   4.389  1.00  0.00    -0.008 A 
HETATM    4  N   UNL     1      64.138   6.138   2.688  1.00  0.00    -0.365 N 
ATOM      5  HN  UNL     1      63.542   5.791   1.936  1.00  0.00     0.165 HD
HETATM    6  C   UNL     1      63.841   7.274   3.338  1.00  0.00     0.042 A 
HETATM    7  C   UNL     1      62.364   9.198   3.592  1.00  0.00     0.021 A 
HETATM    8  C   UNL     1      62.716   7.999   2.961  1.00  0.00     0.031 A 
HETATM    9  C   UNL     1      65.251   5.466   3.060  1.00  0.00     0.088 A 
HETATM   10  C   UNL     1      65.780   7.049   4.751  1.00  0.00     0.015 A 
HETATM   11  C   UNL     1      66.095   5.876   4.075  1.00  0.00     0.018 A 
ENDROOT
BRANCH   1  12
HETATM   12  C   UNL     1      62.845  10.964   5.325  1.00  0.00     0.209 C 
HETATM   13  O   UNL     1      63.251  11.223   6.445  1.00  0.00    -0.644 OA
HETATM   14  O   UNL     1      62.051  11.790   4.615  1.00  0.00    -0.644 OA
ENDBRANCH   1  12
TORSDOF 1
ENDMDL
MODEL 5
REMARK VINA RESULT:      -5.1      2.561      3.717
REMARK  1 active torsions:
REMARK  status: ('A' for Active; 'I' for Inactive)
REMARK    1  A    between atoms: C_1  and  C_2 
ROOT
HETATM    1  C   UNL     1      63.230   7.469   5.066  1.00  0.00     0.041 A 
HETATM    2  C   UNL     1      62.886   8.821   5.168  1.00  0.00     0.032 A 
HETATM    3  C   UNL     1      62.533   9.553   4.021  1.00  0.00    -0.008 A 
HETATM    4  N   UNL     1      62.186   9.585   1.632  1.00  0.00    -0.365 N 
ATOM      5  HN  UNL     1      62.193   9.115   0.726  1.00  0.00     0.165 HD
HETATM    6  C   UNL     1      62.523   8.930   2.754  1.00  0.00     0.042 A 
HETATM    7  C   UNL     1      63.207   6.844   3.817  1.00  0.00     0.021 A 
HETATM    8  C   UNL     1      62.862   7.584   2.679  1.00  0.00     0.031 A 
HETATM    9  C   UNL     1      61.838  10.887   1.738  1.00  0.00     0.088 A 
HETATM   10  C   UNL     1      62.173  10.905   4.090  1.00  0.00     0.015 A 
HETATM   11  C   UNL     1      61.817  11.585   2.931  1.00  0.00     0.018 A 
ENDROOT
BRANCH   1  12
HETATM   12  C   UNL     1      63.554   6.730   6.310  1.00  0.00     0.209 C 
HETATM   13  O   UNL     1      64.228   7.213   7.205  1.00  0.00    -0.644 OA
HETATM   14  O   UNL     1      63.074   5.471   6.341  1.00  0.00    -0.644 OA
ENDBRANCH   1  12
TORSDOF 1
ENDMDL
MODEL 6
REMARK VINA RESULT:      -5.0      1.615      3.202
REMARK  1 active torsions:
REMARK  status: ('A' for Active; 'I' for Inactive)
REMARK    1  A    between atoms: C_1  and  C_2 
ROOT
HETATM    1  C   UNL     1      62.253   9.928   3.388  1.00  0.00     0.041 A 
HETATM    2  C   UNL     1      62.607   9.363   4.617  1.00  0.00     0.032 A 
HETATM    3  C   UNL     1      62.919   7.995   4.707  1.00  0.00    -0.008 A 
HETATM    4  N   UNL     1      63.176   5.870   3.591  1.00  0.00    -0.365 N 
ATOM      5  HN  UNL     1      63.133   5.299   2.747  1.00  0.00     0.165 HD
HETATM    6  C   UNL     1      62.879   7.178   3.556  1.00  0.00     0.042 A 
HETATM    7  C   UNL     1      62.226   9.128   2.244  1.00  0.00     0.021 A 
HETATM    8  C   UNL     1      62.531   7.765   2.345  1.00  0.00     0.031 A 
HETATM    9  C   UNL     1      63.534   5.332   4.779  1.00  0.00     0.088 A 
HETATM   10  C   UNL     1      63.288   7.401   5.921  1.00  0.00     0.015 A 
HETATM   11  C   UNL     1      63.603   6.048   5.960  1.00  0.00     0.018 A 
ENDROOT
BRANCH   1  12
HETATM   12  C   UNL     1      61.973  11.384   3.338  1.00  0.00     0.209 C 
HETATM   13  O   UNL     1      61.793  12.054   4.341  1.00  0.00    -0.644 OA
HETATM   14  O   UNL     1      61.895  11.885   2.089  1.00  0.00    -0.644 OA
ENDBRANCH   1  12
TORSDOF 1
ENDMDL
MODEL 7
REMARK VINA RESULT:      -4.7      2.202      2.749
REMARK  1 active torsions:
REMARK  status: ('A' for Active; 'I' for Inactive)
REMARK    1  A    between atoms: C_1  and  C_2 
ROOT
HETATM    1  C   UNL     1      62.137   9.947   3.907  1.00  0.00     0.041 A 
HETATM    2  C   UNL     1      61.301   8.964   3.368  1.00  0.00     0.032 A 
HETATM    3  C   UNL     1      61.400   7.631   3.801  1.00  0.00    -0.008 A 
HETATM    4  N   UNL     1      62.470   6.012   5.238  1.00  0.00    -0.365 N 
ATOM      5  HN  UNL     1      63.164   5.775   5.946  1.00  0.00     0.165 HD
HETATM    6  C   UNL     1      62.343   7.270   4.787  1.00  0.00     0.042 A 
HETATM    7  C   UNL     1      63.062   9.599   4.894  1.00  0.00     0.021 A 
HETATM    8  C   UNL     1      63.158   8.266   5.314  1.00  0.00     0.031 A 
HETATM    9  C   UNL     1      61.648   5.069   4.725  1.00  0.00     0.088 A 
HETATM   10  C   UNL     1      60.570   6.625   3.288  1.00  0.00     0.015 A 
HETATM   11  C   UNL     1      60.693   5.322   3.757  1.00  0.00     0.018 A 
ENDROOT
BRANCH   1  12
HETATM   12  C   UNL     1      61.965  11.346   3.447  1.00  0.00     0.209 C 
HETATM   13  O   UNL     1      61.985  11.658   2.268  1.00  0.00    -0.644 OA
HETATM   14  O   UNL     1      61.830  12.240   4.448  1.00  0.00    -0.644 OA
ENDBRANCH   1  12
TORSDOF 1
ENDMDL
MODEL 8
REMARK VINA RESULT:      -4.6      3.543      4.793
REMARK  1 active torsions:
REMARK  status: ('A' for Active; 'I' for Inactive)
REMARK    1  A    between atoms: C_1  and  C_2 
ROOT
HETATM    1  C   UNL     1      63.938   6.762   2.950  1.00  0.00     0.041 A 
HETATM    2  C   UNL     1      63.067   7.828   2.701  1.00  0.00     0.032 A 
HETATM    3  C   UNL     1      62.983   8.903   3.603  1.00  0.00    -0.008 A 
HETATM    4  N   UNL     1      63.738   9.925   5.656  1.00  0.00    -0.365 N 
ATOM      5  HN  UNL     1      64.317   9.909   6.496  1.00  0.00     0.165 HD
HETATM    6  C   UNL     1      63.779   8.918   4.770  1.00  0.00     0.042 A 
HETATM    7  C   UNL     1      64.738   6.779   4.095  1.00  0.00     0.021 A 
HETATM    8  C   UNL     1      64.641   7.851   4.991  1.00  0.00     0.031 A 
HETATM    9  C   UNL     1      62.907  10.961   5.402  1.00  0.00     0.088 A 
HETATM   10  C   UNL     1      62.129   9.990   3.378  1.00  0.00     0.015 A 
HETATM   11  C   UNL     1      62.090  11.038   4.290  1.00  0.00     0.018 A 
ENDROOT
BRANCH   1  12
HETATM   12  C   UNL     1      64.021   5.673   1.948  1.00  0.00     0.209 C 
HETATM   13  O   UNL     1      64.536   4.594   2.190  1.00  0.00    -0.644 OA
HETATM   14  O   UNL     1      63.517   5.999   0.741  1.00  0.00    -0.644 OA
ENDBRANCH   1  12
TORSDOF 1
ENDMDL
MODEL 9
REMARK VINA RESULT:      -4.6      3.048      4.741
REMARK  1 active torsions:
REMARK  status: ('A' for Active; 'I' for Inactive)
REMARK    1  A    between atoms: C_1  and  C_2 
ROOT
HETATM    1  C   UNL     1      63.084   8.816   4.862  1.00  0.00     0.041 A 
HETATM    2  C   UNL     1      64.482   8.853   4.897  1.00  0.00     0.032 A 
HETATM    3  C   UNL     1      65.200   7.894   5.630  1.00  0.00    -0.008 A 
HETATM    4  N   UNL     1      65.161   5.939   7.047  1.00  0.00    -0.365 N 
ATOM      5  HN  UNL     1      64.646   5.221   7.557  1.00  0.00     0.165 HD
HETATM    6  C   UNL     1      64.518   6.881   6.339  1.00  0.00     0.042 A 
HETATM    7  C   UNL     1      62.405   7.807   5.549  1.00  0.00     0.021 A 
HETATM    8  C   UNL     1      63.130   6.860   6.283  1.00  0.00     0.031 A 
HETATM    9  C   UNL     1      66.513   5.970   7.064  1.00  0.00     0.088 A 
HETATM   10  C   UNL     1      66.601   7.897   5.677  1.00  0.00     0.015 A 
HETATM   11  C   UNL     1      67.270   6.919   6.403  1.00  0.00     0.018 A 
ENDROOT
BRANCH   1  12
HETATM   12  C   UNL     1      62.373   9.825   4.040  1.00  0.00     0.209 C 
HETATM   13  O   UNL     1      61.999  10.895   4.492  1.00  0.00    -0.644 OA
HETATM   14  O   UNL     1      62.144   9.436   2.770  1.00  0.00    -0.644 OA
ENDBRANCH   1  12
TORSDOF 1
ENDMDL
