MODEL 1
REMARK VINA RESULT:      -5.1      0.000      0.000
REMARK  2 active torsions:
REMARK  status: ('A' for Active; 'I' for Inactive)
REMARK    1  A    between atoms: C_3  and  C_8 
REMARK    2  A    between atoms: C_8  and  O_9 
ROOT
HETATM    1  S   UNL     1      63.554   8.893   4.814  1.00  0.00    -0.074 SA
HETATM    2  C   UNL     1      62.963   8.618   3.241  1.00  0.00     0.084 A 
HETATM    3  C   UNL     1      62.838  10.448   4.886  1.00  0.00     0.009 A 
HETATM    4  C   UNL     1      62.143  10.738   3.727  1.00  0.00     0.031 A 
HETATM    5  C   UNL     1      62.216   9.686   2.757  1.00  0.00    -0.001 A 
HETATM    6  N   UNL     1      63.236   7.466   2.592  1.00  0.00    -0.360 N 
ATOM      7  HN  UNL     1      63.788   6.713   3.004  1.00  0.00     0.166 HD
HETATM    8  C   UNL     1      61.693   9.560   1.455  1.00  0.00     0.015 A 
HETATM    9  C   UNL     1      62.713   7.402   1.350  1.00  0.00     0.089 A 
HETATM   10  C   UNL     1      61.956   8.390   0.745  1.00  0.00     0.018 A 
ENDROOT
BRANCH   3  11
HETATM   11  C   UNL     1      63.024  11.303   6.092  1.00  0.00     0.210 C 
BRANCH  11  12
HETATM   12  O   UNL     1      64.422  11.412   6.318  1.00  0.00    -0.396 OA
HETATM   13  H   UNL     1      64.597  12.154   6.918  1.00  0.00     0.209 HD
ENDBRANCH  11  12
ENDBRANCH   3  11
TORSDOF 2
ENDMDL
MODEL 2
REMARK VINA RESULT:      -4.7      1.311      2.034
REMARK  2 active torsions:
REMARK  status: ('A' for Active; 'I' for Inactive)
REMARK    1  A    between atoms: C_3  and  C_8 
REMARK    2  A    between atoms: C_8  and  O_9 
ROOT
HETATM    1  S   UNL     1      62.040  10.337   3.648  1.00  0.00    -0.074 SA
HETATM    2  C   UNL     1      62.578   8.844   3.031  1.00  0.00     0.084 A 
HETATM    3  C   UNL     1      63.075  10.225   5.009  1.00  0.00     0.009 A 
HETATM    4  C   UNL     1      63.831   9.069   4.975  1.00  0.00     0.031 A 
HETATM    5  C   UNL     1      63.544   8.251   3.835  1.00  0.00    -0.001 A 
HETATM    6  N   UNL     1      62.069   8.348   1.883  1.00  0.00    -0.360 N 
ATOM      7  HN  UNL     1      61.362   8.835   1.332  1.00  0.00     0.166 HD
HETATM    8  C   UNL     1      64.044   7.002   3.414  1.00  0.00     0.015 A 
HETATM    9  C   UNL     1      62.582   7.151   1.531  1.00  0.00     0.089 A 
HETATM   10  C   UNL     1      63.542   6.449   2.238  1.00  0.00     0.018 A 
ENDROOT
BRANCH   3  11
HETATM   11  C   UNL     1      63.064  11.293   6.049  1.00  0.00     0.210 C 
BRANCH  11  12
HETATM   12  O   UNL     1      64.409  11.497   6.457  1.00  0.00    -0.396 OA
HETATM   13  H   UNL     1      64.519  11.198   7.372  1.00  0.00     0.209 HD
ENDBRANCH  11  12
ENDBRANCH   3  11
TORSDOF 2
ENDMDL
MODEL 3
REMARK VINA RESULT:      -4.4      2.171      3.001
REMARK  2 active torsions:
REMARK  status: ('A' for Active; 'I' for Inactive)
REMARK    1  A    between atoms: C_3  and  C_8 
REMARK    2  A    between atoms: C_8  and  O_9 
ROOT
HETATM    1  S   UNL     1      63.536   7.214   3.384  1.00  0.00    -0.074 SA
HETATM    2  C   UNL     1      62.823   8.726   3.057  1.00  0.00     0.084 A 
HETATM    3  C   UNL     1      63.761   7.601   5.038  1.00  0.00     0.009 A 
HETATM    4  C   UNL     1      63.279   8.862   5.332  1.00  0.00     0.031 A 
HETATM    5  C   UNL     1      62.740   9.532   4.186  1.00  0.00    -0.001 A 
HETATM    6  N   UNL     1      62.415   9.041   1.810  1.00  0.00    -0.360 N 
ATOM      7  HN  UNL     1      62.498   8.402   1.019  1.00  0.00     0.166 HD
HETATM    8  C   UNL     1      62.176  10.812   4.015  1.00  0.00     0.015 A 
HETATM    9  C   UNL     1      61.886  10.278   1.705  1.00  0.00     0.089 A 
HETATM   10  C   UNL     1      61.747  11.183   2.743  1.00  0.00     0.018 A 
ENDROOT
BRANCH   3  11
HETATM   11  C   UNL     1      64.424   6.627   5.951  1.00  0.00     0.210 C 
BRANCH  11  12
HETATM   12  O   UNL     1      64.436   7.208   7.247  1.00  0.00    -0.396 OA
HETATM   13  H   UNL     1      64.365   6.510   7.916  1.00  0.00     0.209 HD
ENDBRANCH  11  12
ENDBRANCH   3  11
TORSDOF 2
ENDMDL
MODEL 4
REMARK VINA RESULT:      -4.2      3.173      4.343
REMARK  2 active torsions:
REMARK  status: ('A' for Active; 'I' for Inactive)
REMARK    1  A    between atoms: C_3  and  C_8 
REMARK    2  A    between atoms: C_8  and  O_9 
ROOT
HETATM    1  S   UNL     1      63.354   9.468   5.112  1.00  0.00    -0.074 SA
HETATM    2  C   UNL     1      64.707   8.436   5.192  1.00  0.00     0.084 A 
HETATM    3  C   UNL     1      62.754   8.686   3.710  1.00  0.00     0.009 A 
HETATM    4  C   UNL     1      63.572   7.641   3.325  1.00  0.00     0.031 A 
HETATM    5  C   UNL     1      64.718   7.491   4.172  1.00  0.00    -0.001 A 
HETATM    6  N   UNL     1      65.632   8.585   6.163  1.00  0.00    -0.360 N 
ATOM      7  HN  UNL     1      65.566   9.297   6.890  1.00  0.00     0.166 HD
HETATM    8  C   UNL     1      65.807   6.597   4.144  1.00  0.00     0.015 A 
HETATM    9  C   UNL     1      66.652   7.705   6.085  1.00  0.00     0.089 A 
HETATM   10  C   UNL     1      66.790   6.718   5.124  1.00  0.00     0.018 A 
ENDROOT
BRANCH   3  11
HETATM   11  C   UNL     1      61.505   9.171   3.058  1.00  0.00     0.210 C 
BRANCH  11  12
HETATM   12  O   UNL     1      61.140  10.385   3.701  1.00  0.00    -0.396 OA
HETATM   13  H   UNL     1      60.194  10.550   3.568  1.00  0.00     0.209 HD
ENDBRANCH  11  12
ENDBRANCH   3  11
TORSDOF 2
ENDMDL
MODEL 5
REMARK VINA RESULT:      -3.9      3.023      4.245
REMARK  2 active torsions:
REMARK  status: ('A' for Active; 'I' for Inactive)
REMARK    1  A    between atoms: C_3  and  C_8 
REMARK    2  A    between atoms: C_8  and  O_9 
ROOT
HETATM    1  S   UNL     1      64.864   7.844   5.412  1.00  0.00    -0.074 SA
HETATM    2  C   UNL     1      63.763   9.032   4.887  1.00  0.00     0.084 A 
HETATM    3  C   UNL     1      64.540   6.846   4.058  1.00  0.00     0.009 A 
HETATM    4  C   UNL     1      63.616   7.428   3.211  1.00  0.00     0.031 A 
HETATM    5  C   UNL     1      63.147   8.695   3.687  1.00  0.00    -0.001 A 
HETATM    6  N   UNL     1      63.555  10.151   5.614  1.00  0.00    -0.360 N 
ATOM      7  HN  UNL     1      64.043  10.345   6.488  1.00  0.00     0.166 HD
HETATM    8  C   UNL     1      62.206   9.611   3.175  1.00  0.00     0.015 A 
HETATM    9  C   UNL     1      62.643  10.988   5.077  1.00  0.00     0.089 A 
HETATM   10  C   UNL     1      61.954  10.776   3.896  1.00  0.00     0.018 A 
ENDROOT
BRANCH   3  11
HETATM   11  C   UNL     1      65.216   5.525   3.922  1.00  0.00     0.210 C 
BRANCH  11  12
HETATM   12  O   UNL     1      64.203   4.558   3.685  1.00  0.00    -0.396 OA
HETATM   13  H   UNL     1      63.332   4.978   3.751  1.00  0.00     0.209 HD
ENDBRANCH  11  12
ENDBRANCH   3  11
TORSDOF 2
ENDMDL
MODEL 6
REMARK VINA RESULT:      -3.8      2.931      3.369
REMARK  2 active torsions:
REMARK  status: ('A' for Active; 'I' for Inactive)
REMARK    1  A    between atoms: C_3  and  C_8 
REMARK    2  A    between atoms: C_8  and  O_9 
ROOT
HETATM    1  S   UNL     1      64.095   6.538   6.322  1.00  0.00    -0.074 SA
HETATM    2  C   UNL     1      63.041   7.277   5.206  1.00  0.00     0.084 A 
HETATM    3  C   UNL     1      65.358   7.640   5.962  1.00  0.00     0.009 A 
HETATM    4  C   UNL     1      64.966   8.567   5.016  1.00  0.00     0.031 A 
HETATM    5  C   UNL     1      63.623   8.361   4.559  1.00  0.00    -0.001 A 
HETATM    6  N   UNL     1      61.792   6.801   5.017  1.00  0.00    -0.360 N 
ATOM      7  HN  UNL     1      61.418   6.001   5.528  1.00  0.00     0.166 HD
HETATM    8  C   UNL     1      62.833   9.033   3.604  1.00  0.00     0.015 A 
HETATM    9  C   UNL     1      61.084   7.480   4.091  1.00  0.00     0.089 A 
HETATM   10  C   UNL     1      61.540   8.571   3.372  1.00  0.00     0.018 A 
ENDROOT
BRANCH   3  11
HETATM   11  C   UNL     1      66.681   7.507   6.635  1.00  0.00     0.210 C 
BRANCH  11  12
HETATM   12  O   UNL     1      66.963   8.753   7.256  1.00  0.00    -0.396 OA
HETATM   13  H   UNL     1      67.875   8.751   7.587  1.00  0.00     0.209 HD
ENDBRANCH  11  12
ENDBRANCH   3  11
TORSDOF 2
ENDMDL
MODEL 7
REMARK VINA RESULT:      -3.8      2.969      3.990
REMARK  2 active torsions:
REMARK  status: ('A' for Active; 'I' for Inactive)
REMARK    1  A    between atoms: C_3  and  C_8 
REMARK    2  A    between atoms: C_8  and  O_9 
ROOT
HETATM    1  S   UNL     1      64.452   6.792   3.471  1.00  0.00    -0.074 SA
HETATM    2  C   UNL     1      63.524   8.196   3.734  1.00  0.00     0.084 A 
HETATM    3  C   UNL     1      65.455   7.119   4.822  1.00  0.00     0.009 A 
HETATM    4  C   UNL     1      65.068   8.276   5.470  1.00  0.00     0.031 A 
HETATM    5  C   UNL     1      63.953   8.919   4.842  1.00  0.00    -0.001 A 
HETATM    6  N   UNL     1      62.503   8.513   2.911  1.00  0.00    -0.360 N 
ATOM      7  HN  UNL     1      62.232   7.938   2.113  1.00  0.00     0.166 HD
HETATM    8  C   UNL     1      63.255  10.107   5.137  1.00  0.00     0.015 A 
HETATM    9  C   UNL     1      61.874   9.661   3.238  1.00  0.00     0.089 A 
HETATM   10  C   UNL     1      62.197  10.478   4.308  1.00  0.00     0.018 A 
ENDROOT
BRANCH   3  11
HETATM   11  C   UNL     1      66.587   6.208   5.151  1.00  0.00     0.210 C 
BRANCH  11  12
HETATM   12  O   UNL     1      67.589   6.408   4.163  1.00  0.00    -0.396 OA
HETATM   13  H   UNL     1      68.007   7.272   4.297  1.00  0.00     0.209 HD
ENDBRANCH  11  12
ENDBRANCH   3  11
TORSDOF 2
ENDMDL
MODEL 8
REMARK VINA RESULT:      -3.8      2.330      2.940
REMARK  2 active torsions:
REMARK  status: ('A' for Active; 'I' for Inactive)
REMARK    1  A    between atoms: C_3  and  C_8 
REMARK    2  A    between atoms: C_8  and  O_9 
ROOT
HETATM    1  S   UNL     1      65.218   8.509   5.414  1.00  0.00    -0.074 SA
HETATM    2  C   UNL     1      65.107   7.245   4.278  1.00  0.00     0.084 A 
HETATM    3  C   UNL     1      63.736   9.196   4.897  1.00  0.00     0.009 A 
HETATM    4  C   UNL     1      63.162   8.455   3.883  1.00  0.00     0.031 A 
HETATM    5  C   UNL     1      63.954   7.322   3.505  1.00  0.00    -0.001 A 
HETATM    6  N   UNL     1      66.076   6.310   4.188  1.00  0.00    -0.360 N 
ATOM      7  HN  UNL     1      66.900   6.303   4.789  1.00  0.00     0.166 HD
HETATM    8  C   UNL     1      63.776   6.326   2.524  1.00  0.00     0.015 A 
HETATM    9  C   UNL     1      65.855   5.385   3.231  1.00  0.00     0.089 A 
HETATM   10  C   UNL     1      64.755   5.344   2.391  1.00  0.00     0.018 A 
ENDROOT
BRANCH   3  11
HETATM   11  C   UNL     1      63.235  10.452   5.523  1.00  0.00     0.210 C 
BRANCH  11  12
HETATM   12  O   UNL     1      64.359  11.124   6.076  1.00  0.00    -0.396 OA
HETATM   13  H   UNL     1      64.510  11.952   5.595  1.00  0.00     0.209 HD
ENDBRANCH  11  12
ENDBRANCH   3  11
TORSDOF 2
ENDMDL
MODEL 9
REMARK VINA RESULT:      -3.7      5.298      6.264
REMARK  2 active torsions:
REMARK  status: ('A' for Active; 'I' for Inactive)
REMARK    1  A    between atoms: C_3  and  C_8 
REMARK    2  A    between atoms: C_8  and  O_9 
ROOT
HETATM    1  S   UNL     1      66.651   8.086   5.876  1.00  0.00    -0.074 SA
HETATM    2  C   UNL     1      66.851   6.628   6.733  1.00  0.00     0.084 A 
HETATM    3  C   UNL     1      64.958   7.856   5.744  1.00  0.00     0.009 A 
HETATM    4  C   UNL     1      64.557   6.688   6.364  1.00  0.00     0.031 A 
HETATM    5  C   UNL     1      65.649   5.957   6.934  1.00  0.00    -0.001 A 
HETATM    6  N   UNL     1      68.075   6.225   7.134  1.00  0.00    -0.360 N 
ATOM      7  HN  UNL     1      68.923   6.764   6.961  1.00  0.00     0.166 HD
HETATM    8  C   UNL     1      65.711   4.730   7.624  1.00  0.00     0.015 A 
HETATM    9  C   UNL     1      68.074   5.043   7.786  1.00  0.00     0.089 A 
HETATM   10  C   UNL     1      66.956   4.272   8.051  1.00  0.00     0.018 A 
ENDROOT
BRANCH   3  11
HETATM   11  C   UNL     1      64.123   8.848   5.010  1.00  0.00     0.210 C 
BRANCH  11  12
HETATM   12  O   UNL     1      64.267  10.094   5.679  1.00  0.00    -0.396 OA
HETATM   13  H   UNL     1      63.814  10.787   5.174  1.00  0.00     0.209 HD
ENDBRANCH  11  12
ENDBRANCH   3  11
TORSDOF 2
ENDMDL
