MODEL 1
REMARK VINA RESULT:      -4.4      0.000      0.000
REMARK  1 active torsions:
REMARK  status: ('A' for Active; 'I' for Inactive)
REMARK    1  A    between atoms: C_9  and  N_10 
ROOT
HETATM    1  N   UNL     1      64.303   8.322   5.846  1.00  0.00    -0.359 N 
ATOM      2  HN  UNL     1      64.594   8.567   6.792  1.00  0.00     0.166 HD
HETATM    3  C   UNL     1      63.253   8.578   3.756  1.00  0.00     0.035 A 
HETATM    4  C   UNL     1      64.593   7.199   5.229  1.00  0.00     0.139 A 
HETATM    5  S   UNL     1      63.976   7.017   3.642  1.00  0.00    -0.083 SA
HETATM    6  C   UNL     1      63.541   9.121   5.009  1.00  0.00     0.049 A 
HETATM    7  C   UNL     1      62.495   9.276   2.799  1.00  0.00     0.050 A 
HETATM    8  C   UNL     1      63.064  10.411   5.309  1.00  0.00     0.033 A 
HETATM    9  C   UNL     1      61.982  10.538   3.130  1.00  0.00     0.027 A 
HETATM   10  C   UNL     1      62.312  11.112   4.357  1.00  0.00     0.031 A 
ENDROOT
BRANCH   9  11
HETATM   11  N   UNL     1      61.348  11.309   2.146  1.00  0.00    -0.399 N 
HETATM   12  H   UNL     1      61.225  12.277   2.283  1.00  0.00     0.156 HD
HETATM   13  H   UNL     1      61.024  10.883   1.319  1.00  0.00     0.156 HD
ENDBRANCH   9  11
TORSDOF 1
ENDMDL
MODEL 2
REMARK VINA RESULT:      -4.3      1.612      2.824
REMARK  1 active torsions:
REMARK  status: ('A' for Active; 'I' for Inactive)
REMARK    1  A    between atoms: C_9  and  N_10 
ROOT
HETATM    1  N   UNL     1      62.096   8.289   1.938  1.00  0.00    -0.359 N 
ATOM      2  HN  UNL     1      61.446   8.496   1.180  1.00  0.00     0.166 HD
HETATM    3  C   UNL     1      63.317   8.647   3.917  1.00  0.00     0.035 A 
HETATM    4  C   UNL     1      62.785   7.179   2.066  1.00  0.00     0.139 A 
HETATM    5  S   UNL     1      63.821   7.074   3.424  1.00  0.00    -0.083 SA
HETATM    6  C   UNL     1      62.388   9.135   2.997  1.00  0.00     0.049 A 
HETATM    7  C   UNL     1      63.706   9.391   5.045  1.00  0.00     0.050 A 
HETATM    8  C   UNL     1      61.822  10.404   3.220  1.00  0.00     0.033 A 
HETATM    9  C   UNL     1      63.175  10.675   5.227  1.00  0.00     0.027 A 
HETATM   10  C   UNL     1      62.205  11.147   4.344  1.00  0.00     0.031 A 
ENDROOT
BRANCH   9  11
HETATM   11  N   UNL     1      63.439  11.374   6.414  1.00  0.00    -0.399 N 
HETATM   12  H   UNL     1      63.742  12.310   6.376  1.00  0.00     0.156 HD
HETATM   13  H   UNL     1      63.321  10.928   7.284  1.00  0.00     0.156 HD
ENDBRANCH   9  11
TORSDOF 1
ENDMDL
MODEL 3
REMARK VINA RESULT:      -4.1      2.244      3.185
REMARK  1 active torsions:
REMARK  status: ('A' for Active; 'I' for Inactive)
REMARK    1  A    between atoms: C_9  and  N_10 
ROOT
HETATM    1  N   UNL     1      63.023   7.221   2.122  1.00  0.00    -0.359 N 
ATOM      2  HN  UNL     1      63.535   6.340   2.087  1.00  0.00     0.166 HD
HETATM    3  C   UNL     1      62.307   9.290   2.983  1.00  0.00     0.035 A 
HETATM    4  C   UNL     1      62.178   7.645   1.210  1.00  0.00     0.139 A 
HETATM    5  S   UNL     1      61.432   9.158   1.504  1.00  0.00    -0.083 SA
HETATM    6  C   UNL     1      63.108   8.158   3.140  1.00  0.00     0.049 A 
HETATM    7  C   UNL     1      62.294  10.329   3.931  1.00  0.00     0.050 A 
HETATM    8  C   UNL     1      63.932   8.069   4.277  1.00  0.00     0.033 A 
HETATM    9  C   UNL     1      63.080  10.203   5.085  1.00  0.00     0.027 A 
HETATM   10  C   UNL     1      63.925   9.103   5.223  1.00  0.00     0.031 A 
ENDROOT
BRANCH   9  11
HETATM   11  N   UNL     1      63.191  11.284   5.970  1.00  0.00    -0.399 N 
HETATM   12  H   UNL     1      63.263  11.121   6.939  1.00  0.00     0.156 HD
HETATM   13  H   UNL     1      63.197  12.206   5.624  1.00  0.00     0.156 HD
ENDBRANCH   9  11
TORSDOF 1
ENDMDL
MODEL 4
REMARK VINA RESULT:      -4.0      2.445      4.078
REMARK  1 active torsions:
REMARK  status: ('A' for Active; 'I' for Inactive)
REMARK    1  A    between atoms: C_9  and  N_10 
ROOT
HETATM    1  N   UNL     1      61.644  10.889   2.760  1.00  0.00    -0.359 N 
ATOM      2  HN  UNL     1      61.147  11.605   2.232  1.00  0.00     0.166 HD
HETATM    3  C   UNL     1      62.688   8.822   3.176  1.00  0.00     0.035 A 
HETATM    4  C   UNL     1      62.024  10.995   4.013  1.00  0.00     0.139 A 
HETATM    5  S   UNL     1      62.836   9.646   4.683  1.00  0.00    -0.083 SA
HETATM    6  C   UNL     1      62.025   9.650   2.269  1.00  0.00     0.049 A 
HETATM    7  C   UNL     1      63.141   7.539   2.818  1.00  0.00     0.050 A 
HETATM    8  C   UNL     1      61.817   9.182   0.958  1.00  0.00     0.033 A 
HETATM    9  C   UNL     1      62.881   7.065   1.525  1.00  0.00     0.027 A 
HETATM   10  C   UNL     1      62.268   7.906   0.596  1.00  0.00     0.031 A 
ENDROOT
BRANCH   9  11
HETATM   11  N   UNL     1      63.443   5.852   1.104  1.00  0.00    -0.399 N 
HETATM   12  H   UNL     1      63.188   5.011   1.548  1.00  0.00     0.156 HD
HETATM   13  H   UNL     1      64.093   5.841   0.364  1.00  0.00     0.156 HD
ENDBRANCH   9  11
TORSDOF 1
ENDMDL
MODEL 5
REMARK VINA RESULT:      -3.8      1.832      2.572
REMARK  1 active torsions:
REMARK  status: ('A' for Active; 'I' for Inactive)
REMARK    1  A    between atoms: C_9  and  N_10 
ROOT
HETATM    1  N   UNL     1      62.605   6.544   3.189  1.00  0.00    -0.359 N 
ATOM      2  HN  UNL     1      62.612   5.734   2.570  1.00  0.00     0.166 HD
HETATM    3  C   UNL     1      62.433   8.807   3.811  1.00  0.00     0.035 A 
HETATM    4  C   UNL     1      62.800   6.510   4.488  1.00  0.00     0.139 A 
HETATM    5  S   UNL     1      62.751   8.012   5.308  1.00  0.00    -0.083 SA
HETATM    6  C   UNL     1      62.387   7.854   2.792  1.00  0.00     0.049 A 
HETATM    7  C   UNL     1      62.224  10.175   3.561  1.00  0.00     0.050 A 
HETATM    8  C   UNL     1      62.113   8.285   1.481  1.00  0.00     0.033 A 
HETATM    9  C   UNL     1      62.003  10.596   2.242  1.00  0.00     0.027 A 
HETATM   10  C   UNL     1      61.901   9.647   1.227  1.00  0.00     0.031 A 
ENDROOT
BRANCH   9  11
HETATM   11  N   UNL     1      61.654  11.930   1.989  1.00  0.00    -0.399 N 
HETATM   12  H   UNL     1      60.745  12.150   1.679  1.00  0.00     0.156 HD
HETATM   13  H   UNL     1      62.316  12.646   2.121  1.00  0.00     0.156 HD
ENDBRANCH   9  11
TORSDOF 1
ENDMDL
MODEL 6
REMARK VINA RESULT:      -3.6      3.945      6.712
REMARK  1 active torsions:
REMARK  status: ('A' for Active; 'I' for Inactive)
REMARK    1  A    between atoms: C_9  and  N_10 
ROOT
HETATM    1  N   UNL     1      66.190   8.322   6.585  1.00  0.00    -0.359 N 
ATOM      2  HN  UNL     1      66.318   9.251   6.986  1.00  0.00     0.166 HD
HETATM    3  C   UNL     1      66.251   5.973   6.471  1.00  0.00     0.035 A 
HETATM    4  C   UNL     1      65.708   8.071   5.390  1.00  0.00     0.139 A 
HETATM    5  S   UNL     1      65.603   6.423   4.938  1.00  0.00    -0.083 SA
HETATM    6  C   UNL     1      66.499   7.127   7.215  1.00  0.00     0.049 A 
HETATM    7  C   UNL     1      66.508   4.689   6.982  1.00  0.00     0.050 A 
HETATM    8  C   UNL     1      67.012   6.990   8.519  1.00  0.00     0.033 A 
HETATM    9  C   UNL     1      67.068   4.568   8.262  1.00  0.00     0.027 A 
HETATM   10  C   UNL     1      67.267   5.712   9.034  1.00  0.00     0.031 A 
ENDROOT
BRANCH   9  11
HETATM   11  N   UNL     1      67.200   3.300   8.845  1.00  0.00    -0.399 N 
HETATM   12  H   UNL     1      67.145   2.493   8.284  1.00  0.00     0.156 HD
HETATM   13  H   UNL     1      67.348   3.217   9.815  1.00  0.00     0.156 HD
ENDBRANCH   9  11
TORSDOF 1
ENDMDL
MODEL 7
REMARK VINA RESULT:      -3.6      2.297      2.633
REMARK  1 active torsions:
REMARK  status: ('A' for Active; 'I' for Inactive)
REMARK    1  A    between atoms: C_9  and  N_10 
ROOT
HETATM    1  N   UNL     1      62.292   6.512   3.098  1.00  0.00    -0.359 N 
ATOM      2  HN  UNL     1      62.255   6.046   4.004  1.00  0.00     0.166 HD
HETATM    3  C   UNL     1      62.224   8.293   1.562  1.00  0.00     0.035 A 
HETATM    4  C   UNL     1      62.481   5.915   1.944  1.00  0.00     0.139 A 
HETATM    5  S   UNL     1      62.489   6.918   0.557  1.00  0.00    -0.083 SA
HETATM    6  C   UNL     1      62.150   7.875   2.892  1.00  0.00     0.049 A 
HETATM    7  C   UNL     1      62.105   9.647   1.201  1.00  0.00     0.050 A 
HETATM    8  C   UNL     1      61.960   8.846   3.893  1.00  0.00     0.033 A 
HETATM    9  C   UNL     1      61.864  10.597   2.202  1.00  0.00     0.027 A 
HETATM   10  C   UNL     1      61.844  10.196   3.537  1.00  0.00     0.031 A 
ENDROOT
BRANCH   9  11
HETATM   11  N   UNL     1      61.883  11.962   1.883  1.00  0.00    -0.399 N 
HETATM   12  H   UNL     1      62.678  12.505   2.091  1.00  0.00     0.156 HD
HETATM   13  H   UNL     1      61.102  12.377   1.450  1.00  0.00     0.156 HD
ENDBRANCH   9  11
TORSDOF 1
ENDMDL
MODEL 8
REMARK VINA RESULT:      -3.6      1.978      4.226
REMARK  1 active torsions:
REMARK  status: ('A' for Active; 'I' for Inactive)
REMARK    1  A    between atoms: C_9  and  N_10 
ROOT
HETATM    1  N   UNL     1      62.318   8.354   1.686  1.00  0.00    -0.359 N 
ATOM      2  HN  UNL     1      62.270   7.730   0.881  1.00  0.00     0.166 HD
HETATM    3  C   UNL     1      62.964   9.110   3.818  1.00  0.00     0.035 A 
HETATM    4  C   UNL     1      61.693   9.504   1.794  1.00  0.00     0.139 A 
HETATM    5  S   UNL     1      61.925  10.366   3.255  1.00  0.00    -0.083 SA
HETATM    6  C   UNL     1      63.054   8.121   2.837  1.00  0.00     0.049 A 
HETATM    7  C   UNL     1      63.660   9.015   5.036  1.00  0.00     0.050 A 
HETATM    8  C   UNL     1      63.876   7.006   3.080  1.00  0.00     0.033 A 
HETATM    9  C   UNL     1      64.434   7.874   5.287  1.00  0.00     0.027 A 
HETATM   10  C   UNL     1      64.574   6.908   4.291  1.00  0.00     0.031 A 
ENDROOT
BRANCH   9  11
HETATM   11  N   UNL     1      65.246   7.822   6.429  1.00  0.00    -0.399 N 
HETATM   12  H   UNL     1      64.876   7.492   7.280  1.00  0.00     0.156 HD
HETATM   13  H   UNL     1      66.184   8.116   6.379  1.00  0.00     0.156 HD
ENDBRANCH   9  11
TORSDOF 1
ENDMDL
MODEL 9
REMARK VINA RESULT:      -3.4      2.047      2.958
REMARK  1 active torsions:
REMARK  status: ('A' for Active; 'I' for Inactive)
REMARK    1  A    between atoms: C_9  and  N_10 
ROOT
HETATM    1  N   UNL     1      64.448   6.075   2.809  1.00  0.00    -0.359 N 
ATOM      2  HN  UNL     1      63.941   5.639   2.040  1.00  0.00     0.166 HD
HETATM    3  C   UNL     1      64.909   7.645   4.499  1.00  0.00     0.035 A 
HETATM    4  C   UNL     1      65.578   5.640   3.317  1.00  0.00     0.139 A 
HETATM    5  S   UNL     1      66.242   6.556   4.602  1.00  0.00    -0.083 SA
HETATM    6  C   UNL     1      64.053   7.220   3.483  1.00  0.00     0.049 A 
HETATM    7  C   UNL     1      64.635   8.787   5.274  1.00  0.00     0.050 A 
HETATM    8  C   UNL     1      62.878   7.956   3.241  1.00  0.00     0.033 A 
HETATM    9  C   UNL     1      63.488   9.540   4.988  1.00  0.00     0.027 A 
HETATM   10  C   UNL     1      62.599   9.092   4.012  1.00  0.00     0.031 A 
ENDROOT
BRANCH   9  11
HETATM   11  N   UNL     1      63.122  10.596   5.834  1.00  0.00    -0.399 N 
HETATM   12  H   UNL     1      63.806  11.052   6.376  1.00  0.00     0.156 HD
HETATM   13  H   UNL     1      62.181  10.881   5.887  1.00  0.00     0.156 HD
ENDBRANCH   9  11
TORSDOF 1
ENDMDL
