MODEL 1
REMARK VINA RESULT:      -4.9      0.000      0.000
REMARK  1 active torsions:
REMARK  status: ('A' for Active; 'I' for Inactive)
REMARK    1  A    between atoms: C_3  and  C_6 
ROOT
HETATM    1  N   UNL     1      62.613   7.064   0.678  1.00  0.00    -0.359 N 
ATOM      2  HN  UNL     1      62.221   7.102  -0.263  1.00  0.00     0.166 HD
HETATM    3  C   UNL     1      63.272   6.046   1.184  1.00  0.00     0.139 A 
HETATM    4  C   UNL     1      63.145   7.806   2.846  1.00  0.00     0.034 A 
HETATM    5  C   UNL     1      62.502   9.969   3.699  1.00  0.00     0.042 A 
HETATM    6  S   UNL     1      63.836   6.228   2.790  1.00  0.00    -0.083 SA
HETATM    7  C   UNL     1      62.533   8.076   1.619  1.00  0.00     0.049 A 
HETATM    8  C   UNL     1      63.144   8.736   3.899  1.00  0.00     0.039 A 
HETATM    9  C   UNL     1      61.888  10.258   2.478  1.00  0.00     0.021 A 
HETATM   10  C   UNL     1      61.898   9.321   1.437  1.00  0.00     0.032 A 
ENDROOT
BRANCH   5  11
HETATM   11  C   UNL     1      62.503  10.939   4.822  1.00  0.00     0.209 C 
HETATM   12  O   UNL     1      62.991  10.755   5.922  1.00  0.00    -0.644 OA
HETATM   13  O   UNL     1      61.888  12.094   4.513  1.00  0.00    -0.644 OA
ENDBRANCH   5  11
TORSDOF 1
ENDMDL
MODEL 2
REMARK VINA RESULT:      -4.8      2.448      3.064
REMARK  1 active torsions:
REMARK  status: ('A' for Active; 'I' for Inactive)
REMARK    1  A    between atoms: C_3  and  C_6 
ROOT
HETATM    1  N   UNL     1      61.081   9.698   1.857  1.00  0.00    -0.359 N 
ATOM      2  HN  UNL     1      60.439  10.489   1.793  1.00  0.00     0.166 HD
HETATM    3  C   UNL     1      61.189   8.738   0.968  1.00  0.00     0.139 A 
HETATM    4  C   UNL     1      62.755   8.322   2.771  1.00  0.00     0.034 A 
HETATM    5  C   UNL     1      63.849   8.785   4.870  1.00  0.00     0.042 A 
HETATM    6  S   UNL     1      62.345   7.520   1.300  1.00  0.00    -0.083 SA
HETATM    7  C   UNL     1      61.970   9.472   2.892  1.00  0.00     0.049 A 
HETATM    8  C   UNL     1      63.700   7.959   3.744  1.00  0.00     0.039 A 
HETATM    9  C   UNL     1      63.076   9.940   5.008  1.00  0.00     0.021 A 
HETATM   10  C   UNL     1      62.138  10.290   4.028  1.00  0.00     0.032 A 
ENDROOT
BRANCH   5  11
HETATM   11  C   UNL     1      64.846   8.386   5.894  1.00  0.00     0.209 C 
HETATM   12  O   UNL     1      65.930   8.910   6.075  1.00  0.00    -0.644 OA
HETATM   13  O   UNL     1      64.438   7.345   6.641  1.00  0.00    -0.644 OA
ENDBRANCH   5  11
TORSDOF 1
ENDMDL
MODEL 3
REMARK VINA RESULT:      -4.6      1.742      2.004
REMARK  1 active torsions:
REMARK  status: ('A' for Active; 'I' for Inactive)
REMARK    1  A    between atoms: C_3  and  C_6 
ROOT
HETATM    1  N   UNL     1      64.219   5.995   2.838  1.00  0.00    -0.359 N 
ATOM      2  HN  UNL     1      63.790   5.520   2.044  1.00  0.00     0.166 HD
HETATM    3  C   UNL     1      65.247   5.547   3.523  1.00  0.00     0.139 A 
HETATM    4  C   UNL     1      64.546   7.673   4.454  1.00  0.00     0.034 A 
HETATM    5  C   UNL     1      63.169   9.647   4.609  1.00  0.00     0.042 A 
HETATM    6  S   UNL     1      65.788   6.532   4.814  1.00  0.00    -0.083 SA
HETATM    7  C   UNL     1      63.809   7.209   3.361  1.00  0.00     0.049 A 
HETATM    8  C   UNL     1      64.246   8.887   5.093  1.00  0.00     0.039 A 
HETATM    9  C   UNL     1      62.422   9.201   3.516  1.00  0.00     0.021 A 
HETATM   10  C   UNL     1      62.734   7.988   2.888  1.00  0.00     0.032 A 
ENDROOT
BRANCH   5  11
HETATM   11  C   UNL     1      62.859  10.925   5.298  1.00  0.00     0.209 C 
HETATM   12  O   UNL     1      63.297  11.276   6.377  1.00  0.00    -0.644 OA
HETATM   13  O   UNL     1      62.012  11.701   4.599  1.00  0.00    -0.644 OA
ENDBRANCH   5  11
TORSDOF 1
ENDMDL
MODEL 4
REMARK VINA RESULT:      -4.6      1.307      2.129
REMARK  1 active torsions:
REMARK  status: ('A' for Active; 'I' for Inactive)
REMARK    1  A    between atoms: C_3  and  C_6 
ROOT
HETATM    1  N   UNL     1      63.157   6.477   1.590  1.00  0.00    -0.359 N 
ATOM      2  HN  UNL     1      63.744   5.653   1.721  1.00  0.00     0.166 HD
HETATM    3  C   UNL     1      62.368   6.690   0.562  1.00  0.00     0.139 A 
HETATM    4  C   UNL     1      62.196   8.566   2.087  1.00  0.00     0.034 A 
HETATM    5  C   UNL     1      62.717   9.821   4.080  1.00  0.00     0.042 A 
HETATM    6  S   UNL     1      61.477   8.151   0.575  1.00  0.00    -0.083 SA
HETATM    7  C   UNL     1      63.068   7.542   2.469  1.00  0.00     0.049 A 
HETATM    8  C   UNL     1      62.004   9.713   2.875  1.00  0.00     0.039 A 
HETATM    9  C   UNL     1      63.590   8.807   4.480  1.00  0.00     0.021 A 
HETATM   10  C   UNL     1      63.771   7.669   3.684  1.00  0.00     0.032 A 
ENDROOT
BRANCH   5  11
HETATM   11  C   UNL     1      62.509  11.042   4.899  1.00  0.00     0.209 C 
HETATM   12  O   UNL     1      61.921  12.046   4.544  1.00  0.00    -0.644 OA
HETATM   13  O   UNL     1      63.051  10.944   6.125  1.00  0.00    -0.644 OA
ENDBRANCH   5  11
TORSDOF 1
ENDMDL
MODEL 5
REMARK VINA RESULT:      -4.6      1.821      2.100
REMARK  1 active torsions:
REMARK  status: ('A' for Active; 'I' for Inactive)
REMARK    1  A    between atoms: C_3  and  C_6 
ROOT
HETATM    1  N   UNL     1      61.327   5.832   0.953  1.00  0.00    -0.359 N 
ATOM      2  HN  UNL     1      61.528   5.467   0.022  1.00  0.00     0.166 HD
HETATM    3  C   UNL     1      60.865   5.127   1.960  1.00  0.00     0.139 A 
HETATM    4  C   UNL     1      61.162   7.423   2.678  1.00  0.00     0.034 A 
HETATM    5  C   UNL     1      61.756   9.744   2.398  1.00  0.00     0.042 A 
HETATM    6  S   UNL     1      60.614   5.971   3.428  1.00  0.00    -0.083 SA
HETATM    7  C   UNL     1      61.501   7.146   1.351  1.00  0.00     0.049 A 
HETATM    8  C   UNL     1      61.282   8.712   3.224  1.00  0.00     0.039 A 
HETATM    9  C   UNL     1      62.102   9.487   1.070  1.00  0.00     0.021 A 
HETATM   10  C   UNL     1      61.979   8.196   0.540  1.00  0.00     0.032 A 
ENDROOT
BRANCH   5  11
HETATM   11  C   UNL     1      61.871  11.103   2.986  1.00  0.00     0.209 C 
HETATM   12  O   UNL     1      61.877  11.366   4.174  1.00  0.00    -0.644 OA
HETATM   13  O   UNL     1      61.970  12.067   2.054  1.00  0.00    -0.644 OA
ENDBRANCH   5  11
TORSDOF 1
ENDMDL
MODEL 6
REMARK VINA RESULT:      -4.5      2.406      2.890
REMARK  1 active torsions:
REMARK  status: ('A' for Active; 'I' for Inactive)
REMARK    1  A    between atoms: C_3  and  C_6 
ROOT
HETATM    1  N   UNL     1      62.594   5.744   5.054  1.00  0.00    -0.359 N 
ATOM      2  HN  UNL     1      62.015   4.930   4.849  1.00  0.00     0.166 HD
HETATM    3  C   UNL     1      63.679   5.736   5.794  1.00  0.00     0.139 A 
HETATM    4  C   UNL     1      63.284   7.993   5.003  1.00  0.00     0.034 A 
HETATM    5  C   UNL     1      62.092   9.715   3.807  1.00  0.00     0.042 A 
HETATM    6  S   UNL     1      64.481   7.236   5.987  1.00  0.00    -0.083 SA
HETATM    7  C   UNL     1      62.357   7.029   4.597  1.00  0.00     0.049 A 
HETATM    8  C   UNL     1      63.173   9.340   4.621  1.00  0.00     0.039 A 
HETATM    9  C   UNL     1      61.157   8.766   3.389  1.00  0.00     0.021 A 
HETATM   10  C   UNL     1      61.281   7.426   3.777  1.00  0.00     0.032 A 
ENDROOT
BRANCH   5  11
HETATM   11  C   UNL     1      61.984  11.143   3.416  1.00  0.00     0.209 C 
HETATM   12  O   UNL     1      61.974  11.571   2.277  1.00  0.00    -0.644 OA
HETATM   13  O   UNL     1      61.896  11.967   4.475  1.00  0.00    -0.644 OA
ENDBRANCH   5  11
TORSDOF 1
ENDMDL
MODEL 7
REMARK VINA RESULT:      -4.4      6.817      7.699
REMARK  1 active torsions:
REMARK  status: ('A' for Active; 'I' for Inactive)
REMARK    1  A    between atoms: C_3  and  C_6 
ROOT
HETATM    1  N   UNL     1      67.798   3.358   9.123  1.00  0.00    -0.359 N 
ATOM      2  HN  UNL     1      67.759   3.233  10.135  1.00  0.00     0.166 HD
HETATM    3  C   UNL     1      68.074   2.413   8.253  1.00  0.00     0.139 A 
HETATM    4  C   UNL     1      67.676   4.487   7.062  1.00  0.00     0.034 A 
HETATM    5  C   UNL     1      67.159   6.835   6.869  1.00  0.00     0.042 A 
HETATM    6  S   UNL     1      68.075   2.873   6.604  1.00  0.00    -0.083 SA
HETATM    7  C   UNL     1      67.569   4.548   8.455  1.00  0.00     0.049 A 
HETATM    8  C   UNL     1      67.475   5.615   6.250  1.00  0.00     0.039 A 
HETATM    9  C   UNL     1      67.044   6.915   8.259  1.00  0.00     0.021 A 
HETATM   10  C   UNL     1      67.247   5.782   9.056  1.00  0.00     0.032 A 
ENDROOT
BRANCH   5  11
HETATM   11  C   UNL     1      66.955   8.020   5.999  1.00  0.00     0.209 C 
HETATM   12  O   UNL     1      67.407   8.166   4.879  1.00  0.00    -0.644 OA
HETATM   13  O   UNL     1      66.194   8.965   6.576  1.00  0.00    -0.644 OA
ENDBRANCH   5  11
TORSDOF 1
ENDMDL
MODEL 8
REMARK VINA RESULT:      -4.3      2.900      3.877
REMARK  1 active torsions:
REMARK  status: ('A' for Active; 'I' for Inactive)
REMARK    1  A    between atoms: C_3  and  C_6 
ROOT
HETATM    1  N   UNL     1      62.204   8.237   1.964  1.00  0.00    -0.359 N 
ATOM      2  HN  UNL     1      62.053   7.613   1.171  1.00  0.00     0.166 HD
HETATM    3  C   UNL     1      61.563   9.364   2.175  1.00  0.00     0.139 A 
HETATM    4  C   UNL     1      63.154   9.016   3.970  1.00  0.00     0.034 A 
HETATM    5  C   UNL     1      64.892   7.837   5.156  1.00  0.00     0.042 A 
HETATM    6  S   UNL     1      61.996  10.233   3.584  1.00  0.00    -0.083 SA
HETATM    7  C   UNL     1      63.117   8.027   2.983  1.00  0.00     0.049 A 
HETATM    8  C   UNL     1      64.031   8.943   5.065  1.00  0.00     0.039 A 
HETATM    9  C   UNL     1      64.868   6.838   4.181  1.00  0.00     0.021 A 
HETATM   10  C   UNL     1      63.987   6.924   3.096  1.00  0.00     0.032 A 
ENDROOT
BRANCH   5  11
HETATM   11  C   UNL     1      65.818   7.776   6.315  1.00  0.00     0.209 C 
HETATM   12  O   UNL     1      65.614   7.186   7.359  1.00  0.00    -0.644 OA
HETATM   13  O   UNL     1      66.956   8.461   6.108  1.00  0.00    -0.644 OA
ENDBRANCH   5  11
TORSDOF 1
ENDMDL
MODEL 9
REMARK VINA RESULT:      -4.2      3.225      4.013
REMARK  1 active torsions:
REMARK  status: ('A' for Active; 'I' for Inactive)
REMARK    1  A    between atoms: C_3  and  C_6 
ROOT
HETATM    1  N   UNL     1      64.838   5.933   6.680  1.00  0.00    -0.359 N 
ATOM      2  HN  UNL     1      64.489   5.019   6.967  1.00  0.00     0.166 HD
HETATM    3  C   UNL     1      66.055   6.381   6.892  1.00  0.00     0.139 A 
HETATM    4  C   UNL     1      64.787   8.078   5.714  1.00  0.00     0.034 A 
HETATM    5  C   UNL     1      62.827   9.005   4.657  1.00  0.00     0.042 A 
HETATM    6  S   UNL     1      66.400   7.952   6.308  1.00  0.00    -0.083 SA
HETATM    7  C   UNL     1      64.103   6.895   6.009  1.00  0.00     0.049 A 
HETATM    8  C   UNL     1      64.171   9.145   5.040  1.00  0.00     0.039 A 
HETATM    9  C   UNL     1      62.129   7.829   4.939  1.00  0.00     0.021 A 
HETATM   10  C   UNL     1      62.756   6.773   5.612  1.00  0.00     0.032 A 
ENDROOT
BRANCH   5  11
HETATM   11  C   UNL     1      62.188  10.144   3.951  1.00  0.00     0.209 C 
HETATM   12  O   UNL     1      62.075  11.276   4.381  1.00  0.00    -0.644 OA
HETATM   13  O   UNL     1      61.718   9.805   2.737  1.00  0.00    -0.644 OA
ENDBRANCH   5  11
TORSDOF 1
ENDMDL
