MODEL 1
REMARK VINA RESULT:      -4.1      0.000      0.000
REMARK  2 active torsions:
REMARK  status: ('A' for Active; 'I' for Inactive)
REMARK    1  A    between atoms: C_3  and  C_7 
REMARK    2  A    between atoms: C_7  and  O_10 
ROOT
HETATM    1  N   UNL     1      63.078   8.528   3.227  1.00  0.00    -0.357 N 
ATOM      2  HN  UNL     1      63.389   7.629   2.859  1.00  0.00     0.166 HD
HETATM    3  C   UNL     1      62.854  10.264   4.774  1.00  0.00     0.030 A 
HETATM    4  S   UNL     1      61.942  10.822   3.432  1.00  0.00    -0.078 SA
HETATM    5  C   UNL     1      63.391   9.020   4.485  1.00  0.00     0.021 A 
HETATM    6  C   UNL     1      62.322   9.385   2.576  1.00  0.00     0.047 A 
HETATM    7  C   UNL     1      64.240   8.177   5.368  1.00  0.00     0.069 C 
HETATM    8  C   UNL     1      61.811   9.159   1.197  1.00  0.00     0.076 C 
ENDROOT
BRANCH   3   9
HETATM    9  C   UNL     1      62.984  11.092   6.003  1.00  0.00     0.212 C 
BRANCH   9  10
HETATM   10  O   UNL     1      64.362  11.401   6.178  1.00  0.00    -0.396 OA
HETATM   11  H   UNL     1      64.885  10.586   6.124  1.00  0.00     0.209 HD
ENDBRANCH   9  10
ENDBRANCH   3   9
TORSDOF 2
ENDMDL
MODEL 2
REMARK VINA RESULT:      -4.1      1.706      2.406
REMARK  2 active torsions:
REMARK  status: ('A' for Active; 'I' for Inactive)
REMARK    1  A    between atoms: C_3  and  C_7 
REMARK    2  A    between atoms: C_7  and  O_10 
ROOT
HETATM    1  N   UNL     1      62.517   9.051   2.728  1.00  0.00    -0.357 N 
ATOM      2  HN  UNL     1      62.206   8.924   1.764  1.00  0.00     0.166 HD
HETATM    3  C   UNL     1      62.883  10.169   4.745  1.00  0.00     0.030 A 
HETATM    4  S   UNL     1      63.522   8.606   5.048  1.00  0.00    -0.078 SA
HETATM    5  C   UNL     1      62.385  10.225   3.454  1.00  0.00     0.021 A 
HETATM    6  C   UNL     1      63.098   8.125   3.458  1.00  0.00     0.047 A 
HETATM    7  C   UNL     1      61.750  11.389   2.781  1.00  0.00     0.069 C 
HETATM    8  C   UNL     1      63.386   6.747   2.973  1.00  0.00     0.076 C 
ENDROOT
BRANCH   3   9
HETATM    9  C   UNL     1      62.905  11.219   5.800  1.00  0.00     0.212 C 
BRANCH   9  10
HETATM   10  O   UNL     1      64.253  11.384   6.223  1.00  0.00    -0.396 OA
HETATM   11  H   UNL     1      64.541  12.291   6.036  1.00  0.00     0.209 HD
ENDBRANCH   9  10
ENDBRANCH   3   9
TORSDOF 2
ENDMDL
MODEL 3
REMARK VINA RESULT:      -3.7      2.347      2.855
REMARK  2 active torsions:
REMARK  status: ('A' for Active; 'I' for Inactive)
REMARK    1  A    between atoms: C_3  and  C_7 
REMARK    2  A    between atoms: C_7  and  O_10 
ROOT
HETATM    1  N   UNL     1      61.110   9.123   3.071  1.00  0.00    -0.357 N 
ATOM      2  HN  UNL     1      60.430   9.105   2.311  1.00  0.00     0.166 HD
HETATM    3  C   UNL     1      62.344   8.311   4.880  1.00  0.00     0.030 A 
HETATM    4  S   UNL     1      62.911   9.922   4.718  1.00  0.00    -0.078 SA
HETATM    5  C   UNL     1      61.385   8.056   3.914  1.00  0.00     0.021 A 
HETATM    6  C   UNL     1      61.850  10.162   3.392  1.00  0.00     0.047 A 
HETATM    7  C   UNL     1      60.634   6.792   3.700  1.00  0.00     0.069 C 
HETATM    8  C   UNL     1      61.797  11.468   2.681  1.00  0.00     0.076 C 
ENDROOT
BRANCH   3   9
HETATM    9  C   UNL     1      62.892   7.414   5.933  1.00  0.00     0.212 C 
BRANCH   9  10
HETATM   10  O   UNL     1      62.560   7.972   7.199  1.00  0.00    -0.396 OA
HETATM   11  H   UNL     1      61.605   8.140   7.237  1.00  0.00     0.209 HD
ENDBRANCH   9  10
ENDBRANCH   3   9
TORSDOF 2
ENDMDL
MODEL 4
REMARK VINA RESULT:      -3.6      1.575      2.269
REMARK  2 active torsions:
REMARK  status: ('A' for Active; 'I' for Inactive)
REMARK    1  A    between atoms: C_3  and  C_7 
REMARK    2  A    between atoms: C_7  and  O_10 
ROOT
HETATM    1  N   UNL     1      62.119  10.172   3.270  1.00  0.00    -0.357 N 
ATOM      2  HN  UNL     1      61.593  11.020   3.061  1.00  0.00     0.166 HD
HETATM    3  C   UNL     1      63.466   8.720   4.509  1.00  0.00     0.030 A 
HETATM    4  S   UNL     1      63.179   7.842   3.064  1.00  0.00    -0.078 SA
HETATM    5  C   UNL     1      62.820   9.944   4.446  1.00  0.00     0.021 A 
HETATM    6  C   UNL     1      62.230   9.139   2.464  1.00  0.00     0.047 A 
HETATM    7  C   UNL     1      62.809  11.014   5.478  1.00  0.00     0.069 C 
HETATM    8  C   UNL     1      61.595   9.065   1.120  1.00  0.00     0.076 C 
ENDROOT
BRANCH   3   9
HETATM    9  C   UNL     1      64.292   8.139   5.602  1.00  0.00     0.212 C 
BRANCH   9  10
HETATM   10  O   UNL     1      65.445   8.956   5.761  1.00  0.00    -0.396 OA
HETATM   11  H   UNL     1      65.740   9.271   4.892  1.00  0.00     0.209 HD
ENDBRANCH   9  10
ENDBRANCH   3   9
TORSDOF 2
ENDMDL
MODEL 5
REMARK VINA RESULT:      -3.5      1.880      3.137
REMARK  2 active torsions:
REMARK  status: ('A' for Active; 'I' for Inactive)
REMARK    1  A    between atoms: C_3  and  C_7 
REMARK    2  A    between atoms: C_7  and  O_10 
ROOT
HETATM    1  N   UNL     1      63.249   7.683   2.769  1.00  0.00    -0.357 N 
ATOM      2  HN  UNL     1      63.449   6.862   2.196  1.00  0.00     0.166 HD
HETATM    3  C   UNL     1      62.430   9.811   3.275  1.00  0.00     0.030 A 
HETATM    4  S   UNL     1      63.127   9.301   4.758  1.00  0.00    -0.078 SA
HETATM    5  C   UNL     1      62.586   8.817   2.323  1.00  0.00     0.021 A 
HETATM    6  C   UNL     1      63.583   7.815   4.034  1.00  0.00     0.047 A 
HETATM    7  C   UNL     1      62.136   8.845   0.906  1.00  0.00     0.069 C 
HETATM    8  C   UNL     1      64.306   6.774   4.813  1.00  0.00     0.076 C 
ENDROOT
BRANCH   3   9
HETATM    9  C   UNL     1      61.771  11.140   3.160  1.00  0.00     0.212 C 
BRANCH   9  10
HETATM   10  O   UNL     1      62.202  11.937   4.256  1.00  0.00    -0.396 OA
HETATM   11  H   UNL     1      62.852  11.443   4.779  1.00  0.00     0.209 HD
ENDBRANCH   9  10
ENDBRANCH   3   9
TORSDOF 2
ENDMDL
MODEL 6
REMARK VINA RESULT:      -3.4      2.482      3.786
REMARK  2 active torsions:
REMARK  status: ('A' for Active; 'I' for Inactive)
REMARK    1  A    between atoms: C_3  and  C_7 
REMARK    2  A    between atoms: C_7  and  O_10 
ROOT
HETATM    1  N   UNL     1      64.371   9.123   5.572  1.00  0.00    -0.357 N 
ATOM      2  HN  UNL     1      64.827   9.509   6.399  1.00  0.00     0.166 HD
HETATM    3  C   UNL     1      62.852   9.013   3.801  1.00  0.00     0.030 A 
HETATM    4  S   UNL     1      63.765   7.572   3.617  1.00  0.00    -0.078 SA
HETATM    5  C   UNL     1      63.317   9.721   4.897  1.00  0.00     0.021 A 
HETATM    6  C   UNL     1      64.699   7.988   4.995  1.00  0.00     0.047 A 
HETATM    7  C   UNL     1      62.808  11.018   5.416  1.00  0.00     0.069 C 
HETATM    8  C   UNL     1      65.793   7.101   5.474  1.00  0.00     0.076 C 
ENDROOT
BRANCH   3   9
HETATM    9  C   UNL     1      61.758   9.348   2.849  1.00  0.00     0.212 C 
BRANCH   9  10
HETATM   10  O   UNL     1      60.524   8.986   3.457  1.00  0.00    -0.396 OA
HETATM   11  H   UNL     1      60.523   9.274   4.383  1.00  0.00     0.209 HD
ENDBRANCH   9  10
ENDBRANCH   3   9
TORSDOF 2
ENDMDL
MODEL 7
REMARK VINA RESULT:      -3.4     12.408     13.113
REMARK  2 active torsions:
REMARK  status: ('A' for Active; 'I' for Inactive)
REMARK    1  A    between atoms: C_3  and  C_7 
REMARK    2  A    between atoms: C_7  and  O_10 
ROOT
HETATM    1  N   UNL     1      56.890   1.806  14.186  1.00  0.00    -0.357 N 
ATOM      2  HN  UNL     1      57.057   1.518  15.150  1.00  0.00     0.166 HD
HETATM    3  C   UNL     1      57.418   2.382  11.985  1.00  0.00     0.030 A 
HETATM    4  S   UNL     1      55.709   2.530  12.023  1.00  0.00    -0.078 SA
HETATM    5  C   UNL     1      57.878   1.983  13.229  1.00  0.00     0.021 A 
HETATM    6  C   UNL     1      55.706   2.061  13.673  1.00  0.00     0.047 A 
HETATM    7  C   UNL     1      59.288   1.741  13.635  1.00  0.00     0.069 C 
HETATM    8  C   UNL     1      54.433   1.964  14.438  1.00  0.00     0.076 C 
ENDROOT
BRANCH   3   9
HETATM    9  C   UNL     1      58.178   2.655  10.735  1.00  0.00     0.212 C 
BRANCH   9  10
HETATM   10  O   UNL     1      58.405   4.057  10.659  1.00  0.00    -0.396 OA
HETATM   11  H   UNL     1      58.493   4.320   9.729  1.00  0.00     0.209 HD
ENDBRANCH   9  10
ENDBRANCH   3   9
TORSDOF 2
ENDMDL
MODEL 8
REMARK VINA RESULT:      -3.3      3.164      4.502
REMARK  2 active torsions:
REMARK  status: ('A' for Active; 'I' for Inactive)
REMARK    1  A    between atoms: C_3  and  C_7 
REMARK    2  A    between atoms: C_7  and  O_10 
ROOT
HETATM    1  N   UNL     1      62.502   9.808   3.869  1.00  0.00    -0.357 N 
ATOM      2  HN  UNL     1      62.923  10.583   4.383  1.00  0.00     0.166 HD
HETATM    3  C   UNL     1      61.386   8.734   2.121  1.00  0.00     0.030 A 
HETATM    4  S   UNL     1      61.685   7.459   3.230  1.00  0.00    -0.078 SA
HETATM    5  C   UNL     1      61.895   9.919   2.628  1.00  0.00     0.021 A 
HETATM    6  C   UNL     1      62.457   8.564   4.291  1.00  0.00     0.047 A 
HETATM    7  C   UNL     1      61.848  11.264   1.996  1.00  0.00     0.069 C 
HETATM    8  C   UNL     1      63.022   8.108   5.591  1.00  0.00     0.076 C 
ENDROOT
BRANCH   3   9
HETATM    9  C   UNL     1      60.688   8.475   0.833  1.00  0.00     0.212 C 
BRANCH   9  10
HETATM   10  O   UNL     1      59.292   8.643   1.051  1.00  0.00    -0.396 OA
HETATM   11  H   UNL     1      59.028   8.153   1.845  1.00  0.00     0.209 HD
ENDBRANCH   9  10
ENDBRANCH   3   9
TORSDOF 2
ENDMDL
MODEL 9
REMARK VINA RESULT:      -3.3      2.592      3.052
REMARK  2 active torsions:
REMARK  status: ('A' for Active; 'I' for Inactive)
REMARK    1  A    between atoms: C_3  and  C_7 
REMARK    2  A    between atoms: C_7  and  O_10 
ROOT
HETATM    1  N   UNL     1      60.574   9.004   3.309  1.00  0.00    -0.357 N 
ATOM      2  HN  UNL     1      59.832   9.479   2.795  1.00  0.00     0.166 HD
HETATM    3  C   UNL     1      62.618   8.761   4.413  1.00  0.00     0.030 A 
HETATM    4  S   UNL     1      61.932   7.191   4.519  1.00  0.00    -0.078 SA
HETATM    5  C   UNL     1      61.750   9.602   3.734  1.00  0.00     0.021 A 
HETATM    6  C   UNL     1      60.550   7.737   3.663  1.00  0.00     0.047 A 
HETATM    7  C   UNL     1      61.952  11.040   3.416  1.00  0.00     0.069 C 
HETATM    8  C   UNL     1      59.424   6.813   3.358  1.00  0.00     0.076 C 
ENDROOT
BRANCH   3   9
HETATM    9  C   UNL     1      63.947   9.053   5.013  1.00  0.00     0.212 C 
BRANCH   9  10
HETATM   10  O   UNL     1      64.158   8.134   6.078  1.00  0.00    -0.396 OA
HETATM   11  H   UNL     1      63.480   8.269   6.759  1.00  0.00     0.209 HD
ENDBRANCH   9  10
ENDBRANCH   3   9
TORSDOF 2
ENDMDL
