MODEL 1
REMARK VINA RESULT:      -4.9      0.000      0.000
REMARK  1 active torsions:
REMARK  status: ('A' for Active; 'I' for Inactive)
REMARK    1  A    between atoms: C_1  and  C_5 
ROOT
HETATM    1  C   UNL     1      62.581  10.016   4.049  1.00  0.00     0.084 A 
HETATM    2  S   UNL     1      63.267   8.475   4.346  1.00  0.00    -0.065 SA
HETATM    3  C   UNL     1      62.940   7.945   2.762  1.00  0.00     0.085 A 
HETATM    4  C   UNL     1      62.089  10.104   2.759  1.00  0.00     0.040 A 
HETATM    5  C   UNL     1      62.300   8.912   1.996  1.00  0.00    -0.001 A 
HETATM    6  N   UNL     1      63.296   6.707   2.357  1.00  0.00    -0.360 N 
ATOM      7  HN  UNL     1      63.760   6.036   2.968  1.00  0.00     0.166 HD
HETATM    8  C   UNL     1      61.990   8.572   0.664  1.00  0.00     0.015 A 
HETATM    9  C   UNL     1      62.982   6.438   1.074  1.00  0.00     0.089 A 
HETATM   10  C   UNL     1      62.346   7.308   0.203  1.00  0.00     0.018 A 
ENDROOT
BRANCH   1  11
HETATM   11  C   UNL     1      62.582  11.010   5.094  1.00  0.00     0.216 C 
HETATM   12  O   UNL     1      63.094  10.963   6.201  1.00  0.00    -0.643 OA
HETATM   13  O   UNL     1      61.911  12.122   4.714  1.00  0.00    -0.643 OA
ENDBRANCH   1  11
TORSDOF 1
ENDMDL
MODEL 2
REMARK VINA RESULT:      -4.7      2.742      3.816
REMARK  1 active torsions:
REMARK  status: ('A' for Active; 'I' for Inactive)
REMARK    1  A    between atoms: C_1  and  C_5 
ROOT
HETATM    1  C   UNL     1      63.749   7.671   5.046  1.00  0.00     0.084 A 
HETATM    2  S   UNL     1      63.503   7.219   3.412  1.00  0.00    -0.065 SA
HETATM    3  C   UNL     1      62.805   8.724   3.028  1.00  0.00     0.085 A 
HETATM    4  C   UNL     1      63.276   8.949   5.289  1.00  0.00     0.040 A 
HETATM    5  C   UNL     1      62.734   9.576   4.123  1.00  0.00    -0.001 A 
HETATM    6  N   UNL     1      62.389   8.994   1.772  1.00  0.00    -0.360 N 
ATOM      7  HN  UNL     1      62.460   8.325   1.007  1.00  0.00     0.166 HD
HETATM    8  C   UNL     1      62.176  10.852   3.907  1.00  0.00     0.015 A 
HETATM    9  C   UNL     1      61.869  10.230   1.621  1.00  0.00     0.089 A 
HETATM   10  C   UNL     1      61.741  11.175   2.624  1.00  0.00     0.018 A 
ENDROOT
BRANCH   1  11
HETATM   11  C   UNL     1      64.384   6.747   5.952  1.00  0.00     0.216 C 
HETATM   12  O   UNL     1      64.936   5.685   5.709  1.00  0.00    -0.643 OA
HETATM   13  O   UNL     1      64.326   7.193   7.229  1.00  0.00    -0.643 OA
ENDBRANCH   1  11
TORSDOF 1
ENDMDL
MODEL 3
REMARK VINA RESULT:      -4.5      2.321      2.934
REMARK  1 active torsions:
REMARK  status: ('A' for Active; 'I' for Inactive)
REMARK    1  A    between atoms: C_1  and  C_5 
ROOT
HETATM    1  C   UNL     1      64.247   8.082   4.997  1.00  0.00     0.084 A 
HETATM    2  S   UNL     1      64.265   6.884   3.772  1.00  0.00    -0.065 SA
HETATM    3  C   UNL     1      63.201   7.776   2.786  1.00  0.00     0.085 A 
HETATM    4  C   UNL     1      63.416   9.134   4.656  1.00  0.00     0.040 A 
HETATM    5  C   UNL     1      62.809   8.975   3.371  1.00  0.00    -0.001 A 
HETATM    6  N   UNL     1      62.823   7.312   1.577  1.00  0.00    -0.360 N 
ATOM      7  HN  UNL     1      63.140   6.418   1.201  1.00  0.00     0.166 HD
HETATM    8  C   UNL     1      61.931   9.791   2.630  1.00  0.00     0.015 A 
HETATM    9  C   UNL     1      61.989   8.134   0.910  1.00  0.00     0.089 A 
HETATM   10  C   UNL     1      61.521   9.353   1.373  1.00  0.00     0.018 A 
ENDROOT
BRANCH   1  11
HETATM   11  C   UNL     1      65.047   7.899   6.183  1.00  0.00     0.216 C 
HETATM   12  O   UNL     1      64.914   7.086   7.085  1.00  0.00    -0.643 OA
HETATM   13  O   UNL     1      66.072   8.781   6.225  1.00  0.00    -0.643 OA
ENDBRANCH   1  11
TORSDOF 1
ENDMDL
MODEL 4
REMARK VINA RESULT:      -4.5      2.483      3.468
REMARK  1 active torsions:
REMARK  status: ('A' for Active; 'I' for Inactive)
REMARK    1  A    between atoms: C_1  and  C_5 
ROOT
HETATM    1  C   UNL     1      62.134   9.954   3.936  1.00  0.00     0.084 A 
HETATM    2  S   UNL     1      61.246   8.674   3.223  1.00  0.00    -0.065 SA
HETATM    3  C   UNL     1      61.884   7.531   4.312  1.00  0.00     0.085 A 
HETATM    4  C   UNL     1      62.924   9.497   4.976  1.00  0.00     0.040 A 
HETATM    5  C   UNL     1      62.781   8.093   5.212  1.00  0.00    -0.001 A 
HETATM    6  N   UNL     1      61.512   6.235   4.252  1.00  0.00    -0.360 N 
ATOM      7  HN  UNL     1      60.852   5.877   3.563  1.00  0.00     0.166 HD
HETATM    8  C   UNL     1      63.362   7.228   6.161  1.00  0.00     0.015 A 
HETATM    9  C   UNL     1      62.093   5.454   5.186  1.00  0.00     0.089 A 
HETATM   10  C   UNL     1      63.000   5.883   6.140  1.00  0.00     0.018 A 
ENDROOT
BRANCH   1  11
HETATM   11  C   UNL     1      61.984  11.294   3.427  1.00  0.00     0.216 C 
HETATM   12  O   UNL     1      61.968  11.682   2.268  1.00  0.00    -0.643 OA
HETATM   13  O   UNL     1      61.836  12.188   4.432  1.00  0.00    -0.643 OA
ENDBRANCH   1  11
TORSDOF 1
ENDMDL
MODEL 5
REMARK VINA RESULT:      -4.5      1.647      2.228
REMARK  1 active torsions:
REMARK  status: ('A' for Active; 'I' for Inactive)
REMARK    1  A    between atoms: C_1  and  C_5 
ROOT
HETATM    1  C   UNL     1      63.017   9.720   4.373  1.00  0.00     0.084 A 
HETATM    2  S   UNL     1      61.849  10.522   3.409  1.00  0.00    -0.065 SA
HETATM    3  C   UNL     1      61.714   9.199   2.347  1.00  0.00     0.085 A 
HETATM    4  C   UNL     1      63.311   8.468   3.865  1.00  0.00     0.040 A 
HETATM    5  C   UNL     1      62.554   8.147   2.693  1.00  0.00    -0.001 A 
HETATM    6  N   UNL     1      60.861   9.233   1.302  1.00  0.00    -0.360 N 
ATOM      7  HN  UNL     1      60.271  10.038   1.092  1.00  0.00     0.166 HD
HETATM    8  C   UNL     1      62.513   6.999   1.877  1.00  0.00     0.015 A 
HETATM    9  C   UNL     1      60.857   8.107   0.559  1.00  0.00     0.089 A 
HETATM   10  C   UNL     1      61.640   6.989   0.792  1.00  0.00     0.018 A 
ENDROOT
BRANCH   1  11
HETATM   11  C   UNL     1      63.546  10.376   5.543  1.00  0.00     0.216 C 
HETATM   12  O   UNL     1      63.052  11.267   6.217  1.00  0.00    -0.643 OA
HETATM   13  O   UNL     1      64.755   9.872   5.884  1.00  0.00    -0.643 OA
ENDBRANCH   1  11
TORSDOF 1
ENDMDL
MODEL 6
REMARK VINA RESULT:      -4.5      2.407      2.982
REMARK  1 active torsions:
REMARK  status: ('A' for Active; 'I' for Inactive)
REMARK    1  A    between atoms: C_1  and  C_5 
ROOT
HETATM    1  C   UNL     1      64.053   8.270   4.659  1.00  0.00     0.084 A 
HETATM    2  S   UNL     1      62.864   9.495   4.511  1.00  0.00    -0.065 SA
HETATM    3  C   UNL     1      62.322   8.887   3.016  1.00  0.00     0.085 A 
HETATM    4  C   UNL     1      64.043   7.428   3.561  1.00  0.00     0.040 A 
HETATM    5  C   UNL     1      63.037   7.768   2.603  1.00  0.00    -0.001 A 
HETATM    6  N   UNL     1      61.302   9.475   2.358  1.00  0.00    -0.360 N 
ATOM      7  HN  UNL     1      60.817  10.301   2.708  1.00  0.00     0.166 HD
HETATM    8  C   UNL     1      62.660   7.185   1.377  1.00  0.00     0.015 A 
HETATM    9  C   UNL     1      60.980   8.873   1.195  1.00  0.00     0.089 A 
HETATM   10  C   UNL     1      61.606   7.756   0.668  1.00  0.00     0.018 A 
ENDROOT
BRANCH   1  11
HETATM   11  C   UNL     1      64.892   8.230   5.831  1.00  0.00     0.216 C 
HETATM   12  O   UNL     1      65.881   8.896   6.095  1.00  0.00    -0.643 OA
HETATM   13  O   UNL     1      64.451   7.308   6.719  1.00  0.00    -0.643 OA
ENDBRANCH   1  11
TORSDOF 1
ENDMDL
MODEL 7
REMARK VINA RESULT:      -4.3      2.483      3.440
REMARK  1 active torsions:
REMARK  status: ('A' for Active; 'I' for Inactive)
REMARK    1  A    between atoms: C_1  and  C_5 
ROOT
HETATM    1  C   UNL     1      62.550   9.652   3.563  1.00  0.00     0.084 A 
HETATM    2  S   UNL     1      62.981   9.719   5.220  1.00  0.00    -0.065 SA
HETATM    3  C   UNL     1      63.534   8.108   5.213  1.00  0.00     0.085 A 
HETATM    4  C   UNL     1      62.807   8.403   3.028  1.00  0.00     0.040 A 
HETATM    5  C   UNL     1      63.388   7.498   3.972  1.00  0.00    -0.001 A 
HETATM    6  N   UNL     1      64.050   7.548   6.327  1.00  0.00    -0.360 N 
ATOM      7  HN  UNL     1      64.127   8.045   7.214  1.00  0.00     0.166 HD
HETATM    8  C   UNL     1      63.823   6.162   3.861  1.00  0.00     0.015 A 
HETATM    9  C   UNL     1      64.456   6.273   6.162  1.00  0.00     0.089 A 
HETATM   10  C   UNL     1      64.369   5.548   4.985  1.00  0.00     0.018 A 
ENDROOT
BRANCH   1  11
HETATM   11  C   UNL     1      62.003  10.823   2.922  1.00  0.00     0.216 C 
HETATM   12  O   UNL     1      61.714  10.996   1.748  1.00  0.00    -0.643 OA
HETATM   13  O   UNL     1      61.801  11.821   3.814  1.00  0.00    -0.643 OA
ENDBRANCH   1  11
TORSDOF 1
ENDMDL
MODEL 8
REMARK VINA RESULT:      -4.2      4.035      5.183
REMARK  1 active torsions:
REMARK  status: ('A' for Active; 'I' for Inactive)
REMARK    1  A    between atoms: C_1  and  C_5 
ROOT
HETATM    1  C   UNL     1      65.923   6.748   4.648  1.00  0.00     0.084 A 
HETATM    2  S   UNL     1      65.923   8.030   5.784  1.00  0.00    -0.065 SA
HETATM    3  C   UNL     1      64.509   8.710   5.123  1.00  0.00     0.085 A 
HETATM    4  C   UNL     1      64.865   6.862   3.764  1.00  0.00     0.040 A 
HETATM    5  C   UNL     1      64.029   7.992   4.034  1.00  0.00    -0.001 A 
HETATM    6  N   UNL     1      63.964   9.826   5.651  1.00  0.00    -0.360 N 
ATOM      7  HN  UNL     1      64.366  10.316   6.450  1.00  0.00     0.166 HD
HETATM    8  C   UNL     1      62.856   8.471   3.418  1.00  0.00     0.015 A 
HETATM    9  C   UNL     1      62.841  10.236   5.027  1.00  0.00     0.089 A 
HETATM   10  C   UNL     1      62.257   9.616   3.936  1.00  0.00     0.018 A 
ENDROOT
BRANCH   1  11
HETATM   11  C   UNL     1      66.949   5.737   4.715  1.00  0.00     0.216 C 
HETATM   12  O   UNL     1      67.588   5.350   5.682  1.00  0.00    -0.643 OA
HETATM   13  O   UNL     1      67.171   5.181   3.502  1.00  0.00    -0.643 OA
ENDBRANCH   1  11
TORSDOF 1
ENDMDL
MODEL 9
REMARK VINA RESULT:      -4.1      3.170      4.059
REMARK  1 active torsions:
REMARK  status: ('A' for Active; 'I' for Inactive)
REMARK    1  A    between atoms: C_1  and  C_5 
ROOT
HETATM    1  C   UNL     1      63.153   8.865   4.178  1.00  0.00     0.084 A 
HETATM    2  S   UNL     1      63.488   7.448   3.275  1.00  0.00    -0.065 SA
HETATM    3  C   UNL     1      64.950   7.180   4.105  1.00  0.00     0.085 A 
HETATM    4  C   UNL     1      64.165   9.133   5.082  1.00  0.00     0.040 A 
HETATM    5  C   UNL     1      65.211   8.157   5.058  1.00  0.00    -0.001 A 
HETATM    6  N   UNL     1      65.723   6.111   3.820  1.00  0.00    -0.360 N 
ATOM      7  HN  UNL     1      65.482   5.427   3.103  1.00  0.00     0.166 HD
HETATM    8  C   UNL     1      66.398   8.022   5.805  1.00  0.00     0.015 A 
HETATM    9  C   UNL     1      66.841   6.027   4.568  1.00  0.00     0.089 A 
HETATM   10  C   UNL     1      67.221   6.928   5.548  1.00  0.00     0.018 A 
ENDROOT
BRANCH   1  11
HETATM   11  C   UNL     1      61.933   9.593   3.934  1.00  0.00     0.216 C 
HETATM   12  O   UNL     1      61.707  10.787   4.064  1.00  0.00    -0.643 OA
HETATM   13  O   UNL     1      60.952   8.772   3.492  1.00  0.00    -0.643 OA
ENDBRANCH   1  11
TORSDOF 1
ENDMDL
