MODEL 1
REMARK VINA RESULT:      -4.0      0.000      0.000
REMARK  1 active torsions:
REMARK  status: ('A' for Active; 'I' for Inactive)
REMARK    1  A    between atoms: C_1  and  C_5 
ROOT
HETATM    1  C   UNK     1      62.312   9.891   3.764  1.00  0.00     0.117 A 
HETATM    2  N   UNK     1      61.357   9.855   2.745  1.00  0.00    -0.348 N 
ATOM      3  HN  UNK     1      60.662  10.581   2.572  1.00  0.00     0.166 HD
HETATM    4  C   UNK     1      63.147   8.788   3.790  1.00  0.00     0.088 A 
HETATM    5  C   UNK     1      61.480   8.750   2.040  1.00  0.00     0.047 A 
HETATM    6  S   UNK     1      62.740   7.694   2.537  1.00  0.00    -0.086 SA
HETATM    7  C   UNK     1      60.616   8.382   0.885  1.00  0.00     0.076 C 
ENDROOT
BRANCH   1   8
HETATM    8  C   UNK     1      62.418  10.992   4.718  1.00  0.00     0.227 C 
HETATM    9  O   UNK     1      61.929  12.104   4.570  1.00  0.00    -0.643 OA
HETATM   10  O   UNK     1      63.125  10.712   5.837  1.00  0.00    -0.643 OA
ENDBRANCH   1   8
TORSDOF 1
ENDMDL
MODEL 2
REMARK VINA RESULT:      -4.0      2.134      3.156
REMARK  1 active torsions:
REMARK  status: ('A' for Active; 'I' for Inactive)
REMARK    1  A    between atoms: C_1  and  C_5 
ROOT
HETATM    1  C   UNK     1      63.320   9.722   4.894  1.00  0.00     0.117 A 
HETATM    2  N   UNK     1      64.444   9.106   5.450  1.00  0.00    -0.348 N 
ATOM      3  HN  UNK     1      65.003   9.492   6.211  1.00  0.00     0.166 HD
HETATM    4  C   UNK     1      62.728   8.996   3.875  1.00  0.00     0.088 A 
HETATM    5  C   UNK     1      64.680   7.956   4.854  1.00  0.00     0.047 A 
HETATM    6  S   UNK     1      63.578   7.535   3.605  1.00  0.00    -0.086 SA
HETATM    7  C   UNK     1      65.808   7.044   5.188  1.00  0.00     0.076 C 
ENDROOT
BRANCH   1   8
HETATM    8  C   UNK     1      62.816  11.016   5.344  1.00  0.00     0.227 C 
HETATM    9  O   UNK     1      62.075  11.749   4.701  1.00  0.00    -0.643 OA
HETATM   10  O   UNK     1      63.232  11.395   6.575  1.00  0.00    -0.643 OA
ENDBRANCH   1   8
TORSDOF 1
ENDMDL
MODEL 3
REMARK VINA RESULT:      -3.8      1.769      2.832
REMARK  1 active torsions:
REMARK  status: ('A' for Active; 'I' for Inactive)
REMARK    1  A    between atoms: C_1  and  C_5 
ROOT
HETATM    1  C   UNK     1      62.008   9.882   3.802  1.00  0.00     0.117 A 
HETATM    2  N   UNK     1      62.705   9.424   4.923  1.00  0.00    -0.348 N 
ATOM      3  HN  UNK     1      63.224  10.019   5.569  1.00  0.00     0.166 HD
HETATM    4  C   UNK     1      61.379   8.880   3.084  1.00  0.00     0.088 A 
HETATM    5  C   UNK     1      62.598   8.116   5.028  1.00  0.00     0.047 A 
HETATM    6  S   UNK     1      61.659   7.354   3.808  1.00  0.00    -0.086 SA
HETATM    7  C   UNK     1      63.228   7.298   6.100  1.00  0.00     0.076 C 
ENDROOT
BRANCH   1   8
HETATM    8  C   UNK     1      61.951  11.290   3.420  1.00  0.00     0.227 C 
HETATM    9  O   UNK     1      61.978  11.712   2.271  1.00  0.00    -0.643 OA
HETATM   10  O   UNK     1      61.864  12.160   4.453  1.00  0.00    -0.643 OA
ENDBRANCH   1   8
TORSDOF 1
ENDMDL
MODEL 4
REMARK VINA RESULT:      -3.7      2.531      3.101
REMARK  1 active torsions:
REMARK  status: ('A' for Active; 'I' for Inactive)
REMARK    1  A    between atoms: C_1  and  C_5 
ROOT
HETATM    1  C   UNK     1      63.762   8.816   4.587  1.00  0.00     0.117 A 
HETATM    2  N   UNK     1      63.390   8.354   3.322  1.00  0.00    -0.348 N 
ATOM      3  HN  UNK     1      63.793   7.538   2.859  1.00  0.00     0.166 HD
HETATM    4  C   UNK     1      63.067   9.939   5.001  1.00  0.00     0.088 A 
HETATM    5  C   UNK     1      62.449   9.119   2.812  1.00  0.00     0.047 A 
HETATM    6  S   UNK     1      61.943  10.425   3.806  1.00  0.00    -0.086 SA
HETATM    7  C   UNK     1      61.829   8.922   1.473  1.00  0.00     0.076 C 
ENDROOT
BRANCH   1   8
HETATM    8  C   UNK     1      64.793   8.175   5.399  1.00  0.00     0.227 C 
HETATM    9  O   UNK     1      64.935   6.966   5.536  1.00  0.00    -0.643 OA
HETATM   10  O   UNK     1      65.633   9.026   6.033  1.00  0.00    -0.643 OA
ENDBRANCH   1   8
TORSDOF 1
ENDMDL
MODEL 5
REMARK VINA RESULT:      -3.6      1.661      1.995
REMARK  1 active torsions:
REMARK  status: ('A' for Active; 'I' for Inactive)
REMARK    1  A    between atoms: C_1  and  C_5 
ROOT
HETATM    1  C   UNK     1      62.458   9.890   3.460  1.00  0.00     0.117 A 
HETATM    2  N   UNK     1      62.425   9.067   2.331  1.00  0.00    -0.348 N 
ATOM      3  HN  UNK     1      62.121   9.364   1.403  1.00  0.00     0.166 HD
HETATM    4  C   UNK     1      62.913   9.256   4.603  1.00  0.00     0.088 A 
HETATM    5  C   UNK     1      62.839   7.856   2.633  1.00  0.00     0.047 A 
HETATM    6  S   UNK     1      63.301   7.622   4.271  1.00  0.00    -0.086 SA
HETATM    7  C   UNK     1      62.920   6.723   1.671  1.00  0.00     0.076 C 
ENDROOT
BRANCH   1   8
HETATM    8  C   UNK     1      62.047  11.291   3.437  1.00  0.00     0.227 C 
HETATM    9  O   UNK     1      61.811  11.974   4.426  1.00  0.00    -0.643 OA
HETATM   10  O   UNK     1      61.928  11.832   2.202  1.00  0.00    -0.643 OA
ENDBRANCH   1   8
TORSDOF 1
ENDMDL
MODEL 6
REMARK VINA RESULT:      -3.6      3.228      3.927
REMARK  1 active torsions:
REMARK  status: ('A' for Active; 'I' for Inactive)
REMARK    1  A    between atoms: C_1  and  C_5 
ROOT
HETATM    1  C   UNK     1      64.565   8.293   5.177  1.00  0.00     0.117 A 
HETATM    2  N   UNK     1      63.887   9.506   5.322  1.00  0.00    -0.348 N 
ATOM      3  HN  UNK     1      64.067  10.188   6.059  1.00  0.00     0.166 HD
HETATM    4  C   UNK     1      64.143   7.540   4.095  1.00  0.00     0.088 A 
HETATM    5  C   UNK     1      62.984   9.643   4.375  1.00  0.00     0.047 A 
HETATM    6  S   UNK     1      62.891   8.347   3.252  1.00  0.00    -0.086 SA
HETATM    7  C   UNK     1      62.073  10.813   4.236  1.00  0.00     0.076 C 
ENDROOT
BRANCH   1   8
HETATM    8  C   UNK     1      65.621   7.856   6.086  1.00  0.00     0.227 C 
HETATM    9  O   UNK     1      65.822   6.699   6.431  1.00  0.00    -0.643 OA
HETATM   10  O   UNK     1      66.412   8.846   6.561  1.00  0.00    -0.643 OA
ENDBRANCH   1   8
TORSDOF 1
ENDMDL
MODEL 7
REMARK VINA RESULT:      -3.6      5.550      6.581
REMARK  1 active torsions:
REMARK  status: ('A' for Active; 'I' for Inactive)
REMARK    1  A    between atoms: C_1  and  C_5 
ROOT
HETATM    1  C   UNK     1      66.462   6.652   7.288  1.00  0.00     0.117 A 
HETATM    2  N   UNK     1      65.323   7.360   6.898  1.00  0.00    -0.348 N 
ATOM      3  HN  UNK     1      64.466   7.433   7.447  1.00  0.00     0.166 HD
HETATM    4  C   UNK     1      67.499   6.708   6.373  1.00  0.00     0.088 A 
HETATM    5  C   UNK     1      65.511   7.920   5.721  1.00  0.00     0.047 A 
HETATM    6  S   UNK     1      67.052   7.647   5.013  1.00  0.00    -0.086 SA
HETATM    7  C   UNK     1      64.497   8.738   5.001  1.00  0.00     0.076 C 
ENDROOT
BRANCH   1   8
HETATM    8  C   UNK     1      66.552   5.918   8.547  1.00  0.00     0.227 C 
HETATM    9  O   UNK     1      66.092   4.801   8.748  1.00  0.00    -0.643 OA
HETATM   10  O   UNK     1      67.201   6.566   9.542  1.00  0.00    -0.643 OA
ENDBRANCH   1   8
TORSDOF 1
ENDMDL
MODEL 8
REMARK VINA RESULT:      -3.6      2.568      2.846
REMARK  1 active torsions:
REMARK  status: ('A' for Active; 'I' for Inactive)
REMARK    1  A    between atoms: C_1  and  C_5 
ROOT
HETATM    1  C   UNK     1      62.822   8.550   4.666  1.00  0.00     0.117 A 
HETATM    2  N   UNK     1      62.541   9.899   4.436  1.00  0.00    -0.348 N 
ATOM      3  HN  UNK     1      62.621  10.638   5.135  1.00  0.00     0.166 HD
HETATM    4  C   UNK     1      62.642   7.742   3.556  1.00  0.00     0.088 A 
HETATM    5  C   UNK     1      62.157  10.082   3.190  1.00  0.00     0.047 A 
HETATM    6  S   UNK     1      62.115   8.668   2.216  1.00  0.00    -0.086 SA
HETATM    7  C   UNK     1      61.767  11.396   2.608  1.00  0.00     0.076 C 
ENDROOT
BRANCH   1   8
HETATM    8  C   UNK     1      63.264   8.037   5.960  1.00  0.00     0.227 C 
HETATM    9  O   UNK     1      62.525   7.665   6.862  1.00  0.00    -0.643 OA
HETATM   10  O   UNK     1      64.606   7.993   6.128  1.00  0.00    -0.643 OA
ENDBRANCH   1   8
TORSDOF 1
ENDMDL
MODEL 9
REMARK VINA RESULT:      -3.5      5.046      6.279
REMARK  1 active torsions:
REMARK  status: ('A' for Active; 'I' for Inactive)
REMARK    1  A    between atoms: C_1  and  C_5 
ROOT
HETATM    1  C   UNK     1      65.329   7.227   6.258  1.00  0.00     0.117 A 
HETATM    2  N   UNK     1      66.190   7.504   7.323  1.00  0.00    -0.348 N 
ATOM      3  HN  UNK     1      66.552   8.429   7.553  1.00  0.00     0.166 HD
HETATM    4  C   UNK     1      64.973   5.893   6.156  1.00  0.00     0.088 A 
HETATM    5  C   UNK     1      66.468   6.402   7.987  1.00  0.00     0.047 A 
HETATM    6  S   UNK     1      65.718   4.975   7.393  1.00  0.00    -0.086 SA
HETATM    7  C   UNK     1      67.366   6.331   9.172  1.00  0.00     0.076 C 
ENDROOT
BRANCH   1   8
HETATM    8  C   UNK     1      64.848   8.251   5.334  1.00  0.00     0.227 C 
HETATM    9  O   UNK     1      64.320   8.033   4.251  1.00  0.00    -0.643 OA
HETATM   10  O   UNK     1      65.027   9.526   5.751  1.00  0.00    -0.643 OA
ENDBRANCH   1   8
TORSDOF 1
ENDMDL
