MODEL 1
REMARK VINA RESULT:      -4.5      0.000      0.000
REMARK  2 active torsions:
REMARK  status: ('A' for Active; 'I' for Inactive)
REMARK    1  A    between atoms: C_3  and  C_9 
REMARK    2  A    between atoms: N_8  and  C_9 
ROOT
HETATM    1  S   UNL     1      63.532   7.263   3.646  1.00  0.00    -0.074 SA
HETATM    2  C   UNL     1      62.830   8.734   3.155  1.00  0.00     0.084 A 
HETATM    3  C   UNL     1      63.687   7.793   5.270  1.00  0.00     0.011 A 
HETATM    4  C   UNL     1      63.189   9.074   5.426  1.00  0.00     0.030 A 
HETATM    5  C   UNL     1      62.693   9.635   4.204  1.00  0.00    -0.001 A 
HETATM    6  N   UNL     1      62.478   8.939   1.867  1.00  0.00    -0.360 N 
ATOM      7  HN  UNL     1      62.604   8.236   1.139  1.00  0.00     0.166 HD
HETATM    8  C   UNL     1      62.127  10.891   3.898  1.00  0.00     0.015 A 
HETATM    9  C   UNL     1      61.946  10.154   1.633  1.00  0.00     0.089 A 
HETATM   10  C   UNL     1      61.751  11.144   2.581  1.00  0.00     0.018 A 
ENDROOT
BRANCH   3  11
HETATM   11  C   UNL     1      64.336   6.909   6.295  1.00  0.00     0.277 C 
BRANCH  11  12
HETATM   12  N   UNL     1      65.467   7.588   6.928  1.00  0.00    -0.075 N 
HETATM   13  C   UNL     1      66.572   7.730   5.991  1.00  0.00     0.267 C 
HETATM   14  H   UNL     1      65.777   7.043   7.732  1.00  0.00     0.277 HD
HETATM   15  H   UNL     1      65.167   8.517   7.225  1.00  0.00     0.277 HD
ENDBRANCH  11  12
ENDBRANCH   3  11
TORSDOF 2
ENDMDL
MODEL 2
REMARK VINA RESULT:      -4.3      1.550      5.092
REMARK  2 active torsions:
REMARK  status: ('A' for Active; 'I' for Inactive)
REMARK    1  A    between atoms: C_3  and  C_9 
REMARK    2  A    between atoms: N_8  and  C_9 
ROOT
HETATM    1  S   UNL     1      63.359   9.411   5.076  1.00  0.00    -0.074 SA
HETATM    2  C   UNL     1      64.724   8.402   5.198  1.00  0.00     0.084 A 
HETATM    3  C   UNL     1      62.809   8.621   3.656  1.00  0.00     0.011 A 
HETATM    4  C   UNL     1      63.658   7.588   3.300  1.00  0.00     0.030 A 
HETATM    5  C   UNL     1      64.779   7.454   4.184  1.00  0.00    -0.001 A 
HETATM    6  N   UNL     1      65.623   8.568   6.193  1.00  0.00    -0.360 N 
ATOM      7  HN  UNL     1      65.529   9.285   6.912  1.00  0.00     0.166 HD
HETATM    8  C   UNL     1      65.879   6.571   4.192  1.00  0.00     0.015 A 
HETATM    9  C   UNL     1      66.653   7.701   6.150  1.00  0.00     0.089 A 
HETATM   10  C   UNL     1      66.830   6.709   5.200  1.00  0.00     0.018 A 
ENDROOT
BRANCH   3  11
HETATM   11  C   UNL     1      61.573   9.103   2.953  1.00  0.00     0.277 C 
BRANCH  11  12
HETATM   12  N   UNL     1      61.379  10.537   3.166  1.00  0.00    -0.075 N 
HETATM   13  C   UNL     1      61.847  11.297   2.015  1.00  0.00     0.267 C 
HETATM   14  H   UNL     1      61.901  10.826   3.993  1.00  0.00     0.277 HD
HETATM   15  H   UNL     1      60.384  10.718   3.295  1.00  0.00     0.277 HD
ENDBRANCH  11  12
ENDBRANCH   3  11
TORSDOF 2
ENDMDL
MODEL 3
REMARK VINA RESULT:      -4.0      2.153      3.005
REMARK  2 active torsions:
REMARK  status: ('A' for Active; 'I' for Inactive)
REMARK    1  A    between atoms: C_3  and  C_9 
REMARK    2  A    between atoms: N_8  and  C_9 
ROOT
HETATM    1  S   UNL     1      65.802   8.286   5.954  1.00  0.00    -0.074 SA
HETATM    2  C   UNL     1      64.417   8.655   5.036  1.00  0.00     0.084 A 
HETATM    3  C   UNL     1      66.162   6.911   4.992  1.00  0.00     0.011 A 
HETATM    4  C   UNL     1      65.239   6.758   3.974  1.00  0.00     0.030 A 
HETATM    5  C   UNL     1      64.215   7.761   3.992  1.00  0.00    -0.001 A 
HETATM    6  N   UNL     1      63.638   9.713   5.351  1.00  0.00    -0.360 N 
ATOM      7  HN  UNL     1      63.838  10.337   6.133  1.00  0.00     0.166 HD
HETATM    8  C   UNL     1      63.085   7.977   3.174  1.00  0.00     0.015 A 
HETATM    9  C   UNL     1      62.574   9.870   4.539  1.00  0.00     0.089 A 
HETATM   10  C   UNL     1      62.255   9.057   3.465  1.00  0.00     0.018 A 
ENDROOT
BRANCH   3  11
HETATM   11  C   UNL     1      67.335   6.037   5.333  1.00  0.00     0.277 C 
BRANCH  11  12
HETATM   12  N   UNL     1      68.070   6.575   6.478  1.00  0.00    -0.075 N 
HETATM   13  C   UNL     1      68.075   5.625   7.581  1.00  0.00     0.267 C 
HETATM   14  H   UNL     1      67.627   7.441   6.783  1.00  0.00     0.277 HD
HETATM   15  H   UNL     1      69.034   6.753   6.194  1.00  0.00     0.277 HD
ENDBRANCH  11  12
ENDBRANCH   3  11
TORSDOF 2
ENDMDL
MODEL 4
REMARK VINA RESULT:      -3.9      1.518      5.206
REMARK  2 active torsions:
REMARK  status: ('A' for Active; 'I' for Inactive)
REMARK    1  A    between atoms: C_3  and  C_9 
REMARK    2  A    between atoms: N_8  and  C_9 
ROOT
HETATM    1  S   UNL     1      62.750   7.068   5.593  1.00  0.00    -0.074 SA
HETATM    2  C   UNL     1      64.347   6.985   6.178  1.00  0.00     0.084 A 
HETATM    3  C   UNL     1      63.061   8.521   4.737  1.00  0.00     0.011 A 
HETATM    4  C   UNL     1      64.377   8.919   4.889  1.00  0.00     0.030 A 
HETATM    5  C   UNL     1      65.134   8.039   5.730  1.00  0.00    -0.001 A 
HETATM    6  N   UNL     1      64.735   5.981   6.995  1.00  0.00    -0.360 N 
ATOM      7  HN  UNL     1      64.109   5.233   7.291  1.00  0.00     0.166 HD
HETATM    8  C   UNL     1      66.476   8.065   6.166  1.00  0.00     0.015 A 
HETATM    9  C   UNL     1      66.024   6.059   7.381  1.00  0.00     0.089 A 
HETATM   10  C   UNL     1      66.917   7.049   7.010  1.00  0.00     0.018 A 
ENDROOT
BRANCH   3  11
HETATM   11  C   UNL     1      61.956   9.207   3.986  1.00  0.00     0.277 C 
BRANCH  11  12
HETATM   12  N   UNL     1      62.096  10.661   4.067  1.00  0.00    -0.075 N 
HETATM   13  C   UNL     1      61.819  11.279   2.778  1.00  0.00     0.267 C 
HETATM   14  H   UNL     1      63.048  10.891   4.352  1.00  0.00     0.277 HD
HETATM   15  H   UNL     1      61.428  11.017   4.751  1.00  0.00     0.277 HD
ENDBRANCH  11  12
ENDBRANCH   3  11
TORSDOF 2
ENDMDL
MODEL 5
REMARK VINA RESULT:      -3.8      1.940      2.372
REMARK  2 active torsions:
REMARK  status: ('A' for Active; 'I' for Inactive)
REMARK    1  A    between atoms: C_3  and  C_9 
REMARK    2  A    between atoms: N_8  and  C_9 
ROOT
HETATM    1  S   UNL     1      63.548   6.581   6.187  1.00  0.00    -0.074 SA
HETATM    2  C   UNL     1      62.656   7.415   5.002  1.00  0.00     0.084 A 
HETATM    3  C   UNL     1      64.925   7.578   5.958  1.00  0.00     0.011 A 
HETATM    4  C   UNL     1      64.687   8.544   4.997  1.00  0.00     0.030 A 
HETATM    5  C   UNL     1      63.374   8.457   4.428  1.00  0.00    -0.001 A 
HETATM    6  N   UNL     1      61.393   7.043   4.695  1.00  0.00    -0.360 N 
ATOM      7  HN  UNL     1      60.916   6.266   5.151  1.00  0.00     0.166 HD
HETATM    8  C   UNL     1      62.723   9.207   3.426  1.00  0.00     0.015 A 
HETATM    9  C   UNL     1      60.822   7.792   3.731  1.00  0.00     0.089 A 
HETATM   10  C   UNL     1      61.420   8.856   3.078  1.00  0.00     0.018 A 
ENDROOT
BRANCH   3  11
HETATM   11  C   UNL     1      66.186   7.315   6.729  1.00  0.00     0.277 C 
BRANCH  11  12
HETATM   12  N   UNL     1      65.896   6.593   7.969  1.00  0.00    -0.075 N 
HETATM   13  C   UNL     1      67.011   6.699   8.899  1.00  0.00     0.267 C 
HETATM   14  H   UNL     1      65.731   5.610   7.754  1.00  0.00     0.277 HD
HETATM   15  H   UNL     1      65.068   7.004   8.402  1.00  0.00     0.277 HD
ENDBRANCH  11  12
ENDBRANCH   3  11
TORSDOF 2
ENDMDL
MODEL 6
REMARK VINA RESULT:      -3.8      2.569      6.331
REMARK  2 active torsions:
REMARK  status: ('A' for Active; 'I' for Inactive)
REMARK    1  A    between atoms: C_3  and  C_9 
REMARK    2  A    between atoms: N_8  and  C_9 
ROOT
HETATM    1  S   UNL     1      64.296   6.249   6.357  1.00  0.00    -0.074 SA
HETATM    2  C   UNL     1      65.698   5.642   7.108  1.00  0.00     0.084 A 
HETATM    3  C   UNL     1      65.158   7.539   5.624  1.00  0.00     0.011 A 
HETATM    4  C   UNL     1      66.503   7.485   5.943  1.00  0.00     0.030 A 
HETATM    5  C   UNL     1      66.830   6.391   6.810  1.00  0.00    -0.001 A 
HETATM    6  N   UNL     1      65.641   4.552   7.904  1.00  0.00    -0.360 N 
ATOM      7  HN  UNL     1      64.777   4.041   8.086  1.00  0.00     0.166 HD
HETATM    8  C   UNL     1      68.045   5.972   7.392  1.00  0.00     0.015 A 
HETATM    9  C   UNL     1      66.829   4.199   8.434  1.00  0.00     0.089 A 
HETATM   10  C   UNL     1      68.031   4.852   8.220  1.00  0.00     0.018 A 
ENDROOT
BRANCH   3  11
HETATM   11  C   UNL     1      64.432   8.559   4.796  1.00  0.00     0.277 C 
BRANCH  11  12
HETATM   12  N   UNL     1      64.107   9.742   5.595  1.00  0.00    -0.075 N 
HETATM   13  C   UNL     1      62.814  10.287   5.207  1.00  0.00     0.267 C 
HETATM   14  H   UNL     1      64.826  10.450   5.452  1.00  0.00     0.277 HD
HETATM   15  H   UNL     1      64.067   9.472   6.579  1.00  0.00     0.277 HD
ENDBRANCH  11  12
ENDBRANCH   3  11
TORSDOF 2
ENDMDL
MODEL 7
REMARK VINA RESULT:      -3.8      1.969      5.090
REMARK  2 active torsions:
REMARK  status: ('A' for Active; 'I' for Inactive)
REMARK    1  A    between atoms: C_3  and  C_9 
REMARK    2  A    between atoms: N_8  and  C_9 
ROOT
HETATM    1  S   UNL     1      62.963   9.097   4.596  1.00  0.00    -0.074 SA
HETATM    2  C   UNL     1      64.449   8.308   4.854  1.00  0.00     0.084 A 
HETATM    3  C   UNL     1      62.592   8.113   3.241  1.00  0.00     0.011 A 
HETATM    4  C   UNL     1      63.591   7.185   3.010  1.00  0.00     0.030 A 
HETATM    5  C   UNL     1      64.680   7.291   3.936  1.00  0.00    -0.001 A 
HETATM    6  N   UNL     1      65.271   8.689   5.857  1.00  0.00    -0.360 N 
ATOM      7  HN  UNL     1      65.047   9.446   6.502  1.00  0.00     0.166 HD
HETATM    8  C   UNL     1      65.892   6.579   4.061  1.00  0.00     0.015 A 
HETATM    9  C   UNL     1      66.413   7.977   5.927  1.00  0.00     0.089 A 
HETATM   10  C   UNL     1      66.769   6.941   5.081  1.00  0.00     0.018 A 
ENDROOT
BRANCH   3  11
HETATM   11  C   UNL     1      61.333   8.349   2.458  1.00  0.00     0.277 C 
BRANCH  11  12
HETATM   12  N   UNL     1      60.202   8.595   3.353  1.00  0.00    -0.075 N 
HETATM   13  C   UNL     1      59.297   7.455   3.365  1.00  0.00     0.267 C 
HETATM   14  H   UNL     1      59.696   9.421   3.033  1.00  0.00     0.277 HD
HETATM   15  H   UNL     1      60.557   8.742   4.298  1.00  0.00     0.277 HD
ENDBRANCH  11  12
ENDBRANCH   3  11
TORSDOF 2
ENDMDL
MODEL 8
REMARK VINA RESULT:      -3.7     13.014     14.262
REMARK  2 active torsions:
REMARK  status: ('A' for Active; 'I' for Inactive)
REMARK    1  A    between atoms: C_3  and  C_9 
REMARK    2  A    between atoms: N_8  and  C_9 
ROOT
HETATM    1  S   UNL     1      56.304  -0.376  13.904  1.00  0.00    -0.074 SA
HETATM    2  C   UNL     1      57.951  -0.248  13.492  1.00  0.00     0.084 A 
HETATM    3  C   UNL     1      56.073   1.321  13.807  1.00  0.00     0.011 A 
HETATM    4  C   UNL     1      57.243   1.965  13.446  1.00  0.00     0.030 A 
HETATM    5  C   UNL     1      58.345   1.065  13.267  1.00  0.00    -0.001 A 
HETATM    6  N   UNL     1      58.735  -1.347  13.422  1.00  0.00    -0.360 N 
ATOM      7  HN  UNL     1      58.388  -2.289  13.599  1.00  0.00     0.166 HD
HETATM    8  C   UNL     1      59.697   1.278  12.925  1.00  0.00     0.015 A 
HETATM    9  C   UNL     1      60.016  -1.084  13.095  1.00  0.00     0.089 A 
HETATM   10  C   UNL     1      60.540   0.172  12.843  1.00  0.00     0.018 A 
ENDROOT
BRANCH   3  11
HETATM   11  C   UNL     1      54.736   1.922  14.134  1.00  0.00     0.277 C 
BRANCH  11  12
HETATM   12  N   UNL     1      54.895   3.240  14.751  1.00  0.00    -0.075 N 
HETATM   13  C   UNL     1      54.336   4.279  13.897  1.00  0.00     0.267 C 
HETATM   14  H   UNL     1      55.887   3.424  14.897  1.00  0.00     0.277 HD
HETATM   15  H   UNL     1      54.399   3.247  15.642  1.00  0.00     0.277 HD
ENDBRANCH  11  12
ENDBRANCH   3  11
TORSDOF 2
ENDMDL
MODEL 9
REMARK VINA RESULT:      -3.4      9.992     12.031
REMARK  2 active torsions:
REMARK  status: ('A' for Active; 'I' for Inactive)
REMARK    1  A    between atoms: C_3  and  C_9 
REMARK    2  A    between atoms: N_8  and  C_9 
ROOT
HETATM    1  S   UNL     1      56.407   2.087  10.718  1.00  0.00    -0.074 SA
HETATM    2  C   UNL     1      57.117   1.595  12.184  1.00  0.00     0.084 A 
HETATM    3  C   UNL     1      57.802   2.971  10.253  1.00  0.00     0.011 A 
HETATM    4  C   UNL     1      58.799   2.868  11.207  1.00  0.00     0.030 A 
HETATM    5  C   UNL     1      58.411   2.076  12.338  1.00  0.00    -0.001 A 
HETATM    6  N   UNL     1      56.434   0.827  13.062  1.00  0.00    -0.360 N 
ATOM      7  HN  UNL     1      55.482   0.503  12.893  1.00  0.00     0.166 HD
HETATM    8  C   UNL     1      59.086   1.729  13.528  1.00  0.00     0.015 A 
HETATM    9  C   UNL     1      57.125   0.529  14.179  1.00  0.00     0.089 A 
HETATM   10  C   UNL     1      58.417   0.939  14.460  1.00  0.00     0.018 A 
ENDROOT
BRANCH   3  11
HETATM   11  C   UNL     1      57.810   3.752   8.971  1.00  0.00     0.277 C 
BRANCH  11  12
HETATM   12  N   UNL     1      59.050   4.517   8.836  1.00  0.00    -0.075 N 
HETATM   13  C   UNL     1      58.766   5.940   8.707  1.00  0.00     0.267 C 
HETATM   14  H   UNL     1      59.551   4.199   8.006  1.00  0.00     0.277 HD
HETATM   15  H   UNL     1      59.618   4.371   9.670  1.00  0.00     0.277 HD
ENDBRANCH  11  12
ENDBRANCH   3  11
TORSDOF 2
ENDMDL
