MODEL 1
REMARK VINA RESULT:      -5.2      0.000      0.000
REMARK  2 active torsions:
REMARK  status: ('A' for Active; 'I' for Inactive)
REMARK    1  A    between atoms: C_4  and  C_7 
REMARK    2  A    between atoms: C_7  and  O_8 
ROOT
HETATM    1  N   UNL     1      62.219  10.891   3.901  1.00  0.00    -0.351 N 
ATOM      2  HN  UNL     1      61.778  11.800   3.756  1.00  0.00     0.166 HD
HETATM    3  S   UNL     1      63.526   8.943   4.974  1.00  0.00    -0.072 SA
HETATM    4  C   UNL     1      62.851  10.520   4.996  1.00  0.00     0.075 A 
HETATM    5  C   UNL     1      62.246   9.857   2.973  1.00  0.00     0.050 A 
HETATM    6  C   UNL     1      62.919   8.705   3.381  1.00  0.00     0.033 A 
HETATM    7  C   UNL     1      61.663   9.880   1.689  1.00  0.00     0.031 A 
HETATM    8  C   UNL     1      63.033   7.575   2.552  1.00  0.00     0.021 A 
HETATM    9  C   UNL     1      62.447   7.625   1.283  1.00  0.00     0.002 A 
HETATM   10  C   UNL     1      61.770   8.759   0.855  1.00  0.00     0.002 A 
ENDROOT
BRANCH   4  11
HETATM   11  C   UNL     1      63.025  11.393   6.201  1.00  0.00     0.229 C 
BRANCH  11  12
HETATM   12  O   UNL     1      64.424  11.535   6.462  1.00  0.00    -0.394 OA
HETATM   13  H   UNL     1      64.729  10.790   7.003  1.00  0.00     0.209 HD
ENDBRANCH  11  12
ENDBRANCH   4  11
TORSDOF 2
ENDMDL
MODEL 2
REMARK VINA RESULT:      -4.8      1.575      2.442
REMARK  2 active torsions:
REMARK  status: ('A' for Active; 'I' for Inactive)
REMARK    1  A    between atoms: C_4  and  C_7 
REMARK    2  A    between atoms: C_7  and  O_8 
ROOT
HETATM    1  N   UNL     1      64.100   9.169   5.267  1.00  0.00    -0.351 N 
ATOM      2  HN  UNL     1      64.785   9.124   6.021  1.00  0.00     0.166 HD
HETATM    3  S   UNL     1      62.161   9.957   3.759  1.00  0.00    -0.072 SA
HETATM    4  C   UNL     1      63.219  10.134   5.098  1.00  0.00     0.075 A 
HETATM    5  C   UNL     1      63.953   8.221   4.261  1.00  0.00     0.050 A 
HETATM    6  C   UNL     1      62.938   8.481   3.338  1.00  0.00     0.033 A 
HETATM    7  C   UNL     1      64.726   7.052   4.104  1.00  0.00     0.031 A 
HETATM    8  C   UNL     1      62.666   7.613   2.266  1.00  0.00     0.021 A 
HETATM    9  C   UNL     1      63.447   6.460   2.134  1.00  0.00     0.002 A 
HETATM   10  C   UNL     1      64.463   6.180   3.038  1.00  0.00     0.002 A 
ENDROOT
BRANCH   4  11
HETATM   11  C   UNL     1      63.087  11.317   6.007  1.00  0.00     0.229 C 
BRANCH  11  12
HETATM   12  O   UNL     1      64.382  11.650   6.512  1.00  0.00    -0.394 OA
HETATM   13  H   UNL     1      64.946  11.950   5.782  1.00  0.00     0.209 HD
ENDBRANCH  11  12
ENDBRANCH   4  11
TORSDOF 2
ENDMDL
MODEL 3
REMARK VINA RESULT:      -4.7      2.236      2.889
REMARK  2 active torsions:
REMARK  status: ('A' for Active; 'I' for Inactive)
REMARK    1  A    between atoms: C_4  and  C_7 
REMARK    2  A    between atoms: C_7  and  O_8 
ROOT
HETATM    1  N   UNL     1      63.151   9.019   5.586  1.00  0.00    -0.351 N 
ATOM      2  HN  UNL     1      63.201   9.512   6.477  1.00  0.00     0.166 HD
HETATM    3  S   UNL     1      63.337   7.179   3.787  1.00  0.00    -0.072 SA
HETATM    4  C   UNL     1      63.495   7.762   5.393  1.00  0.00     0.075 A 
HETATM    5  C   UNL     1      62.709   9.571   4.389  1.00  0.00     0.050 A 
HETATM    6  C   UNL     1      62.739   8.714   3.288  1.00  0.00     0.033 A 
HETATM    7  C   UNL     1      62.248  10.891   4.205  1.00  0.00     0.031 A 
HETATM    8  C   UNL     1      62.327   9.129   2.009  1.00  0.00     0.021 A 
HETATM    9  C   UNL     1      61.874  10.443   1.855  1.00  0.00     0.002 A 
HETATM   10  C   UNL     1      61.833  11.315   2.935  1.00  0.00     0.002 A 
ENDROOT
BRANCH   4  11
HETATM   11  C   UNL     1      64.027   6.864   6.467  1.00  0.00     0.229 C 
BRANCH  11  12
HETATM   12  O   UNL     1      65.215   7.451   7.004  1.00  0.00    -0.394 OA
HETATM   13  H   UNL     1      65.478   8.207   6.457  1.00  0.00     0.209 HD
ENDBRANCH  11  12
ENDBRANCH   4  11
TORSDOF 2
ENDMDL
MODEL 4
REMARK VINA RESULT:      -4.2      2.228      2.950
REMARK  2 active torsions:
REMARK  status: ('A' for Active; 'I' for Inactive)
REMARK    1  A    between atoms: C_4  and  C_7 
REMARK    2  A    between atoms: C_7  and  O_8 
ROOT
HETATM    1  N   UNL     1      63.415   7.158   3.662  1.00  0.00    -0.351 N 
ATOM      2  HN  UNL     1      63.639   6.250   3.256  1.00  0.00     0.166 HD
HETATM    3  S   UNL     1      63.122   9.082   5.354  1.00  0.00    -0.072 SA
HETATM    4  C   UNL     1      63.607   7.495   4.921  1.00  0.00     0.075 A 
HETATM    5  C   UNL     1      62.861   8.229   2.971  1.00  0.00     0.050 A 
HETATM    6  C   UNL     1      62.626   9.375   3.732  1.00  0.00     0.033 A 
HETATM    7  C   UNL     1      62.527   8.249   1.601  1.00  0.00     0.031 A 
HETATM    8  C   UNL     1      62.067  10.539   3.175  1.00  0.00     0.021 A 
HETATM    9  C   UNL     1      61.745  10.530   1.814  1.00  0.00     0.002 A 
HETATM   10  C   UNL     1      61.970   9.403   1.035  1.00  0.00     0.002 A 
ENDROOT
BRANCH   4  11
HETATM   11  C   UNL     1      64.180   6.578   5.956  1.00  0.00     0.229 C 
BRANCH  11  12
HETATM   12  O   UNL     1      64.219   7.270   7.207  1.00  0.00    -0.394 OA
HETATM   13  H   UNL     1      63.329   7.588   7.427  1.00  0.00     0.209 HD
ENDBRANCH  11  12
ENDBRANCH   4  11
TORSDOF 2
ENDMDL
MODEL 5
REMARK VINA RESULT:      -4.1      3.167      4.093
REMARK  2 active torsions:
REMARK  status: ('A' for Active; 'I' for Inactive)
REMARK    1  A    between atoms: C_4  and  C_7 
REMARK    2  A    between atoms: C_7  and  O_8 
ROOT
HETATM    1  N   UNL     1      65.187   8.843   5.703  1.00  0.00    -0.351 N 
ATOM      2  HN  UNL     1      65.665   9.331   6.461  1.00  0.00     0.166 HD
HETATM    3  S   UNL     1      63.442   8.204   3.915  1.00  0.00    -0.072 SA
HETATM    4  C   UNL     1      64.044   9.214   5.163  1.00  0.00     0.075 A 
HETATM    5  C   UNL     1      65.644   7.687   5.082  1.00  0.00     0.050 A 
HETATM    6  C   UNL     1      64.820   7.184   4.074  1.00  0.00     0.033 A 
HETATM    7  C   UNL     1      66.839   7.001   5.381  1.00  0.00     0.031 A 
HETATM    8  C   UNL     1      65.145   6.020   3.356  1.00  0.00     0.021 A 
HETATM    9  C   UNL     1      66.336   5.359   3.674  1.00  0.00     0.002 A 
HETATM   10  C   UNL     1      67.174   5.840   4.672  1.00  0.00     0.002 A 
ENDROOT
BRANCH   4  11
HETATM   11  C   UNL     1      63.262  10.416   5.597  1.00  0.00     0.229 C 
BRANCH  11  12
HETATM   12  O   UNL     1      64.162  11.353   6.193  1.00  0.00    -0.394 OA
HETATM   13  H   UNL     1      65.018  11.314   5.737  1.00  0.00     0.209 HD
ENDBRANCH  11  12
ENDBRANCH   4  11
TORSDOF 2
ENDMDL
MODEL 6
REMARK VINA RESULT:      -4.0      6.133      7.175
REMARK  2 active torsions:
REMARK  status: ('A' for Active; 'I' for Inactive)
REMARK    1  A    between atoms: C_4  and  C_7 
REMARK    2  A    between atoms: C_7  and  O_8 
ROOT
HETATM    1  N   UNL     1      65.067   7.112   7.374  1.00  0.00    -0.351 N 
ATOM      2  HN  UNL     1      64.940   8.107   7.559  1.00  0.00     0.166 HD
HETATM    3  S   UNL     1      64.713   4.721   6.474  1.00  0.00    -0.072 SA
HETATM    4  C   UNL     1      64.293   6.379   6.599  1.00  0.00     0.075 A 
HETATM    5  C   UNL     1      66.082   6.323   7.900  1.00  0.00     0.050 A 
HETATM    6  C   UNL     1      66.054   4.981   7.520  1.00  0.00     0.033 A 
HETATM    7  C   UNL     1      67.109   6.760   8.763  1.00  0.00     0.031 A 
HETATM    8  C   UNL     1      67.013   4.058   7.974  1.00  0.00     0.021 A 
HETATM    9  C   UNL     1      68.020   4.517   8.829  1.00  0.00     0.002 A 
HETATM   10  C   UNL     1      68.071   5.849   9.220  1.00  0.00     0.002 A 
ENDROOT
BRANCH   4  11
HETATM   11  C   UNL     1      63.091   6.905   5.876  1.00  0.00     0.229 C 
BRANCH  11  12
HETATM   12  O   UNL     1      62.867   8.256   6.287  1.00  0.00    -0.394 OA
HETATM   13  H   UNL     1      62.248   8.682   5.674  1.00  0.00     0.209 HD
ENDBRANCH  11  12
ENDBRANCH   4  11
TORSDOF 2
ENDMDL
MODEL 7
REMARK VINA RESULT:      -4.0      3.050      3.968
REMARK  2 active torsions:
REMARK  status: ('A' for Active; 'I' for Inactive)
REMARK    1  A    between atoms: C_4  and  C_7 
REMARK    2  A    between atoms: C_7  and  O_8 
ROOT
HETATM    1  N   UNL     1      64.221   9.469   5.455  1.00  0.00    -0.351 N 
ATOM      2  HN  UNL     1      64.467  10.104   6.215  1.00  0.00     0.166 HD
HETATM    3  S   UNL     1      63.008   8.409   3.441  1.00  0.00    -0.072 SA
HETATM    4  C   UNL     1      63.219   9.639   4.617  1.00  0.00     0.075 A 
HETATM    5  C   UNL     1      64.893   8.292   5.146  1.00  0.00     0.050 A 
HETATM    6  C   UNL     1      64.373   7.571   4.070  1.00  0.00     0.033 A 
HETATM    7  C   UNL     1      66.025   7.784   5.816  1.00  0.00     0.031 A 
HETATM    8  C   UNL     1      64.942   6.359   3.641  1.00  0.00     0.021 A 
HETATM    9  C   UNL     1      66.064   5.877   4.323  1.00  0.00     0.002 A 
HETATM   10  C   UNL     1      66.601   6.577   5.395  1.00  0.00     0.002 A 
ENDROOT
BRANCH   4  11
HETATM   11  C   UNL     1      62.275  10.801   4.664  1.00  0.00     0.229 C 
BRANCH  11  12
HETATM   12  O   UNL     1      61.277  10.618   3.657  1.00  0.00    -0.394 OA
HETATM   13  H   UNL     1      60.544  11.233   3.813  1.00  0.00     0.209 HD
ENDBRANCH  11  12
ENDBRANCH   4  11
TORSDOF 2
ENDMDL
MODEL 8
REMARK VINA RESULT:      -3.8      2.964      4.084
REMARK  2 active torsions:
REMARK  status: ('A' for Active; 'I' for Inactive)
REMARK    1  A    between atoms: C_4  and  C_7 
REMARK    2  A    between atoms: C_7  and  O_8 
ROOT
HETATM    1  N   UNL     1      64.270   7.014   3.267  1.00  0.00    -0.351 N 
ATOM      2  HN  UNL     1      64.075   6.394   2.481  1.00  0.00     0.166 HD
HETATM    3  S   UNL     1      65.338   8.024   5.386  1.00  0.00    -0.072 SA
HETATM    4  C   UNL     1      65.242   6.848   4.142  1.00  0.00     0.075 A 
HETATM    5  C   UNL     1      63.551   8.161   3.580  1.00  0.00     0.050 A 
HETATM    6  C   UNL     1      63.988   8.851   4.712  1.00  0.00     0.033 A 
HETATM    7  C   UNL     1      62.446   8.668   2.864  1.00  0.00     0.031 A 
HETATM    8  C   UNL     1      63.359  10.027   5.156  1.00  0.00     0.021 A 
HETATM    9  C   UNL     1      62.266  10.508   4.429  1.00  0.00     0.002 A 
HETATM   10  C   UNL     1      61.813   9.840   3.298  1.00  0.00     0.002 A 
ENDROOT
BRANCH   4  11
HETATM   11  C   UNL     1      66.209   5.705   4.114  1.00  0.00     0.229 C 
BRANCH  11  12
HETATM   12  O   UNL     1      67.537   6.231   4.164  1.00  0.00    -0.394 OA
HETATM   13  H   UNL     1      68.019   5.824   4.901  1.00  0.00     0.209 HD
ENDBRANCH  11  12
ENDBRANCH   4  11
TORSDOF 2
ENDMDL
MODEL 9
REMARK VINA RESULT:      -3.8      2.666      3.308
REMARK  2 active torsions:
REMARK  status: ('A' for Active; 'I' for Inactive)
REMARK    1  A    between atoms: C_4  and  C_7 
REMARK    2  A    between atoms: C_7  and  O_8 
ROOT
HETATM    1  N   UNL     1      61.193   9.357   3.220  1.00  0.00    -0.351 N 
ATOM      2  HN  UNL     1      60.524   9.400   2.450  1.00  0.00     0.166 HD
HETATM    3  S   UNL     1      62.965  10.033   4.968  1.00  0.00    -0.072 SA
HETATM    4  C   UNL     1      61.889  10.378   3.677  1.00  0.00     0.075 A 
HETATM    5  C   UNL     1      61.507   8.215   3.946  1.00  0.00     0.050 A 
HETATM    6  C   UNL     1      62.462   8.388   4.949  1.00  0.00     0.033 A 
HETATM    7  C   UNL     1      60.954   6.932   3.753  1.00  0.00     0.031 A 
HETATM    8  C   UNL     1      62.886   7.324   5.765  1.00  0.00     0.021 A 
HETATM    9  C   UNL     1      62.322   6.062   5.553  1.00  0.00     0.002 A 
HETATM   10  C   UNL     1      61.368   5.865   4.562  1.00  0.00     0.002 A 
ENDROOT
BRANCH   4  11
HETATM   11  C   UNL     1      61.808  11.766   3.119  1.00  0.00     0.229 C 
BRANCH  11  12
HETATM   12  O   UNL     1      62.167  11.722   1.736  1.00  0.00    -0.394 OA
HETATM   13  H   UNL     1      61.464  12.130   1.207  1.00  0.00     0.209 HD
ENDBRANCH  11  12
ENDBRANCH   4  11
TORSDOF 2
ENDMDL
