MODEL 1
REMARK VINA RESULT:      -5.7      0.000      0.000
REMARK  2 active torsions:
REMARK  status: ('A' for Active; 'I' for Inactive)
REMARK    1  A    between atoms: C_4  and  C_7 
REMARK    2  A    between atoms: C_7  and  O_11 
ROOT
HETATM    1  N   UNL     1      63.484   9.024   5.718  1.00  0.00    -0.300 N 
ATOM      2  HN  UNL     1      63.876   8.808   6.634  1.00  0.00     0.187 HD
HETATM    3  N   UNL     1      63.316   8.194   4.664  1.00  0.00    -0.296 N 
HETATM    4  C   UNL     1      63.013  10.201   5.272  1.00  0.00     0.061 A 
HETATM    5  C   UNL     1      62.569  10.122   3.924  1.00  0.00     0.018 A 
HETATM    6  C   UNL     1      62.787   8.799   3.551  1.00  0.00     0.062 A 
HETATM    7  C   UNL     1      63.665   6.799   4.790  1.00  0.00     0.178 C 
HETATM    8  C   UNL     1      62.013  11.017   2.991  1.00  0.00     0.016 A 
HETATM    9  C   UNL     1      62.478   8.318   2.270  1.00  0.00     0.032 A 
HETATM   10  C   UNL     1      61.700  10.553   1.708  1.00  0.00     0.001 A 
HETATM   11  C   UNL     1      61.932   9.225   1.355  1.00  0.00     0.002 A 
ENDROOT
BRANCH   4  12
HETATM   12  C   UNL     1      63.009  11.396   6.166  1.00  0.00     0.223 C 
BRANCH  12  13
HETATM   13  O   UNL     1      64.325  11.769   6.575  1.00  0.00    -0.395 OA
HETATM   14  H   UNL     1      64.558  11.293   7.388  1.00  0.00     0.209 HD
ENDBRANCH  12  13
ENDBRANCH   4  12
TORSDOF 2
ENDMDL
MODEL 2
REMARK VINA RESULT:      -5.0      1.464      3.062
REMARK  2 active torsions:
REMARK  status: ('A' for Active; 'I' for Inactive)
REMARK    1  A    between atoms: C_4  and  C_7 
REMARK    2  A    between atoms: C_7  and  O_11 
ROOT
HETATM    1  N   UNL     1      62.125  10.517   3.928  1.00  0.00    -0.300 N 
ATOM      2  HN  UNL     1      61.509  11.324   3.835  1.00  0.00     0.187 HD
HETATM    3  N   UNL     1      62.293   9.490   3.067  1.00  0.00    -0.296 N 
HETATM    4  C   UNL     1      62.962  10.223   4.938  1.00  0.00     0.061 A 
HETATM    5  C   UNL     1      63.643   8.994   4.726  1.00  0.00     0.018 A 
HETATM    6  C   UNL     1      63.179   8.533   3.498  1.00  0.00     0.062 A 
HETATM    7  C   UNL     1      61.583   9.487   1.810  1.00  0.00     0.178 C 
HETATM    8  C   UNL     1      64.589   8.230   5.434  1.00  0.00     0.016 A 
HETATM    9  C   UNL     1      63.616   7.326   2.933  1.00  0.00     0.032 A 
HETATM   10  C   UNL     1      65.035   7.023   4.885  1.00  0.00     0.001 A 
HETATM   11  C   UNL     1      64.553   6.578   3.655  1.00  0.00     0.002 A 
ENDROOT
BRANCH   4  12
HETATM   12  C   UNL     1      63.082  11.144   6.107  1.00  0.00     0.223 C 
BRANCH  12  13
HETATM   13  O   UNL     1      64.439  11.488   6.386  1.00  0.00    -0.395 OA
HETATM   14  H   UNL     1      64.498  11.885   7.269  1.00  0.00     0.209 HD
ENDBRANCH  12  13
ENDBRANCH   4  12
TORSDOF 2
ENDMDL
MODEL 3
REMARK VINA RESULT:      -4.9      1.827      2.637
REMARK  2 active torsions:
REMARK  status: ('A' for Active; 'I' for Inactive)
REMARK    1  A    between atoms: C_4  and  C_7 
REMARK    2  A    between atoms: C_7  and  O_11 
ROOT
HETATM    1  N   UNL     1      63.332   6.986   3.555  1.00  0.00    -0.300 N 
ATOM      2  HN  UNL     1      63.677   6.032   3.663  1.00  0.00     0.187 HD
HETATM    3  N   UNL     1      62.855   7.581   2.440  1.00  0.00    -0.296 N 
HETATM    4  C   UNL     1      63.245   7.949   4.489  1.00  0.00     0.061 A 
HETATM    5  C   UNL     1      62.736   9.164   3.957  1.00  0.00     0.018 A 
HETATM    6  C   UNL     1      62.497   8.895   2.613  1.00  0.00     0.062 A 
HETATM    7  C   UNL     1      62.740   6.821   1.218  1.00  0.00     0.178 C 
HETATM    8  C   UNL     1      62.455  10.447   4.462  1.00  0.00     0.016 A 
HETATM    9  C   UNL     1      61.988   9.860   1.731  1.00  0.00     0.032 A 
HETATM   10  C   UNL     1      61.948  11.422   3.596  1.00  0.00     0.001 A 
HETATM   11  C   UNL     1      61.722  11.132   2.252  1.00  0.00     0.002 A 
ENDROOT
BRANCH   4  12
HETATM   12  C   UNL     1      63.671   7.674   5.893  1.00  0.00     0.223 C 
BRANCH  12  13
HETATM   13  O   UNL     1      62.587   7.782   6.817  1.00  0.00    -0.395 OA
HETATM   14  H   UNL     1      62.541   6.978   7.357  1.00  0.00     0.209 HD
ENDBRANCH  12  13
ENDBRANCH   4  12
TORSDOF 2
ENDMDL
MODEL 4
REMARK VINA RESULT:      -4.7      1.762      2.944
REMARK  2 active torsions:
REMARK  status: ('A' for Active; 'I' for Inactive)
REMARK    1  A    between atoms: C_4  and  C_7 
REMARK    2  A    between atoms: C_7  and  O_11 
ROOT
HETATM    1  N   UNL     1      63.205   9.706   5.439  1.00  0.00    -0.300 N 
ATOM      2  HN  UNL     1      63.402  10.038   6.383  1.00  0.00     0.187 HD
HETATM    3  N   UNL     1      62.571  10.358   4.439  1.00  0.00    -0.296 N 
HETATM    4  C   UNL     1      63.514   8.516   4.895  1.00  0.00     0.061 A 
HETATM    5  C   UNL     1      63.052   8.406   3.556  1.00  0.00     0.018 A 
HETATM    6  C   UNL     1      62.432   9.622   3.288  1.00  0.00     0.062 A 
HETATM    7  C   UNL     1      62.131  11.718   4.638  1.00  0.00     0.178 C 
HETATM    8  C   UNL     1      63.090   7.418   2.554  1.00  0.00     0.016 A 
HETATM    9  C   UNL     1      61.835   9.906   2.051  1.00  0.00     0.032 A 
HETATM   10  C   UNL     1      62.498   7.685   1.315  1.00  0.00     0.001 A 
HETATM   11  C   UNL     1      61.878   8.909   1.070  1.00  0.00     0.002 A 
ENDROOT
BRANCH   4  12
HETATM   12  C   UNL     1      64.251   7.494   5.695  1.00  0.00     0.223 C 
BRANCH  12  13
HETATM   13  O   UNL     1      63.670   7.294   6.983  1.00  0.00    -0.395 OA
HETATM   14  H   UNL     1      64.152   7.820   7.641  1.00  0.00     0.209 HD
ENDBRANCH  12  13
ENDBRANCH   4  12
TORSDOF 2
ENDMDL
MODEL 5
REMARK VINA RESULT:      -4.6      1.530      2.092
REMARK  2 active torsions:
REMARK  status: ('A' for Active; 'I' for Inactive)
REMARK    1  A    between atoms: C_4  and  C_7 
REMARK    2  A    between atoms: C_7  and  O_11 
ROOT
HETATM    1  N   UNL     1      62.856   9.509   4.619  1.00  0.00    -0.300 N 
ATOM      2  HN  UNL     1      62.970   9.947   5.533  1.00  0.00     0.187 HD
HETATM    3  N   UNL     1      63.190   8.253   4.247  1.00  0.00    -0.296 N 
HETATM    4  C   UNL     1      62.340  10.045   3.500  1.00  0.00     0.061 A 
HETATM    5  C   UNL     1      62.370   9.134   2.410  1.00  0.00     0.018 A 
HETATM    6  C   UNL     1      62.939   7.973   2.927  1.00  0.00     0.062 A 
HETATM    7  C   UNL     1      63.734   7.339   5.223  1.00  0.00     0.178 C 
HETATM    8  C   UNL     1      61.984   9.166   1.057  1.00  0.00     0.016 A 
HETATM    9  C   UNL     1      63.148   6.826   2.148  1.00  0.00     0.032 A 
HETATM   10  C   UNL     1      62.187   8.030   0.265  1.00  0.00     0.001 A 
HETATM   11  C   UNL     1      62.762   6.881   0.803  1.00  0.00     0.002 A 
ENDROOT
BRANCH   4  12
HETATM   12  C   UNL     1      61.830  11.447   3.504  1.00  0.00     0.223 C 
BRANCH  12  13
HETATM   13  O   UNL     1      62.100  12.117   4.736  1.00  0.00    -0.395 OA
HETATM   14  H   UNL     1      61.679  11.635   5.465  1.00  0.00     0.209 HD
ENDBRANCH  12  13
ENDBRANCH   4  12
TORSDOF 2
ENDMDL
MODEL 6
REMARK VINA RESULT:      -4.4      2.117      3.453
REMARK  2 active torsions:
REMARK  status: ('A' for Active; 'I' for Inactive)
REMARK    1  A    between atoms: C_4  and  C_7 
REMARK    2  A    between atoms: C_7  and  O_11 
ROOT
HETATM    1  N   UNL     1      60.636   9.095   3.389  1.00  0.00    -0.300 N 
ATOM      2  HN  UNL     1      59.791   9.444   2.936  1.00  0.00     0.187 HD
HETATM    3  N   UNL     1      60.870   7.857   3.878  1.00  0.00    -0.296 N 
HETATM    4  C   UNL     1      61.779   9.755   3.639  1.00  0.00     0.061 A 
HETATM    5  C   UNL     1      62.729   8.941   4.312  1.00  0.00     0.018 A 
HETATM    6  C   UNL     1      62.104   7.707   4.462  1.00  0.00     0.062 A 
HETATM    7  C   UNL     1      59.865   6.830   3.737  1.00  0.00     0.178 C 
HETATM    8  C   UNL     1      64.036   9.113   4.805  1.00  0.00     0.016 A 
HETATM    9  C   UNL     1      62.724   6.620   5.094  1.00  0.00     0.032 A 
HETATM   10  C   UNL     1      64.670   8.039   5.440  1.00  0.00     0.001 A 
HETATM   11  C   UNL     1      64.022   6.814   5.583  1.00  0.00     0.002 A 
ENDROOT
BRANCH   4  12
HETATM   12  C   UNL     1      61.928  11.182   3.225  1.00  0.00     0.223 C 
BRANCH  12  13
HETATM   13  O   UNL     1      62.121  12.050   4.342  1.00  0.00    -0.395 OA
HETATM   14  H   UNL     1      61.440  11.874   5.010  1.00  0.00     0.209 HD
ENDBRANCH  12  13
ENDBRANCH   4  12
TORSDOF 2
ENDMDL
MODEL 7
REMARK VINA RESULT:      -4.3      2.700      4.296
REMARK  2 active torsions:
REMARK  status: ('A' for Active; 'I' for Inactive)
REMARK    1  A    between atoms: C_4  and  C_7 
REMARK    2  A    between atoms: C_7  and  O_11 
ROOT
HETATM    1  N   UNL     1      61.562  10.242   3.185  1.00  0.00    -0.300 N 
ATOM      2  HN  UNL     1      60.882  10.983   3.019  1.00  0.00     0.187 HD
HETATM    3  N   UNL     1      62.487  10.161   4.167  1.00  0.00    -0.296 N 
HETATM    4  C   UNL     1      61.750   9.114   2.478  1.00  0.00     0.061 A 
HETATM    5  C   UNL     1      62.814   8.330   2.999  1.00  0.00     0.018 A 
HETATM    6  C   UNL     1      63.282   9.043   4.099  1.00  0.00     0.062 A 
HETATM    7  C   UNL     1      62.550  11.190   5.176  1.00  0.00     0.178 C 
HETATM    8  C   UNL     1      63.426   7.108   2.662  1.00  0.00     0.016 A 
HETATM    9  C   UNL     1      64.350   8.594   4.889  1.00  0.00     0.032 A 
HETATM   10  C   UNL     1      64.493   6.645   3.440  1.00  0.00     0.001 A 
HETATM   11  C   UNL     1      64.948   7.379   4.534  1.00  0.00     0.002 A 
ENDROOT
BRANCH   4  12
HETATM   12  C   UNL     1      60.893   8.818   1.293  1.00  0.00     0.223 C 
BRANCH  12  13
HETATM   13  O   UNL     1      59.560   8.467   1.665  1.00  0.00    -0.395 OA
HETATM   14  H   UNL     1      59.054   8.234   0.871  1.00  0.00     0.209 HD
ENDBRANCH  12  13
ENDBRANCH   4  12
TORSDOF 2
ENDMDL
MODEL 8
REMARK VINA RESULT:      -4.0     11.105     12.782
REMARK  2 active torsions:
REMARK  status: ('A' for Active; 'I' for Inactive)
REMARK    1  A    between atoms: C_4  and  C_7 
REMARK    2  A    between atoms: C_7  and  O_11 
ROOT
HETATM    1  N   UNL     1      56.194   2.537  10.669  1.00  0.00    -0.300 N 
ATOM      2  HN  UNL     1      55.598   2.870   9.912  1.00  0.00     0.187 HD
HETATM    3  N   UNL     1      55.837   1.833  11.766  1.00  0.00    -0.296 N 
HETATM    4  C   UNL     1      57.521   2.694  10.813  1.00  0.00     0.061 A 
HETATM    5  C   UNL     1      58.001   2.110  12.016  1.00  0.00     0.018 A 
HETATM    6  C   UNL     1      56.875   1.561  12.623  1.00  0.00     0.062 A 
HETATM    7  C   UNL     1      54.464   1.419  11.934  1.00  0.00     0.178 C 
HETATM    8  C   UNL     1      59.251   1.990  12.651  1.00  0.00     0.016 A 
HETATM    9  C   UNL     1      56.934   0.891  13.853  1.00  0.00     0.032 A 
HETATM   10  C   UNL     1      59.328   1.325  13.880  1.00  0.00     0.001 A 
HETATM   11  C   UNL     1      58.186   0.787  14.471  1.00  0.00     0.002 A 
ENDROOT
BRANCH   4  12
HETATM   12  C   UNL     1      58.308   3.423   9.775  1.00  0.00     0.223 C 
BRANCH  12  13
HETATM   13  O   UNL     1      58.651   4.746  10.187  1.00  0.00    -0.395 OA
HETATM   14  H   UNL     1      59.616   4.833  10.229  1.00  0.00     0.209 HD
ENDBRANCH  12  13
ENDBRANCH   4  12
TORSDOF 2
ENDMDL
MODEL 9
REMARK VINA RESULT:      -3.9      2.177      2.843
REMARK  2 active torsions:
REMARK  status: ('A' for Active; 'I' for Inactive)
REMARK    1  A    between atoms: C_4  and  C_7 
REMARK    2  A    between atoms: C_7  and  O_11 
ROOT
HETATM    1  N   UNL     1      62.013   5.979   4.464  1.00  0.00    -0.300 N 
ATOM      2  HN  UNL     1      62.067   5.085   4.952  1.00  0.00     0.187 HD
HETATM    3  N   UNL     1      61.456   6.242   3.261  1.00  0.00    -0.296 N 
HETATM    4  C   UNL     1      62.478   7.174   4.865  1.00  0.00     0.061 A 
HETATM    5  C   UNL     1      62.238   8.191   3.902  1.00  0.00     0.018 A 
HETATM    6  C   UNL     1      61.575   7.550   2.860  1.00  0.00     0.062 A 
HETATM    7  C   UNL     1      60.790   5.186   2.536  1.00  0.00     0.178 C 
HETATM    8  C   UNL     1      62.508   9.569   3.800  1.00  0.00     0.016 A 
HETATM    9  C   UNL     1      61.165   8.223   1.701  1.00  0.00     0.032 A 
HETATM   10  C   UNL     1      62.106  10.256   2.649  1.00  0.00     0.001 A 
HETATM   11  C   UNL     1      61.448   9.592   1.616  1.00  0.00     0.002 A 
ENDROOT
BRANCH   4  12
HETATM   12  C   UNL     1      63.163   7.310   6.185  1.00  0.00     0.223 C 
BRANCH  12  13
HETATM   13  O   UNL     1      62.353   7.987   7.146  1.00  0.00    -0.395 OA
HETATM   14  H   UNL     1      62.845   8.739   7.511  1.00  0.00     0.209 HD
ENDBRANCH  12  13
ENDBRANCH   4  12
TORSDOF 2
ENDMDL
