MODEL 1
REMARK VINA RESULT:      -4.9      0.000      0.000
REMARK  2 active torsions:
REMARK  status: ('A' for Active; 'I' for Inactive)
REMARK    1  A    between atoms: C_4  and  C_7 
REMARK    2  A    between atoms: C_7  and  N_9 
ROOT
HETATM    1  N   UNL     1      63.091   6.892   3.326  1.00  0.00    -0.300 N 
ATOM      2  HN  UNL     1      63.366   5.915   3.429  1.00  0.00     0.187 HD
HETATM    3  N   UNL     1      62.777   7.551   2.194  1.00  0.00    -0.296 N 
HETATM    4  C   UNL     1      62.956   7.821   4.285  1.00  0.00     0.064 A 
HETATM    5  C   UNL     1      62.577   9.083   3.748  1.00  0.00     0.018 A 
HETATM    6  C   UNL     1      62.467   8.875   2.378  1.00  0.00     0.062 A 
HETATM    7  C   UNL     1      62.750   6.832   0.942  1.00  0.00     0.178 C 
HETATM    8  C   UNL     1      62.292  10.358   4.274  1.00  0.00     0.016 A 
HETATM    9  C   UNL     1      62.086   9.890   1.490  1.00  0.00     0.032 A 
HETATM   10  C   UNL     1      61.907  11.382   3.404  1.00  0.00     0.001 A 
HETATM   11  C   UNL     1      61.807  11.149   2.033  1.00  0.00     0.002 A 
ENDROOT
BRANCH   4  12
HETATM   12  C   UNL     1      63.165   7.458   5.724  1.00  0.00     0.291 C 
BRANCH  12  13
HETATM   13  N   UNL     1      64.540   7.747   6.171  1.00  0.00    -0.074 N 
HETATM   14  C   UNL     1      65.080   6.670   6.997  1.00  0.00     0.267 C 
HETATM   15  H   UNL     1      64.535   8.610   6.716  1.00  0.00     0.277 HD
HETATM   16  H   UNL     1      65.131   7.839   5.345  1.00  0.00     0.277 HD
ENDBRANCH  12  13
ENDBRANCH   4  12
TORSDOF 2
ENDMDL
MODEL 2
REMARK VINA RESULT:      -4.8      1.689      2.856
REMARK  2 active torsions:
REMARK  status: ('A' for Active; 'I' for Inactive)
REMARK    1  A    between atoms: C_4  and  C_7 
REMARK    2  A    between atoms: C_7  and  N_9 
ROOT
HETATM    1  N   UNL     1      63.504   9.294   5.569  1.00  0.00    -0.300 N 
ATOM      2  HN  UNL     1      63.788   9.525   6.522  1.00  0.00     0.187 HD
HETATM    3  N   UNL     1      62.815  10.058   4.700  1.00  0.00    -0.296 N 
HETATM    4  C   UNL     1      63.732   8.159   4.889  1.00  0.00     0.064 A 
HETATM    5  C   UNL     1      63.158   8.200   3.587  1.00  0.00     0.018 A 
HETATM    6  C   UNL     1      62.566   9.455   3.492  1.00  0.00     0.062 A 
HETATM    7  C   UNL     1      62.450  11.403   5.075  1.00  0.00     0.178 C 
HETATM    8  C   UNL     1      63.102   7.329   2.482  1.00  0.00     0.016 A 
HETATM    9  C   UNL     1      61.906   9.891   2.335  1.00  0.00     0.032 A 
HETATM   10  C   UNL     1      62.450   7.748   1.318  1.00  0.00     0.001 A 
HETATM   11  C   UNL     1      61.861   9.010   1.249  1.00  0.00     0.002 A 
ENDROOT
BRANCH   4  12
HETATM   12  C   UNL     1      64.537   7.057   5.505  1.00  0.00     0.291 C 
BRANCH  12  13
HETATM   13  N   UNL     1      64.744   7.265   6.950  1.00  0.00    -0.074 N 
HETATM   14  C   UNL     1      65.830   6.437   7.468  1.00  0.00     0.267 C 
HETATM   15  H   UNL     1      63.883   7.030   7.444  1.00  0.00     0.277 HD
HETATM   16  H   UNL     1      64.994   8.243   7.097  1.00  0.00     0.277 HD
ENDBRANCH  12  13
ENDBRANCH   4  12
TORSDOF 2
ENDMDL
MODEL 3
REMARK VINA RESULT:      -4.5      1.515      1.860
REMARK  2 active torsions:
REMARK  status: ('A' for Active; 'I' for Inactive)
REMARK    1  A    between atoms: C_4  and  C_7 
REMARK    2  A    between atoms: C_7  and  N_9 
ROOT
HETATM    1  N   UNL     1      63.037   7.328   2.172  1.00  0.00    -0.300 N 
ATOM      2  HN  UNL     1      63.118   6.528   1.544  1.00  0.00     0.187 HD
HETATM    3  N   UNL     1      62.340   8.465   1.983  1.00  0.00    -0.296 N 
HETATM    4  C   UNL     1      63.601   7.495   3.379  1.00  0.00     0.064 A 
HETATM    5  C   UNL     1      63.274   8.759   3.944  1.00  0.00     0.018 A 
HETATM    6  C   UNL     1      62.447   9.371   3.008  1.00  0.00     0.062 A 
HETATM    7  C   UNL     1      61.537   8.612   0.792  1.00  0.00     0.178 C 
HETATM    8  C   UNL     1      63.564   9.432   5.147  1.00  0.00     0.016 A 
HETATM    9  C   UNL     1      61.890  10.641   3.211  1.00  0.00     0.032 A 
HETATM   10  C   UNL     1      63.014  10.698   5.368  1.00  0.00     0.001 A 
HETATM   11  C   UNL     1      62.191  11.292   4.412  1.00  0.00     0.002 A 
ENDROOT
BRANCH   4  12
HETATM   12  C   UNL     1      64.427   6.402   3.985  1.00  0.00     0.291 C 
BRANCH  12  13
HETATM   13  N   UNL     1      65.855   6.762   4.053  1.00  0.00    -0.074 N 
HETATM   14  C   UNL     1      66.328   6.847   5.433  1.00  0.00     0.267 C 
HETATM   15  H   UNL     1      65.989   7.667   3.601  1.00  0.00     0.277 HD
HETATM   16  H   UNL     1      66.389   6.033   3.580  1.00  0.00     0.277 HD
ENDBRANCH  12  13
ENDBRANCH   4  12
TORSDOF 2
ENDMDL
MODEL 4
REMARK VINA RESULT:      -4.4      1.582      3.990
REMARK  2 active torsions:
REMARK  status: ('A' for Active; 'I' for Inactive)
REMARK    1  A    between atoms: C_4  and  C_7 
REMARK    2  A    between atoms: C_7  and  N_9 
ROOT
HETATM    1  N   UNL     1      63.244   7.161   2.256  1.00  0.00    -0.300 N 
ATOM      2  HN  UNL     1      63.436   6.296   1.750  1.00  0.00     0.187 HD
HETATM    3  N   UNL     1      63.644   7.505   3.496  1.00  0.00    -0.296 N 
HETATM    4  C   UNL     1      62.534   8.223   1.842  1.00  0.00     0.064 A 
HETATM    5  C   UNL     1      62.466   9.234   2.842  1.00  0.00     0.018 A 
HETATM    6  C   UNL     1      63.203   8.736   3.911  1.00  0.00     0.062 A 
HETATM    7  C   UNL     1      64.502   6.610   4.235  1.00  0.00     0.178 C 
HETATM    8  C   UNL     1      61.890  10.515   2.942  1.00  0.00     0.016 A 
HETATM    9  C   UNL     1      63.392   9.459   5.097  1.00  0.00     0.032 A 
HETATM   10  C   UNL     1      62.072  11.252   4.116  1.00  0.00     0.001 A 
HETATM   11  C   UNL     1      62.811  10.729   5.177  1.00  0.00     0.002 A 
ENDROOT
BRANCH   4  12
HETATM   12  C   UNL     1      61.956   8.254   0.461  1.00  0.00     0.291 C 
BRANCH  12  13
HETATM   13  N   UNL     1      60.758   7.404   0.344  1.00  0.00    -0.074 N 
HETATM   14  C   UNL     1      59.540   8.130   0.694  1.00  0.00     0.267 C 
HETATM   15  H   UNL     1      60.858   6.604   0.970  1.00  0.00     0.277 HD
HETATM   16  H   UNL     1      60.677   7.100  -0.627  1.00  0.00     0.277 HD
ENDBRANCH  12  13
ENDBRANCH   4  12
TORSDOF 2
ENDMDL
MODEL 5
REMARK VINA RESULT:      -4.1      3.249      6.907
REMARK  2 active torsions:
REMARK  status: ('A' for Active; 'I' for Inactive)
REMARK    1  A    between atoms: C_4  and  C_7 
REMARK    2  A    between atoms: C_7  and  N_9 
ROOT
HETATM    1  N   UNL     1      66.293   7.644   7.255  1.00  0.00    -0.300 N 
ATOM      2  HN  UNL     1      65.999   8.510   7.707  1.00  0.00     0.187 HD
HETATM    3  N   UNL     1      66.895   6.578   7.814  1.00  0.00    -0.296 N 
HETATM    4  C   UNL     1      66.171   7.302   5.962  1.00  0.00     0.064 A 
HETATM    5  C   UNL     1      66.724   6.017   5.702  1.00  0.00     0.018 A 
HETATM    6  C   UNL     1      67.189   5.567   6.933  1.00  0.00     0.062 A 
HETATM    7  C   UNL     1      67.131   6.565   9.238  1.00  0.00     0.178 C 
HETATM    8  C   UNL     1      66.853   5.185   4.574  1.00  0.00     0.016 A 
HETATM    9  C   UNL     1      67.791   4.312   7.098  1.00  0.00     0.032 A 
HETATM   10  C   UNL     1      67.448   3.928   4.720  1.00  0.00     0.001 A 
HETATM   11  C   UNL     1      67.910   3.501   5.964  1.00  0.00     0.002 A 
ENDROOT
BRANCH   4  12
HETATM   12  C   UNL     1      65.484   8.221   4.998  1.00  0.00     0.291 C 
BRANCH  12  13
HETATM   13  N   UNL     1      64.345   8.922   5.619  1.00  0.00    -0.074 N 
HETATM   14  C   UNL     1      63.107   8.155   5.502  1.00  0.00     0.267 C 
HETATM   15  H   UNL     1      64.222   9.824   5.159  1.00  0.00     0.277 HD
HETATM   16  H   UNL     1      64.550   9.043   6.611  1.00  0.00     0.277 HD
ENDBRANCH  12  13
ENDBRANCH   4  12
TORSDOF 2
ENDMDL
MODEL 6
REMARK VINA RESULT:      -4.0      1.880      4.704
REMARK  2 active torsions:
REMARK  status: ('A' for Active; 'I' for Inactive)
REMARK    1  A    between atoms: C_4  and  C_7 
REMARK    2  A    between atoms: C_7  and  N_9 
ROOT
HETATM    1  N   UNL     1      61.114   7.235   4.662  1.00  0.00    -0.300 N 
ATOM      2  HN  UNL     1      60.137   7.115   4.393  1.00  0.00     0.187 HD
HETATM    3  N   UNL     1      61.803   6.567   5.608  1.00  0.00    -0.296 N 
HETATM    4  C   UNL     1      62.013   8.095   4.157  1.00  0.00     0.064 A 
HETATM    5  C   UNL     1      63.273   7.984   4.809  1.00  0.00     0.018 A 
HETATM    6  C   UNL     1      63.105   6.975   5.752  1.00  0.00     0.062 A 
HETATM    7  C   UNL     1      61.158   5.495   6.328  1.00  0.00     0.178 C 
HETATM    8  C   UNL     1      64.531   8.602   4.682  1.00  0.00     0.016 A 
HETATM    9  C   UNL     1      64.143   6.549   6.592  1.00  0.00     0.032 A 
HETATM   10  C   UNL     1      65.580   8.188   5.509  1.00  0.00     0.001 A 
HETATM   11  C   UNL     1      65.385   7.178   6.450  1.00  0.00     0.002 A 
ENDROOT
BRANCH   4  12
HETATM   12  C   UNL     1      61.641   8.995   3.019  1.00  0.00     0.291 C 
BRANCH  12  13
HETATM   13  N   UNL     1      61.593  10.411   3.428  1.00  0.00    -0.074 N 
HETATM   14  C   UNL     1      61.784  11.310   2.293  1.00  0.00     0.267 C 
HETATM   15  H   UNL     1      62.329  10.582   4.113  1.00  0.00     0.277 HD
HETATM   16  H   UNL     1      60.672  10.595   3.826  1.00  0.00     0.277 HD
ENDBRANCH  12  13
ENDBRANCH   4  12
TORSDOF 2
ENDMDL
MODEL 7
REMARK VINA RESULT:      -3.8      5.562      7.125
REMARK  2 active torsions:
REMARK  status: ('A' for Active; 'I' for Inactive)
REMARK    1  A    between atoms: C_4  and  C_7 
REMARK    2  A    between atoms: C_7  and  N_9 
ROOT
HETATM    1  N   UNL     1      66.712   4.534   8.667  1.00  0.00    -0.300 N 
ATOM      2  HN  UNL     1      66.614   4.009   9.536  1.00  0.00     0.187 HD
HETATM    3  N   UNL     1      66.668   5.869   8.493  1.00  0.00    -0.296 N 
HETATM    4  C   UNL     1      66.915   4.056   7.429  1.00  0.00     0.064 A 
HETATM    5  C   UNL     1      66.975   5.100   6.464  1.00  0.00     0.018 A 
HETATM    6  C   UNL     1      66.812   6.275   7.190  1.00  0.00     0.062 A 
HETATM    7  C   UNL     1      66.526   6.727   9.645  1.00  0.00     0.178 C 
HETATM    8  C   UNL     1      67.177   5.176   5.072  1.00  0.00     0.016 A 
HETATM    9  C   UNL     1      66.833   7.541   6.590  1.00  0.00     0.032 A 
HETATM   10  C   UNL     1      67.206   6.431   4.457  1.00  0.00     0.001 A 
HETATM   11  C   UNL     1      67.034   7.594   5.206  1.00  0.00     0.002 A 
ENDROOT
BRANCH   4  12
HETATM   12  C   UNL     1      67.083   2.584   7.204  1.00  0.00     0.291 C 
BRANCH  12  13
HETATM   13  N   UNL     1      66.238   1.787   8.112  1.00  0.00    -0.074 N 
HETATM   14  C   UNL     1      67.029   0.852   8.908  1.00  0.00     0.267 C 
HETATM   15  H   UNL     1      65.562   1.261   7.558  1.00  0.00     0.277 HD
HETATM   16  H   UNL     1      65.767   2.428   8.752  1.00  0.00     0.277 HD
ENDBRANCH  12  13
ENDBRANCH   4  12
TORSDOF 2
ENDMDL
MODEL 8
REMARK VINA RESULT:      -3.8     11.579     13.188
REMARK  2 active torsions:
REMARK  status: ('A' for Active; 'I' for Inactive)
REMARK    1  A    between atoms: C_4  and  C_7 
REMARK    2  A    between atoms: C_7  and  N_9 
ROOT
HETATM    1  N   UNL     1      55.501   2.377  11.463  1.00  0.00    -0.300 N 
ATOM      2  HN  UNL     1      54.596   2.639  11.073  1.00  0.00     0.187 HD
HETATM    3  N   UNL     1      56.531   1.773  10.840  1.00  0.00    -0.296 N 
HETATM    4  C   UNL     1      55.945   2.554  12.718  1.00  0.00     0.064 A 
HETATM    5  C   UNL     1      57.258   2.033  12.891  1.00  0.00     0.018 A 
HETATM    6  C   UNL     1      57.616   1.530  11.645  1.00  0.00     0.062 A 
HETATM    7  C   UNL     1      56.433   1.485   9.429  1.00  0.00     0.178 C 
HETATM    8  C   UNL     1      58.182   1.961  13.951  1.00  0.00     0.016 A 
HETATM    9  C   UNL     1      58.865   0.944  11.399  1.00  0.00     0.032 A 
HETATM   10  C   UNL     1      59.435   1.383  13.724  1.00  0.00     0.001 A 
HETATM   11  C   UNL     1      59.768   0.882  12.466  1.00  0.00     0.002 A 
ENDROOT
BRANCH   4  12
HETATM   12  C   UNL     1      55.094   3.260  13.728  1.00  0.00     0.291 C 
BRANCH  12  13
HETATM   13  N   UNL     1      54.852   2.431  14.923  1.00  0.00    -0.074 N 
HETATM   14  C   UNL     1      54.004   1.280  14.623  1.00  0.00     0.267 C 
HETATM   15  H   UNL     1      54.395   3.002  15.634  1.00  0.00     0.277 HD
HETATM   16  H   UNL     1      55.752   2.083  15.256  1.00  0.00     0.277 HD
ENDBRANCH  12  13
ENDBRANCH   4  12
TORSDOF 2
ENDMDL
MODEL 9
REMARK VINA RESULT:      -3.7      4.441      6.120
REMARK  2 active torsions:
REMARK  status: ('A' for Active; 'I' for Inactive)
REMARK    1  A    between atoms: C_4  and  C_7 
REMARK    2  A    between atoms: C_7  and  N_9 
ROOT
HETATM    1  N   UNL     1      66.120   4.493   8.264  1.00  0.00    -0.300 N 
ATOM      2  HN  UNL     1      66.306   3.800   8.989  1.00  0.00     0.187 HD
HETATM    3  N   UNL     1      66.599   5.749   8.173  1.00  0.00    -0.296 N 
HETATM    4  C   UNL     1      65.341   4.368   7.178  1.00  0.00     0.064 A 
HETATM    5  C   UNL     1      65.310   5.565   6.409  1.00  0.00     0.018 A 
HETATM    6  C   UNL     1      66.144   6.450   7.085  1.00  0.00     0.062 A 
HETATM    7  C   UNL     1      67.544   6.218   9.158  1.00  0.00     0.178 C 
HETATM    8  C   UNL     1      64.695   5.979   5.213  1.00  0.00     0.016 A 
HETATM    9  C   UNL     1      66.395   7.749   6.623  1.00  0.00     0.032 A 
HETATM   10  C   UNL     1      64.937   7.271   4.735  1.00  0.00     0.001 A 
HETATM   11  C   UNL     1      65.773   8.141   5.432  1.00  0.00     0.002 A 
ENDROOT
BRANCH   4  12
HETATM   12  C   UNL     1      64.660   3.066   6.883  1.00  0.00     0.291 C 
BRANCH  12  13
HETATM   13  N   UNL     1      63.465   2.865   7.724  1.00  0.00    -0.074 N 
HETATM   14  C   UNL     1      62.255   3.362   7.075  1.00  0.00     0.267 C 
HETATM   15  H   UNL     1      63.596   3.361   8.606  1.00  0.00     0.277 HD
HETATM   16  H   UNL     1      63.353   1.863   7.880  1.00  0.00     0.277 HD
ENDBRANCH  12  13
ENDBRANCH   4  12
TORSDOF 2
ENDMDL
