MODEL 1
REMARK VINA RESULT:      -5.3      0.000      0.000
REMARK  1 active torsions:
REMARK  status: ('A' for Active; 'I' for Inactive)
REMARK    1  A    between atoms: C_1  and  C_4 
ROOT
HETATM    1  C   UNL     1      63.014   8.029   5.257  1.00  0.00     0.153 A 
HETATM    2  O   UNL     1      62.674   9.347   5.422  1.00  0.00    -0.303 OA
HETATM    3  C   UNL     1      62.979   7.710   3.909  1.00  0.00     0.058 A 
HETATM    4  C   UNL     1      62.415   9.857   4.188  1.00  0.00     0.086 A 
HETATM    5  C   UNL     1      62.586   8.881   3.214  1.00  0.00     0.001 A 
HETATM    6  C   UNL     1      62.025  11.168   3.918  1.00  0.00     0.038 A 
HETATM    7  C   UNL     1      62.355   9.222   1.870  1.00  0.00     0.014 A 
HETATM    8  C   UNL     1      61.959  10.531   1.567  1.00  0.00     0.001 A 
HETATM    9  C   UNL     1      61.797  11.486   2.573  1.00  0.00     0.003 A 
ENDROOT
BRANCH   1  10
HETATM   10  C   UNL     1      63.334   7.208   6.392  1.00  0.00     0.234 C 
HETATM   11  O   UNL     1      64.348   7.252   7.075  1.00  0.00    -0.642 OA
HETATM   12  O   UNL     1      62.367   6.307   6.675  1.00  0.00    -0.642 OA
ENDBRANCH   1  10
TORSDOF 1
ENDMDL
MODEL 2
REMARK VINA RESULT:      -5.3      2.459      4.490
REMARK  1 active torsions:
REMARK  status: ('A' for Active; 'I' for Inactive)
REMARK    1  A    between atoms: C_1  and  C_4 
ROOT
HETATM    1  C   UNL     1      63.632   9.700   5.018  1.00  0.00     0.153 A 
HETATM    2  O   UNL     1      64.849   9.436   5.591  1.00  0.00    -0.303 OA
HETATM    3  C   UNL     1      63.312   8.687   4.129  1.00  0.00     0.058 A 
HETATM    4  C   UNL     1      65.303   8.268   5.059  1.00  0.00     0.086 A 
HETATM    5  C   UNL     1      64.387   7.764   4.144  1.00  0.00     0.001 A 
HETATM    6  C   UNL     1      66.513   7.651   5.370  1.00  0.00     0.038 A 
HETATM    7  C   UNL     1      64.686   6.560   3.484  1.00  0.00     0.014 A 
HETATM    8  C   UNL     1      65.897   5.918   3.772  1.00  0.00     0.001 A 
HETATM    9  C   UNL     1      66.795   6.455   4.699  1.00  0.00     0.003 A 
ENDROOT
BRANCH   1  10
HETATM   10  C   UNL     1      62.900  10.885   5.372  1.00  0.00     0.234 C 
HETATM   11  O   UNL     1      62.062  11.467   4.696  1.00  0.00    -0.642 OA
HETATM   12  O   UNL     1      63.229  11.358   6.594  1.00  0.00    -0.642 OA
ENDBRANCH   1  10
TORSDOF 1
ENDMDL
MODEL 3
REMARK VINA RESULT:      -5.2      1.253      1.452
REMARK  1 active torsions:
REMARK  status: ('A' for Active; 'I' for Inactive)
REMARK    1  A    between atoms: C_1  and  C_4 
ROOT
HETATM    1  C   UNL     1      64.475   7.914   5.371  1.00  0.00     0.153 A 
HETATM    2  O   UNL     1      63.932   9.135   5.680  1.00  0.00    -0.303 OA
HETATM    3  C   UNL     1      64.091   7.550   4.092  1.00  0.00     0.058 A 
HETATM    4  C   UNL     1      63.200   9.537   4.605  1.00  0.00     0.086 A 
HETATM    5  C   UNL     1      63.264   8.587   3.593  1.00  0.00     0.001 A 
HETATM    6  C   UNL     1      62.478  10.725   4.514  1.00  0.00     0.038 A 
HETATM    7  C   UNL     1      62.561   8.825   2.400  1.00  0.00     0.014 A 
HETATM    8  C   UNL     1      61.822  10.009   2.279  1.00  0.00     0.001 A 
HETATM    9  C   UNL     1      61.781  10.942   3.319  1.00  0.00     0.003 A 
ENDROOT
BRANCH   1  10
HETATM   10  C   UNL     1      65.298   7.218   6.323  1.00  0.00     0.234 C 
HETATM   11  O   UNL     1      66.448   6.834   6.165  1.00  0.00    -0.642 OA
HETATM   12  O   UNL     1      64.664   6.993   7.495  1.00  0.00    -0.642 OA
ENDBRANCH   1  10
TORSDOF 1
ENDMDL
MODEL 4
REMARK VINA RESULT:      -4.8      1.541      2.571
REMARK  1 active torsions:
REMARK  status: ('A' for Active; 'I' for Inactive)
REMARK    1  A    between atoms: C_1  and  C_4 
ROOT
HETATM    1  C   UNL     1      64.007   8.220   4.948  1.00  0.00     0.153 A 
HETATM    2  O   UNL     1      63.954   7.301   3.933  1.00  0.00    -0.303 OA
HETATM    3  C   UNL     1      63.255   9.331   4.603  1.00  0.00     0.058 A 
HETATM    4  C   UNL     1      63.182   7.831   2.945  1.00  0.00     0.086 A 
HETATM    5  C   UNL     1      62.727   9.091   3.310  1.00  0.00     0.001 A 
HETATM    6  C   UNL     1      62.884   7.216   1.731  1.00  0.00     0.038 A 
HETATM    7  C   UNL     1      61.915   9.802   2.409  1.00  0.00     0.014 A 
HETATM    8  C   UNL     1      61.601   9.212   1.178  1.00  0.00     0.001 A 
HETATM    9  C   UNL     1      62.077   7.942   0.846  1.00  0.00     0.003 A 
ENDROOT
BRANCH   1  10
HETATM   10  C   UNL     1      64.766   7.952   6.139  1.00  0.00     0.234 C 
HETATM   11  O   UNL     1      64.475   7.182   7.044  1.00  0.00    -0.642 OA
HETATM   12  O   UNL     1      65.910   8.668   6.202  1.00  0.00    -0.642 OA
ENDBRANCH   1  10
TORSDOF 1
ENDMDL
MODEL 5
REMARK VINA RESULT:      -4.7      3.439      6.347
REMARK  1 active torsions:
REMARK  status: ('A' for Active; 'I' for Inactive)
REMARK    1  A    between atoms: C_1  and  C_4 
ROOT
HETATM    1  C   UNL     1      65.273   7.772   5.711  1.00  0.00     0.153 A 
HETATM    2  O   UNL     1      65.184   7.505   7.053  1.00  0.00    -0.303 OA
HETATM    3  C   UNL     1      66.231   6.951   5.141  1.00  0.00     0.058 A 
HETATM    4  C   UNL     1      66.087   6.527   7.334  1.00  0.00     0.086 A 
HETATM    5  C   UNL     1      66.766   6.150   6.181  1.00  0.00     0.001 A 
HETATM    6  C   UNL     1      66.318   5.973   8.591  1.00  0.00     0.038 A 
HETATM    7  C   UNL     1      67.749   5.150   6.275  1.00  0.00     0.014 A 
HETATM    8  C   UNL     1      68.008   4.576   7.527  1.00  0.00     0.001 A 
HETATM    9  C   UNL     1      67.305   4.981   8.664  1.00  0.00     0.003 A 
ENDROOT
BRANCH   1  10
HETATM   10  C   UNL     1      64.444   8.780   5.110  1.00  0.00     0.234 C 
HETATM   11  O   UNL     1      63.750   8.667   4.109  1.00  0.00    -0.642 OA
HETATM   12  O   UNL     1      64.491   9.958   5.771  1.00  0.00    -0.642 OA
ENDBRANCH   1  10
TORSDOF 1
ENDMDL
MODEL 6
REMARK VINA RESULT:      -4.4      2.411      3.795
REMARK  1 active torsions:
REMARK  status: ('A' for Active; 'I' for Inactive)
REMARK    1  A    between atoms: C_1  and  C_4 
ROOT
HETATM    1  C   UNL     1      65.655   6.501   7.260  1.00  0.00     0.153 A 
HETATM    2  O   UNL     1      64.447   7.149   7.285  1.00  0.00    -0.303 OA
HETATM    3  C   UNL     1      66.028   6.274   5.946  1.00  0.00     0.058 A 
HETATM    4  C   UNL     1      64.052   7.322   5.995  1.00  0.00     0.086 A 
HETATM    5  C   UNL     1      64.996   6.793   5.124  1.00  0.00     0.001 A 
HETATM    6  C   UNL     1      62.869   7.934   5.584  1.00  0.00     0.038 A 
HETATM    7  C   UNL     1      64.757   6.872   3.741  1.00  0.00     0.014 A 
HETATM    8  C   UNL     1      63.575   7.478   3.297  1.00  0.00     0.001 A 
HETATM    9  C   UNL     1      62.648   7.999   4.203  1.00  0.00     0.003 A 
ENDROOT
BRANCH   1  10
HETATM   10  C   UNL     1      66.329   6.162   8.483  1.00  0.00     0.234 C 
HETATM   11  O   UNL     1      67.003   6.903   9.187  1.00  0.00    -0.642 OA
HETATM   12  O   UNL     1      66.163   4.867   8.830  1.00  0.00    -0.642 OA
ENDBRANCH   1  10
TORSDOF 1
ENDMDL
MODEL 7
REMARK VINA RESULT:      -4.3      1.498      2.270
REMARK  1 active torsions:
REMARK  status: ('A' for Active; 'I' for Inactive)
REMARK    1  A    between atoms: C_1  and  C_4 
ROOT
HETATM    1  C   UNL     1      63.387   7.580   4.213  1.00  0.00     0.153 A 
HETATM    2  O   UNL     1      63.051   7.822   2.905  1.00  0.00    -0.303 OA
HETATM    3  C   UNL     1      63.114   8.704   4.974  1.00  0.00     0.058 A 
HETATM    4  C   UNL     1      62.579   9.096   2.837  1.00  0.00     0.086 A 
HETATM    5  C   UNL     1      62.600   9.688   4.093  1.00  0.00     0.001 A 
HETATM    6  C   UNL     1      62.137   9.736   1.681  1.00  0.00     0.038 A 
HETATM    7  C   UNL     1      62.152  11.014   4.221  1.00  0.00     0.014 A 
HETATM    8  C   UNL     1      61.705  11.687   3.076  1.00  0.00     0.001 A 
HETATM    9  C   UNL     1      61.698  11.058   1.828  1.00  0.00     0.003 A 
ENDROOT
BRANCH   1  10
HETATM   10  C   UNL     1      63.934   6.309   4.604  1.00  0.00     0.234 C 
HETATM   11  O   UNL     1      63.581   5.202   4.222  1.00  0.00    -0.642 OA
HETATM   12  O   UNL     1      64.940   6.427   5.499  1.00  0.00    -0.642 OA
ENDBRANCH   1  10
TORSDOF 1
ENDMDL
MODEL 8
REMARK VINA RESULT:      -4.2      2.096      2.921
REMARK  1 active torsions:
REMARK  status: ('A' for Active; 'I' for Inactive)
REMARK    1  A    between atoms: C_1  and  C_4 
ROOT
HETATM    1  C   UNL     1      65.349   7.995   5.600  1.00  0.00     0.153 A 
HETATM    2  O   UNL     1      64.814   9.157   5.108  1.00  0.00    -0.303 OA
HETATM    3  C   UNL     1      64.441   6.963   5.435  1.00  0.00     0.058 A 
HETATM    4  C   UNL     1      63.569   8.866   4.643  1.00  0.00     0.086 A 
HETATM    5  C   UNL     1      63.287   7.517   4.826  1.00  0.00     0.001 A 
HETATM    6  C   UNL     1      62.684   9.775   4.068  1.00  0.00     0.038 A 
HETATM    7  C   UNL     1      62.037   7.027   4.411  1.00  0.00     0.014 A 
HETATM    8  C   UNL     1      61.124   7.918   3.832  1.00  0.00     0.001 A 
HETATM    9  C   UNL     1      61.442   9.268   3.665  1.00  0.00     0.003 A 
ENDROOT
BRANCH   1  10
HETATM   10  C   UNL     1      66.666   7.984   6.178  1.00  0.00     0.234 C 
HETATM   11  O   UNL     1      67.715   8.300   5.635  1.00  0.00    -0.642 OA
HETATM   12  O   UNL     1      66.669   7.561   7.462  1.00  0.00    -0.642 OA
ENDBRANCH   1  10
TORSDOF 1
ENDMDL
MODEL 9
REMARK VINA RESULT:      -4.0      7.097      7.600
REMARK  1 active torsions:
REMARK  status: ('A' for Active; 'I' for Inactive)
REMARK    1  A    between atoms: C_1  and  C_4 
ROOT
HETATM    1  C   UNL     1      57.567   6.394   7.653  1.00  0.00     0.153 A 
HETATM    2  O   UNL     1      56.276   6.507   8.101  1.00  0.00    -0.303 OA
HETATM    3  C   UNL     1      57.562   6.167   6.287  1.00  0.00     0.058 A 
HETATM    4  C   UNL     1      55.457   6.342   7.027  1.00  0.00     0.086 A 
HETATM    5  C   UNL     1      56.206   6.125   5.877  1.00  0.00     0.001 A 
HETATM    6  C   UNL     1      54.065   6.378   7.055  1.00  0.00     0.038 A 
HETATM    7  C   UNL     1      55.531   5.926   4.660  1.00  0.00     0.014 A 
HETATM    8  C   UNL     1      54.130   5.951   4.656  1.00  0.00     0.001 A 
HETATM    9  C   UNL     1      53.411   6.173   5.834  1.00  0.00     0.003 A 
ENDROOT
BRANCH   1  10
HETATM   10  C   UNL     1      58.670   6.509   8.567  1.00  0.00     0.234 C 
HETATM   11  O   UNL     1      58.650   6.977   9.698  1.00  0.00    -0.642 OA
HETATM   12  O   UNL     1      59.827   6.036   8.052  1.00  0.00    -0.642 OA
ENDBRANCH   1  10
TORSDOF 1
ENDMDL
