MODEL 1
REMARK VINA RESULT:      -5.5      0.000      0.000
REMARK  2 active torsions:
REMARK  status: ('A' for Active; 'I' for Inactive)
REMARK    1  A    between atoms: C_2  and  C_6 
REMARK    2  A    between atoms: C_6  and  O_7 
ROOT
HETATM    1  O   UNL     1      62.183  11.012   4.011  1.00  0.00    -0.312 OA
HETATM    2  C   UNL     1      62.868  10.530   5.090  1.00  0.00     0.078 A 
HETATM    3  C   UNL     1      63.307   9.245   4.841  1.00  0.00     0.049 A 
HETATM    4  C   UNL     1      62.194  10.031   3.063  1.00  0.00     0.086 A 
HETATM    5  C   UNL     1      62.875   8.914   3.532  1.00  0.00     0.000 A 
HETATM    6  C   UNL     1      61.610  10.115   1.801  1.00  0.00     0.038 A 
HETATM    7  C   UNL     1      62.983   7.789   2.694  1.00  0.00     0.014 A 
HETATM    8  C   UNL     1      61.727   8.986   0.982  1.00  0.00     0.003 A 
HETATM    9  C   UNL     1      62.400   7.841   1.419  1.00  0.00     0.001 A 
ENDROOT
BRANCH   2  10
HETATM   10  C   UNL     1      62.983  11.428   6.259  1.00  0.00     0.229 C 
BRANCH  10  11
HETATM   11  O   UNL     1      64.368  11.632   6.508  1.00  0.00    -0.394 OA
HETATM   12  H   UNL     1      64.726  10.872   6.992  1.00  0.00     0.209 HD
ENDBRANCH  10  11
ENDBRANCH   2  10
TORSDOF 2
ENDMDL
MODEL 2
REMARK VINA RESULT:      -5.2      1.955      3.113
REMARK  2 active torsions:
REMARK  status: ('A' for Active; 'I' for Inactive)
REMARK    1  A    between atoms: C_2  and  C_6 
REMARK    2  A    between atoms: C_6  and  O_7 
ROOT
HETATM    1  O   UNL     1      64.675   9.423   5.532  1.00  0.00    -0.312 OA
HETATM    2  C   UNL     1      63.471   9.980   5.206  1.00  0.00     0.078 A 
HETATM    3  C   UNL     1      62.840   9.220   4.242  1.00  0.00     0.049 A 
HETATM    4  C   UNL     1      64.808   8.294   4.777  1.00  0.00     0.086 A 
HETATM    5  C   UNL     1      63.698   8.128   3.958  1.00  0.00     0.000 A 
HETATM    6  C   UNL     1      65.895   7.422   4.806  1.00  0.00     0.038 A 
HETATM    7  C   UNL     1      63.658   7.018   3.094  1.00  0.00     0.014 A 
HETATM    8  C   UNL     1      65.837   6.324   3.938  1.00  0.00     0.003 A 
HETATM    9  C   UNL     1      64.739   6.125   3.096  1.00  0.00     0.001 A 
ENDROOT
BRANCH   2  10
HETATM   10  C   UNL     1      63.108  11.233   5.903  1.00  0.00     0.229 C 
BRANCH  10  11
HETATM   11  O   UNL     1      64.279  11.723   6.541  1.00  0.00    -0.394 OA
HETATM   12  H   UNL     1      65.064  11.340   6.118  1.00  0.00     0.209 HD
ENDBRANCH  10  11
ENDBRANCH   2  10
TORSDOF 2
ENDMDL
MODEL 3
REMARK VINA RESULT:      -5.0      2.097      3.122
REMARK  2 active torsions:
REMARK  status: ('A' for Active; 'I' for Inactive)
REMARK    1  A    between atoms: C_2  and  C_6 
REMARK    2  A    between atoms: C_6  and  O_7 
ROOT
HETATM    1  O   UNL     1      64.747   9.400   5.888  1.00  0.00    -0.312 OA
HETATM    2  C   UNL     1      65.350   8.221   5.554  1.00  0.00     0.078 A 
HETATM    3  C   UNL     1      64.725   7.659   4.459  1.00  0.00     0.049 A 
HETATM    4  C   UNL     1      63.737   9.597   4.993  1.00  0.00     0.086 A 
HETATM    5  C   UNL     1      63.680   8.543   4.090  1.00  0.00     0.000 A 
HETATM    6  C   UNL     1      62.872  10.689   4.972  1.00  0.00     0.038 A 
HETATM    7  C   UNL     1      62.689   8.563   3.091  1.00  0.00     0.014 A 
HETATM    8  C   UNL     1      61.892  10.691   3.972  1.00  0.00     0.003 A 
HETATM    9  C   UNL     1      61.800   9.646   3.047  1.00  0.00     0.001 A 
ENDROOT
BRANCH   2  10
HETATM   10  C   UNL     1      66.485   7.792   6.400  1.00  0.00     0.229 C 
BRANCH  10  11
HETATM   11  O   UNL     1      66.954   8.937   7.101  1.00  0.00    -0.394 OA
HETATM   12  H   UNL     1      67.907   8.853   7.258  1.00  0.00     0.209 HD
ENDBRANCH  10  11
ENDBRANCH   2  10
TORSDOF 2
ENDMDL
MODEL 4
REMARK VINA RESULT:      -4.8      1.968      2.885
REMARK  2 active torsions:
REMARK  status: ('A' for Active; 'I' for Inactive)
REMARK    1  A    between atoms: C_2  and  C_6 
REMARK    2  A    between atoms: C_6  and  O_7 
ROOT
HETATM    1  O   UNL     1      62.893   8.911   5.262  1.00  0.00    -0.312 OA
HETATM    2  C   UNL     1      63.199   7.644   4.852  1.00  0.00     0.078 A 
HETATM    3  C   UNL     1      63.023   7.529   3.488  1.00  0.00     0.049 A 
HETATM    4  C   UNL     1      62.529   9.611   4.150  1.00  0.00     0.086 A 
HETATM    5  C   UNL     1      62.590   8.797   3.025  1.00  0.00     0.000 A 
HETATM    6  C   UNL     1      62.145  10.951   4.123  1.00  0.00     0.038 A 
HETATM    7  C   UNL     1      62.238   9.344   1.777  1.00  0.00     0.014 A 
HETATM    8  C   UNL     1      61.799  11.476   2.872  1.00  0.00     0.003 A 
HETATM    9  C   UNL     1      61.842  10.687   1.719  1.00  0.00     0.001 A 
ENDROOT
BRANCH   2  10
HETATM   10  C   UNL     1      63.620   6.690   5.901  1.00  0.00     0.229 C 
BRANCH  10  11
HETATM   11  O   UNL     1      63.763   7.420   7.112  1.00  0.00    -0.394 OA
HETATM   12  H   UNL     1      64.701   7.619   7.261  1.00  0.00     0.209 HD
ENDBRANCH  10  11
ENDBRANCH   2  10
TORSDOF 2
ENDMDL
MODEL 5
REMARK VINA RESULT:      -4.3      4.694      6.331
REMARK  2 active torsions:
REMARK  status: ('A' for Active; 'I' for Inactive)
REMARK    1  A    between atoms: C_2  and  C_6 
REMARK    2  A    between atoms: C_6  and  O_7 
ROOT
HETATM    1  O   UNL     1      65.329   7.861   6.838  1.00  0.00    -0.312 OA
HETATM    2  C   UNL     1      65.237   7.879   5.476  1.00  0.00     0.078 A 
HETATM    3  C   UNL     1      66.071   6.925   4.929  1.00  0.00     0.049 A 
HETATM    4  C   UNL     1      66.223   6.883   7.163  1.00  0.00     0.086 A 
HETATM    5  C   UNL     1      66.714   6.276   6.013  1.00  0.00     0.000 A 
HETATM    6  C   UNL     1      66.604   6.528   8.455  1.00  0.00     0.038 A 
HETATM    7  C   UNL     1      67.660   5.244   6.147  1.00  0.00     0.014 A 
HETATM    8  C   UNL     1      67.548   5.500   8.568  1.00  0.00     0.003 A 
HETATM    9  C   UNL     1      68.069   4.868   7.435  1.00  0.00     0.001 A 
ENDROOT
BRANCH   2  10
HETATM   10  C   UNL     1      64.319   8.877   4.885  1.00  0.00     0.229 C 
BRANCH  10  11
HETATM   11  O   UNL     1      64.368  10.040   5.700  1.00  0.00    -0.394 OA
HETATM   12  H   UNL     1      63.990  10.791   5.217  1.00  0.00     0.209 HD
ENDBRANCH  10  11
ENDBRANCH   2  10
TORSDOF 2
ENDMDL
MODEL 6
REMARK VINA RESULT:      -4.1      5.425      7.100
REMARK  2 active torsions:
REMARK  status: ('A' for Active; 'I' for Inactive)
REMARK    1  A    between atoms: C_2  and  C_6 
REMARK    2  A    between atoms: C_6  and  O_7 
ROOT
HETATM    1  O   UNL     1      64.936   7.111   7.575  1.00  0.00    -0.312 OA
HETATM    2  C   UNL     1      64.247   6.348   6.676  1.00  0.00     0.078 A 
HETATM    3  C   UNL     1      64.885   5.139   6.488  1.00  0.00     0.049 A 
HETATM    4  C   UNL     1      66.017   6.379   7.971  1.00  0.00     0.086 A 
HETATM    5  C   UNL     1      66.032   5.151   7.321  1.00  0.00     0.000 A 
HETATM    6  C   UNL     1      66.982   6.788   8.889  1.00  0.00     0.038 A 
HETATM    7  C   UNL     1      67.084   4.257   7.594  1.00  0.00     0.014 A 
HETATM    8  C   UNL     1      68.021   5.885   9.147  1.00  0.00     0.003 A 
HETATM    9  C   UNL     1      68.073   4.642   8.510  1.00  0.00     0.001 A 
ENDROOT
BRANCH   2  10
HETATM   10  C   UNL     1      63.022   6.944   6.098  1.00  0.00     0.229 C 
BRANCH  10  11
HETATM   11  O   UNL     1      63.161   8.357   6.167  1.00  0.00    -0.394 OA
HETATM   12  H   UNL     1      63.506   8.691   5.324  1.00  0.00     0.209 HD
ENDBRANCH  10  11
ENDBRANCH   2  10
TORSDOF 2
ENDMDL
MODEL 7
REMARK VINA RESULT:      -4.1      2.937      3.950
REMARK  2 active torsions:
REMARK  status: ('A' for Active; 'I' for Inactive)
REMARK    1  A    between atoms: C_2  and  C_6 
REMARK    2  A    between atoms: C_6  and  O_7 
ROOT
HETATM    1  O   UNL     1      64.349   7.227   3.513  1.00  0.00    -0.312 OA
HETATM    2  C   UNL     1      65.239   7.203   4.549  1.00  0.00     0.078 A 
HETATM    3  C   UNL     1      65.031   8.284   5.381  1.00  0.00     0.049 A 
HETATM    4  C   UNL     1      63.562   8.327   3.690  1.00  0.00     0.086 A 
HETATM    5  C   UNL     1      63.948   9.017   4.833  1.00  0.00     0.000 A 
HETATM    6  C   UNL     1      62.518   8.722   2.856  1.00  0.00     0.038 A 
HETATM    7  C   UNL     1      63.255  10.192   5.177  1.00  0.00     0.014 A 
HETATM    8  C   UNL     1      61.842   9.894   3.215  1.00  0.00     0.003 A 
HETATM    9  C   UNL     1      62.203  10.618   4.355  1.00  0.00     0.001 A 
ENDROOT
BRANCH   2  10
HETATM   10  C   UNL     1      66.210   6.087   4.565  1.00  0.00     0.229 C 
BRANCH  10  11
HETATM   11  O   UNL     1      67.285   6.443   3.706  1.00  0.00    -0.394 OA
HETATM   12  H   UNL     1      67.821   5.658   3.514  1.00  0.00     0.209 HD
ENDBRANCH  10  11
ENDBRANCH   2  10
TORSDOF 2
ENDMDL
MODEL 8
REMARK VINA RESULT:      -4.1      2.391      3.129
REMARK  2 active torsions:
REMARK  status: ('A' for Active; 'I' for Inactive)
REMARK    1  A    between atoms: C_2  and  C_6 
REMARK    2  A    between atoms: C_6  and  O_7 
ROOT
HETATM    1  O   UNL     1      64.961   7.101   4.322  1.00  0.00    -0.312 OA
HETATM    2  C   UNL     1      65.212   7.981   5.335  1.00  0.00     0.078 A 
HETATM    3  C   UNL     1      64.341   9.049   5.266  1.00  0.00     0.049 A 
HETATM    4  C   UNL     1      63.915   7.606   3.606  1.00  0.00     0.086 A 
HETATM    5  C   UNL     1      63.498   8.815   4.150  1.00  0.00     0.000 A 
HETATM    6  C   UNL     1      63.335   7.014   2.486  1.00  0.00     0.038 A 
HETATM    7  C   UNL     1      62.430   9.497   3.539  1.00  0.00     0.014 A 
HETATM    8  C   UNL     1      62.275   7.707   1.891  1.00  0.00     0.003 A 
HETATM    9  C   UNL     1      61.829   8.928   2.406  1.00  0.00     0.001 A 
ENDROOT
BRANCH   2  10
HETATM   10  C   UNL     1      66.324   7.641   6.250  1.00  0.00     0.229 C 
BRANCH  10  11
HETATM   11  O   UNL     1      66.756   8.846   6.866  1.00  0.00    -0.394 OA
HETATM   12  H   UNL     1      67.450   9.255   6.327  1.00  0.00     0.209 HD
ENDBRANCH  10  11
ENDBRANCH   2  10
TORSDOF 2
ENDMDL
MODEL 9
REMARK VINA RESULT:      -3.9     13.645     14.434
REMARK  2 active torsions:
REMARK  status: ('A' for Active; 'I' for Inactive)
REMARK    1  A    between atoms: C_2  and  C_6 
REMARK    2  A    between atoms: C_6  and  O_7 
ROOT
HETATM    1  O   UNL     1      57.104   2.327  13.332  1.00  0.00    -0.312 OA
HETATM    2  C   UNL     1      55.985   1.710  13.812  1.00  0.00     0.078 A 
HETATM    3  C   UNL     1      56.242   0.375  14.051  1.00  0.00     0.049 A 
HETATM    4  C   UNL     1      58.085   1.381  13.273  1.00  0.00     0.086 A 
HETATM    5  C   UNL     1      57.599   0.153  13.705  1.00  0.00     0.000 A 
HETATM    6  C   UNL     1      59.393   1.594  12.842  1.00  0.00     0.038 A 
HETATM    7  C   UNL     1      58.467  -0.953  13.706  1.00  0.00     0.014 A 
HETATM    8  C   UNL     1      60.242   0.480  12.850  1.00  0.00     0.003 A 
HETATM    9  C   UNL     1      59.788  -0.772  13.273  1.00  0.00     0.001 A 
ENDROOT
BRANCH   2  10
HETATM   10  C   UNL     1      54.774   2.548  13.958  1.00  0.00     0.229 C 
BRANCH  10  11
HETATM   11  O   UNL     1      55.033   3.500  14.981  1.00  0.00    -0.394 OA
HETATM   12  H   UNL     1      54.242   3.608  15.532  1.00  0.00     0.209 HD
ENDBRANCH  10  11
ENDBRANCH   2  10
TORSDOF 2
ENDMDL
