MODEL 1
REMARK VINA RESULT:      -4.7      0.000      0.000
REMARK  2 active torsions:
REMARK  status: ('A' for Active; 'I' for Inactive)
REMARK    1  A    between atoms: C_4  and  C_7 
REMARK    2  A    between atoms: C_7  and  N_8 
ROOT
HETATM    1  N   UNL     1      62.986   9.057   5.560  1.00  0.00    -0.351 N 
ATOM      2  HN  UNL     1      63.018   9.526   6.465  1.00  0.00     0.166 HD
HETATM    3  S   UNL     1      63.150   7.297   3.734  1.00  0.00    -0.073 SA
HETATM    4  C   UNL     1      63.318   7.758   5.357  1.00  0.00     0.077 A 
HETATM    5  C   UNL     1      62.606   9.649   4.400  1.00  0.00     0.050 A 
HETATM    6  C   UNL     1      62.635   8.828   3.283  1.00  0.00     0.033 A 
HETATM    7  C   UNL     1      62.211  10.983   4.286  1.00  0.00     0.031 A 
HETATM    8  C   UNL     1      62.276   9.288   2.019  1.00  0.00     0.021 A 
HETATM    9  C   UNL     1      61.877  10.630   1.891  1.00  0.00     0.002 A 
HETATM   10  C   UNL     1      61.845  11.473   3.020  1.00  0.00     0.002 A 
ENDROOT
BRANCH   4  11
HETATM   11  C   UNL     1      63.774   6.849   6.452  1.00  0.00     0.294 C 
BRANCH  11  12
HETATM   12  N   UNL     1      65.060   7.298   6.973  1.00  0.00    -0.074 N 
HETATM   13  H   UNL     1      64.953   8.221   7.393  1.00  0.00     0.274 HD
HETATM   14  H   UNL     1      65.737   7.348   6.211  1.00  0.00     0.274 HD
HETATM   15  H   UNL     1      65.391   6.640   7.678  1.00  0.00     0.274 HD
ENDBRANCH  11  12
ENDBRANCH   4  11
TORSDOF 2
ENDMDL
MODEL 2
REMARK VINA RESULT:      -4.6      1.510      1.606
REMARK  2 active torsions:
REMARK  status: ('A' for Active; 'I' for Inactive)
REMARK    1  A    between atoms: C_4  and  C_7 
REMARK    2  A    between atoms: C_7  and  N_8 
ROOT
HETATM    1  N   UNL     1      64.492   9.004   5.813  1.00  0.00    -0.351 N 
ATOM      2  HN  UNL     1      64.626   9.615   6.619  1.00  0.00     0.166 HD
HETATM    3  S   UNL     1      64.709   7.083   4.164  1.00  0.00    -0.073 SA
HETATM    4  C   UNL     1      65.181   7.857   5.596  1.00  0.00     0.077 A 
HETATM    5  C   UNL     1      63.600   9.232   4.816  1.00  0.00     0.050 A 
HETATM    6  C   UNL     1      63.580   8.274   3.814  1.00  0.00     0.033 A 
HETATM    7  C   UNL     1      62.748  10.336   4.754  1.00  0.00     0.031 A 
HETATM    8  C   UNL     1      62.722   8.366   2.721  1.00  0.00     0.021 A 
HETATM    9  C   UNL     1      61.860   9.473   2.648  1.00  0.00     0.002 A 
HETATM   10  C   UNL     1      61.873  10.454   3.660  1.00  0.00     0.002 A 
ENDROOT
BRANCH   4  11
HETATM   11  C   UNL     1      66.232   7.345   6.527  1.00  0.00     0.294 C 
BRANCH  11  12
HETATM   12  N   UNL     1      66.939   8.460   7.146  1.00  0.00    -0.074 N 
HETATM   13  H   UNL     1      67.896   8.492   6.797  1.00  0.00     0.274 HD
HETATM   14  H   UNL     1      66.950   8.336   8.159  1.00  0.00     0.274 HD
HETATM   15  H   UNL     1      66.464   9.333   6.917  1.00  0.00     0.274 HD
ENDBRANCH  11  12
ENDBRANCH   4  11
TORSDOF 2
ENDMDL
MODEL 3
REMARK VINA RESULT:      -4.4      2.304      3.329
REMARK  2 active torsions:
REMARK  status: ('A' for Active; 'I' for Inactive)
REMARK    1  A    between atoms: C_4  and  C_7 
REMARK    2  A    between atoms: C_7  and  N_8 
ROOT
HETATM    1  N   UNL     1      62.959   9.252   4.406  1.00  0.00    -0.351 N 
ATOM      2  HN  UNL     1      63.392   8.763   5.189  1.00  0.00     0.166 HD
HETATM    3  S   UNL     1      61.847  11.035   2.976  1.00  0.00    -0.073 SA
HETATM    4  C   UNL     1      62.506  10.529   4.453  1.00  0.00     0.077 A 
HETATM    5  C   UNL     1      62.761   8.711   3.176  1.00  0.00     0.050 A 
HETATM    6  C   UNL     1      62.156   9.551   2.255  1.00  0.00     0.033 A 
HETATM    7  C   UNL     1      63.118   7.410   2.819  1.00  0.00     0.031 A 
HETATM    8  C   UNL     1      61.883   9.143   0.952  1.00  0.00     0.021 A 
HETATM    9  C   UNL     1      62.237   7.835   0.580  1.00  0.00     0.002 A 
HETATM   10  C   UNL     1      62.851   6.973   1.510  1.00  0.00     0.002 A 
ENDROOT
BRANCH   4  11
HETATM   11  C   UNL     1      62.591  11.382   5.678  1.00  0.00     0.294 C 
BRANCH  11  12
HETATM   12  N   UNL     1      63.939  11.331   6.230  1.00  0.00    -0.074 N 
HETATM   13  H   UNL     1      63.890  11.165   7.235  1.00  0.00     0.274 HD
HETATM   14  H   UNL     1      64.412  12.219   6.056  1.00  0.00     0.274 HD
HETATM   15  H   UNL     1      64.461  10.576   5.786  1.00  0.00     0.274 HD
ENDBRANCH  11  12
ENDBRANCH   4  11
TORSDOF 2
ENDMDL
MODEL 4
REMARK VINA RESULT:      -4.2      2.698      4.716
REMARK  2 active torsions:
REMARK  status: ('A' for Active; 'I' for Inactive)
REMARK    1  A    between atoms: C_4  and  C_7 
REMARK    2  A    between atoms: C_7  and  N_8 
ROOT
HETATM    1  N   UNL     1      65.034   9.066   5.714  1.00  0.00    -0.351 N 
ATOM      2  HN  UNL     1      65.339   9.709   6.446  1.00  0.00     0.166 HD
HETATM    3  S   UNL     1      63.671   7.942   3.887  1.00  0.00    -0.073 SA
HETATM    4  C   UNL     1      63.865   9.173   5.037  1.00  0.00     0.077 A 
HETATM    5  C   UNL     1      65.746   7.991   5.290  1.00  0.00     0.050 A 
HETATM    6  C   UNL     1      65.147   7.249   4.284  1.00  0.00     0.033 A 
HETATM    7  C   UNL     1      66.989   7.615   5.801  1.00  0.00     0.031 A 
HETATM    8  C   UNL     1      65.750   6.116   3.744  1.00  0.00     0.021 A 
HETATM    9  C   UNL     1      67.001   5.727   4.250  1.00  0.00     0.002 A 
HETATM   10  C   UNL     1      67.618   6.473   5.274  1.00  0.00     0.002 A 
ENDROOT
BRANCH   4  11
HETATM   11  C   UNL     1      62.872  10.263   5.284  1.00  0.00     0.294 C 
BRANCH  11  12
HETATM   12  N   UNL     1      63.477  11.317   6.089  1.00  0.00    -0.074 N 
HETATM   13  H   UNL     1      63.858  10.916   6.945  1.00  0.00     0.274 HD
HETATM   14  H   UNL     1      62.770  12.013   6.325  1.00  0.00     0.274 HD
HETATM   15  H   UNL     1      64.227  11.762   5.559  1.00  0.00     0.274 HD
ENDBRANCH  11  12
ENDBRANCH   4  11
TORSDOF 2
ENDMDL
MODEL 5
REMARK VINA RESULT:      -4.2      1.278      2.014
REMARK  2 active torsions:
REMARK  status: ('A' for Active; 'I' for Inactive)
REMARK    1  A    between atoms: C_4  and  C_7 
REMARK    2  A    between atoms: C_7  and  N_8 
ROOT
HETATM    1  N   UNL     1      63.390   7.244   3.819  1.00  0.00    -0.351 N 
ATOM      2  HN  UNL     1      63.641   6.319   3.471  1.00  0.00     0.166 HD
HETATM    3  S   UNL     1      63.027   9.245   5.344  1.00  0.00    -0.073 SA
HETATM    4  C   UNL     1      63.540   7.647   5.105  1.00  0.00     0.077 A 
HETATM    5  C   UNL     1      62.861   8.235   3.057  1.00  0.00     0.050 A 
HETATM    6  C   UNL     1      62.593   9.417   3.732  1.00  0.00     0.033 A 
HETATM    7  C   UNL     1      62.583   8.122   1.694  1.00  0.00     0.031 A 
HETATM    8  C   UNL     1      62.047  10.525   3.091  1.00  0.00     0.021 A 
HETATM    9  C   UNL     1      61.764  10.424   1.719  1.00  0.00     0.002 A 
HETATM   10  C   UNL     1      62.030   9.227   1.024  1.00  0.00     0.002 A 
ENDROOT
BRANCH   4  11
HETATM   11  C   UNL     1      64.102   6.770   6.177  1.00  0.00     0.294 C 
BRANCH  11  12
HETATM   12  N   UNL     1      65.218   7.439   6.836  1.00  0.00    -0.074 N 
HETATM   13  H   UNL     1      66.083   7.230   6.338  1.00  0.00     0.274 HD
HETATM   14  H   UNL     1      65.292   7.109   7.798  1.00  0.00     0.274 HD
HETATM   15  H   UNL     1      65.060   8.446   6.834  1.00  0.00     0.274 HD
ENDBRANCH  11  12
ENDBRANCH   4  11
TORSDOF 2
ENDMDL
MODEL 6
REMARK VINA RESULT:      -4.0      3.054      6.145
REMARK  2 active torsions:
REMARK  status: ('A' for Active; 'I' for Inactive)
REMARK    1  A    between atoms: C_4  and  C_7 
REMARK    2  A    between atoms: C_7  and  N_8 
ROOT
HETATM    1  N   UNL     1      65.059   7.687   6.741  1.00  0.00    -0.351 N 
ATOM      2  HN  UNL     1      64.447   8.190   7.384  1.00  0.00     0.166 HD
HETATM    3  S   UNL     1      66.167   6.826   4.622  1.00  0.00    -0.073 SA
HETATM    4  C   UNL     1      65.009   7.797   5.390  1.00  0.00     0.077 A 
HETATM    5  C   UNL     1      66.029   6.819   7.123  1.00  0.00     0.050 A 
HETATM    6  C   UNL     1      66.746   6.244   6.085  1.00  0.00     0.033 A 
HETATM    7  C   UNL     1      66.321   6.492   8.449  1.00  0.00     0.031 A 
HETATM    8  C   UNL     1      67.773   5.332   6.314  1.00  0.00     0.021 A 
HETATM    9  C   UNL     1      68.075   4.995   7.644  1.00  0.00     0.002 A 
HETATM   10  C   UNL     1      67.351   5.572   8.707  1.00  0.00     0.002 A 
ENDROOT
BRANCH   4  11
HETATM   11  C   UNL     1      64.040   8.683   4.676  1.00  0.00     0.294 C 
BRANCH  11  12
HETATM   12  N   UNL     1      63.643   9.788   5.541  1.00  0.00    -0.074 N 
HETATM   13  H   UNL     1      62.654   9.991   5.401  1.00  0.00     0.274 HD
HETATM   14  H   UNL     1      64.195  10.615   5.311  1.00  0.00     0.274 HD
HETATM   15  H   UNL     1      63.803   9.533   6.515  1.00  0.00     0.274 HD
ENDBRANCH  11  12
ENDBRANCH   4  11
TORSDOF 2
ENDMDL
MODEL 7
REMARK VINA RESULT:      -3.8      2.828      4.179
REMARK  2 active torsions:
REMARK  status: ('A' for Active; 'I' for Inactive)
REMARK    1  A    between atoms: C_4  and  C_7 
REMARK    2  A    between atoms: C_7  and  N_8 
ROOT
HETATM    1  N   UNL     1      65.543   6.109   7.151  1.00  0.00    -0.351 N 
ATOM      2  HN  UNL     1      65.248   5.350   7.765  1.00  0.00     0.166 HD
HETATM    3  S   UNL     1      66.973   7.777   5.872  1.00  0.00    -0.073 SA
HETATM    4  C   UNL     1      66.832   6.483   6.959  1.00  0.00     0.077 A 
HETATM    5  C   UNL     1      64.699   6.879   6.418  1.00  0.00     0.050 A 
HETATM    6  C   UNL     1      65.311   7.856   5.649  1.00  0.00     0.033 A 
HETATM    7  C   UNL     1      63.310   6.740   6.409  1.00  0.00     0.031 A 
HETATM    8  C   UNL     1      64.582   8.727   4.844  1.00  0.00     0.021 A 
HETATM    9  C   UNL     1      63.183   8.597   4.827  1.00  0.00     0.002 A 
HETATM   10  C   UNL     1      62.550   7.608   5.606  1.00  0.00     0.002 A 
ENDROOT
BRANCH   4  11
HETATM   11  C   UNL     1      67.987   5.815   7.632  1.00  0.00     0.294 C 
BRANCH  11  12
HETATM   12  N   UNL     1      68.075   6.248   9.022  1.00  0.00    -0.074 N 
HETATM   13  H   UNL     1      67.964   5.442   9.637  1.00  0.00     0.274 HD
HETATM   14  H   UNL     1      67.337   6.926   9.214  1.00  0.00     0.274 HD
HETATM   15  H   UNL     1      68.984   6.679   9.187  1.00  0.00     0.274 HD
ENDBRANCH  11  12
ENDBRANCH   4  11
TORSDOF 2
ENDMDL
MODEL 8
REMARK VINA RESULT:      -3.7      2.244      3.154
REMARK  2 active torsions:
REMARK  status: ('A' for Active; 'I' for Inactive)
REMARK    1  A    between atoms: C_4  and  C_7 
REMARK    2  A    between atoms: C_7  and  N_8 
ROOT
HETATM    1  N   UNL     1      65.457   7.911   6.518  1.00  0.00    -0.351 N 
ATOM      2  HN  UNL     1      65.464   8.647   7.224  1.00  0.00     0.166 HD
HETATM    3  S   UNL     1      65.944   5.762   5.251  1.00  0.00    -0.073 SA
HETATM    4  C   UNL     1      66.193   6.774   6.589  1.00  0.00     0.077 A 
HETATM    5  C   UNL     1      64.712   7.939   5.384  1.00  0.00     0.050 A 
HETATM    6  C   UNL     1      64.853   6.833   4.560  1.00  0.00     0.033 A 
HETATM    7  C   UNL     1      63.856   8.982   5.027  1.00  0.00     0.031 A 
HETATM    8  C   UNL     1      64.158   6.714   3.360  1.00  0.00     0.021 A 
HETATM    9  C   UNL     1      63.294   7.758   2.989  1.00  0.00     0.002 A 
HETATM   10  C   UNL     1      63.144   8.887   3.819  1.00  0.00     0.002 A 
ENDROOT
BRANCH   4  11
HETATM   11  C   UNL     1      67.110   6.461   7.727  1.00  0.00     0.294 C 
BRANCH  11  12
HETATM   12  N   UNL     1      66.369   6.472   8.983  1.00  0.00    -0.074 N 
HETATM   13  H   UNL     1      67.022   6.542   9.763  1.00  0.00     0.274 HD
HETATM   14  H   UNL     1      65.830   5.610   9.068  1.00  0.00     0.274 HD
HETATM   15  H   UNL     1      65.735   7.271   8.998  1.00  0.00     0.274 HD
ENDBRANCH  11  12
ENDBRANCH   4  11
TORSDOF 2
ENDMDL
MODEL 9
REMARK VINA RESULT:      -3.7     12.109     13.161
REMARK  2 active torsions:
REMARK  status: ('A' for Active; 'I' for Inactive)
REMARK    1  A    between atoms: C_4  and  C_7 
REMARK    2  A    between atoms: C_7  and  N_8 
ROOT
HETATM    1  N   UNL     1      56.435   2.422  14.215  1.00  0.00    -0.351 N 
ATOM      2  HN  UNL     1      56.426   2.576  15.224  1.00  0.00     0.166 HD
HETATM    3  S   UNL     1      55.741   2.313  11.773  1.00  0.00    -0.073 SA
HETATM    4  C   UNL     1      55.389   2.677  13.390  1.00  0.00     0.077 A 
HETATM    5  C   UNL     1      57.495   1.937  13.521  1.00  0.00     0.050 A 
HETATM    6  C   UNL     1      57.295   1.807  12.155  1.00  0.00     0.033 A 
HETATM    7  C   UNL     1      58.717   1.577  14.093  1.00  0.00     0.031 A 
HETATM    8  C   UNL     1      58.286   1.321  11.307  1.00  0.00     0.021 A 
HETATM    9  C   UNL     1      59.519   0.954  11.871  1.00  0.00     0.002 A 
HETATM   10  C   UNL     1      59.733   1.081  13.258  1.00  0.00     0.002 A 
ENDROOT
BRANCH   4  11
HETATM   11  C   UNL     1      54.083   3.222  13.870  1.00  0.00     0.294 C 
BRANCH  11  12
HETATM   12  N   UNL     1      54.277   4.543  14.455  1.00  0.00    -0.074 N 
HETATM   13  H   UNL     1      53.665   4.651  15.263  1.00  0.00     0.274 HD
HETATM   14  H   UNL     1      54.053   5.258  13.762  1.00  0.00     0.274 HD
HETATM   15  H   UNL     1      55.248   4.647  14.747  1.00  0.00     0.274 HD
ENDBRANCH  11  12
ENDBRANCH   4  11
TORSDOF 2
ENDMDL
