MODEL 1
REMARK VINA RESULT:      -4.7      0.000      0.000
REMARK  1 active torsions:
REMARK  status: ('A' for Active; 'I' for Inactive)
REMARK    1  A    between atoms: C_8  and  N_9 
ROOT
HETATM    1  C   UNL     1      63.184   8.728   3.850  1.00  0.00     0.002 A 
HETATM    2  C   UNL     1      63.410   9.344   5.074  1.00  0.00     0.085 A 
HETATM    3  C   UNL     1      64.393   7.395   5.181  1.00  0.00     0.143 A 
HETATM    4  O   UNL     1      64.144   8.531   5.884  1.00  0.00    -0.322 OA
HETATM    5  C   UNL     1      63.824   7.463   3.928  1.00  0.00     0.039 A 
HETATM    6  C   UNL     1      62.457   9.430   2.870  1.00  0.00     0.043 A 
HETATM    7  C   UNL     1      62.961  10.619   5.398  1.00  0.00     0.040 A 
HETATM    8  C   UNL     1      61.955  10.708   3.165  1.00  0.00     0.026 A 
HETATM    9  C   UNL     1      62.243  11.298   4.403  1.00  0.00     0.032 A 
ENDROOT
BRANCH   8  10
HETATM   10  N   UNL     1      61.382  11.480   2.143  1.00  0.00    -0.399 N 
HETATM   11  H   UNL     1      60.471  11.839   2.249  1.00  0.00     0.156 HD
HETATM   12  H   UNL     1      61.892  11.665   1.321  1.00  0.00     0.156 HD
ENDBRANCH   8  10
TORSDOF 1
ENDMDL
MODEL 2
REMARK VINA RESULT:      -4.7      2.174      3.330
REMARK  1 active torsions:
REMARK  status: ('A' for Active; 'I' for Inactive)
REMARK    1  A    between atoms: C_8  and  N_9 
ROOT
HETATM    1  C   UNL     1      62.178   9.864   2.885  1.00  0.00     0.002 A 
HETATM    2  C   UNL     1      62.847   8.650   2.979  1.00  0.00     0.085 A 
HETATM    3  C   UNL     1      61.914   8.682   1.002  1.00  0.00     0.143 A 
HETATM    4  O   UNL     1      62.684   7.932   1.833  1.00  0.00    -0.322 OA
HETATM    5  C   UNL     1      61.574   9.876   1.601  1.00  0.00     0.039 A 
HETATM    6  C   UNL     1      62.251  10.754   3.973  1.00  0.00     0.043 A 
HETATM    7  C   UNL     1      63.589   8.253   4.085  1.00  0.00     0.040 A 
HETATM    8  C   UNL     1      62.963  10.382   5.125  1.00  0.00     0.026 A 
HETATM    9  C   UNL     1      63.650   9.162   5.152  1.00  0.00     0.032 A 
ENDROOT
BRANCH   8  10
HETATM   10  N   UNL     1      63.185  11.328   6.138  1.00  0.00    -0.399 N 
HETATM   11  H   UNL     1      63.868  11.161   6.827  1.00  0.00     0.156 HD
HETATM   12  H   UNL     1      62.659  12.160   6.158  1.00  0.00     0.156 HD
ENDBRANCH   8  10
TORSDOF 1
ENDMDL
MODEL 3
REMARK VINA RESULT:      -4.7      2.301      3.335
REMARK  1 active torsions:
REMARK  status: ('A' for Active; 'I' for Inactive)
REMARK    1  A    between atoms: C_8  and  N_9 
ROOT
HETATM    1  C   UNL     1      62.680   9.510   3.889  1.00  0.00     0.002 A 
HETATM    2  C   UNL     1      62.150  10.610   3.226  1.00  0.00     0.085 A 
HETATM    3  C   UNL     1      62.588  11.276   5.262  1.00  0.00     0.143 A 
HETATM    4  O   UNL     1      62.093  11.683   4.063  1.00  0.00    -0.322 OA
HETATM    5  C   UNL     1      62.959   9.951   5.209  1.00  0.00     0.039 A 
HETATM    6  C   UNL     1      62.835   8.308   3.174  1.00  0.00     0.043 A 
HETATM    7  C   UNL     1      61.760  10.601   1.892  1.00  0.00     0.040 A 
HETATM    8  C   UNL     1      62.424   8.243   1.833  1.00  0.00     0.026 A 
HETATM    9  C   UNL     1      61.931   9.392   1.202  1.00  0.00     0.032 A 
ENDROOT
BRANCH   8  10
HETATM   10  N   UNL     1      62.734   7.108   1.068  1.00  0.00    -0.399 N 
HETATM   11  H   UNL     1      63.668   6.804   0.994  1.00  0.00     0.156 HD
HETATM   12  H   UNL     1      62.018   6.614   0.606  1.00  0.00     0.156 HD
ENDBRANCH   8  10
TORSDOF 1
ENDMDL
MODEL 4
REMARK VINA RESULT:      -4.6      2.152      2.776
REMARK  1 active torsions:
REMARK  status: ('A' for Active; 'I' for Inactive)
REMARK    1  A    between atoms: C_8  and  N_9 
ROOT
HETATM    1  C   UNL     1      63.237   8.718   3.910  1.00  0.00     0.002 A 
HETATM    2  C   UNL     1      62.407   9.323   2.974  1.00  0.00     0.085 A 
HETATM    3  C   UNL     1      62.890   7.346   2.175  1.00  0.00     0.143 A 
HETATM    4  O   UNL     1      62.199   8.488   1.918  1.00  0.00    -0.322 OA
HETATM    5  C   UNL     1      63.546   7.437   3.383  1.00  0.00     0.039 A 
HETATM    6  C   UNL     1      63.548   9.426   5.086  1.00  0.00     0.043 A 
HETATM    7  C   UNL     1      61.861  10.592   3.123  1.00  0.00     0.040 A 
HETATM    8  C   UNL     1      63.046  10.725   5.265  1.00  0.00     0.026 A 
HETATM    9  C   UNL     1      62.184  11.274   4.306  1.00  0.00     0.032 A 
ENDROOT
BRANCH   8  10
HETATM   10  N   UNL     1      63.208  11.366   6.502  1.00  0.00    -0.399 N 
HETATM   11  H   UNL     1      63.885  11.042   7.139  1.00  0.00     0.156 HD
HETATM   12  H   UNL     1      62.645  12.140   6.734  1.00  0.00     0.156 HD
ENDBRANCH   8  10
TORSDOF 1
ENDMDL
MODEL 5
REMARK VINA RESULT:      -4.5      2.504      3.660
REMARK  1 active torsions:
REMARK  status: ('A' for Active; 'I' for Inactive)
REMARK    1  A    between atoms: C_8  and  N_9 
ROOT
HETATM    1  C   UNL     1      62.325   9.659   2.805  1.00  0.00     0.002 A 
HETATM    2  C   UNL     1      62.366  10.540   3.879  1.00  0.00     0.085 A 
HETATM    3  C   UNL     1      61.665  11.700   2.164  1.00  0.00     0.143 A 
HETATM    4  O   UNL     1      61.966  11.782   3.486  1.00  0.00    -0.322 OA
HETATM    5  C   UNL     1      61.871  10.421   1.696  1.00  0.00     0.039 A 
HETATM    6  C   UNL     1      62.687   8.317   3.026  1.00  0.00     0.043 A 
HETATM    7  C   UNL     1      62.745  10.180   5.167  1.00  0.00     0.040 A 
HETATM    8  C   UNL     1      63.108   7.915   4.303  1.00  0.00     0.026 A 
HETATM    9  C   UNL     1      63.095   8.835   5.359  1.00  0.00     0.032 A 
ENDROOT
BRANCH   8  10
HETATM   10  N   UNL     1      63.302   6.551   4.571  1.00  0.00    -0.399 N 
HETATM   11  H   UNL     1      63.399   6.241   5.501  1.00  0.00     0.156 HD
HETATM   12  H   UNL     1      63.338   5.904   3.830  1.00  0.00     0.156 HD
ENDBRANCH   8  10
TORSDOF 1
ENDMDL
MODEL 6
REMARK VINA RESULT:      -4.2      1.511      2.934
REMARK  1 active torsions:
REMARK  status: ('A' for Active; 'I' for Inactive)
REMARK    1  A    between atoms: C_8  and  N_9 
ROOT
HETATM    1  C   UNL     1      62.327  10.216   3.574  1.00  0.00     0.002 A 
HETATM    2  C   UNL     1      63.062   9.262   4.267  1.00  0.00     0.085 A 
HETATM    3  C   UNL     1      62.878  10.982   5.604  1.00  0.00     0.143 A 
HETATM    4  O   UNL     1      63.399   9.731   5.501  1.00  0.00    -0.322 OA
HETATM    5  C   UNL     1      62.214  11.328   4.448  1.00  0.00     0.039 A 
HETATM    6  C   UNL     1      61.870   9.899   2.280  1.00  0.00     0.043 A 
HETATM    7  C   UNL     1      63.380   8.007   3.762  1.00  0.00     0.040 A 
HETATM    8  C   UNL     1      62.195   8.655   1.717  1.00  0.00     0.026 A 
HETATM    9  C   UNL     1      62.909   7.716   2.473  1.00  0.00     0.032 A 
ENDROOT
BRANCH   8  10
HETATM   10  N   UNL     1      61.602   8.267   0.506  1.00  0.00    -0.399 N 
HETATM   11  H   UNL     1      60.913   7.564   0.499  1.00  0.00     0.156 HD
HETATM   12  H   UNL     1      61.873   8.699  -0.336  1.00  0.00     0.156 HD
ENDBRANCH   8  10
TORSDOF 1
ENDMDL
MODEL 7
REMARK VINA RESULT:      -4.1      2.102      3.420
REMARK  1 active torsions:
REMARK  status: ('A' for Active; 'I' for Inactive)
REMARK    1  A    between atoms: C_8  and  N_9 
ROOT
HETATM    1  C   UNL     1      62.979   9.228   4.062  1.00  0.00     0.002 A 
HETATM    2  C   UNL     1      64.040   9.164   4.956  1.00  0.00     0.085 A 
HETATM    3  C   UNL     1      62.940  10.989   5.443  1.00  0.00     0.143 A 
HETATM    4  O   UNL     1      64.016  10.238   5.794  1.00  0.00    -0.322 OA
HETATM    5  C   UNL     1      62.272  10.415   4.383  1.00  0.00     0.039 A 
HETATM    6  C   UNL     1      62.828   8.187   3.126  1.00  0.00     0.043 A 
HETATM    7  C   UNL     1      64.970   8.132   4.987  1.00  0.00     0.040 A 
HETATM    8  C   UNL     1      63.763   7.140   3.100  1.00  0.00     0.026 A 
HETATM    9  C   UNL     1      64.793   7.105   4.048  1.00  0.00     0.032 A 
ENDROOT
BRANCH   8  10
HETATM   10  N   UNL     1      63.523   6.017   2.292  1.00  0.00    -0.399 N 
HETATM   11  H   UNL     1      63.249   6.136   1.354  1.00  0.00     0.156 HD
HETATM   12  H   UNL     1      63.631   5.111   2.663  1.00  0.00     0.156 HD
ENDBRANCH   8  10
TORSDOF 1
ENDMDL
MODEL 8
REMARK VINA RESULT:      -4.1      1.478      2.352
REMARK  1 active torsions:
REMARK  status: ('A' for Active; 'I' for Inactive)
REMARK    1  A    between atoms: C_8  and  N_9 
ROOT
HETATM    1  C   UNL     1      62.647   8.944   4.029  1.00  0.00     0.002 A 
HETATM    2  C   UNL     1      62.696   7.996   3.014  1.00  0.00     0.085 A 
HETATM    3  C   UNL     1      63.243   6.950   4.854  1.00  0.00     0.143 A 
HETATM    4  O   UNL     1      63.061   6.784   3.518  1.00  0.00    -0.322 OA
HETATM    5  C   UNL     1      63.005   8.257   5.218  1.00  0.00     0.039 A 
HETATM    6  C   UNL     1      62.265  10.258   3.700  1.00  0.00     0.043 A 
HETATM    7  C   UNL     1      62.392   8.263   1.685  1.00  0.00     0.040 A 
HETATM    8  C   UNL     1      61.980  10.582   2.364  1.00  0.00     0.026 A 
HETATM    9  C   UNL     1      62.010   9.580   1.386  1.00  0.00     0.032 A 
ENDROOT
BRANCH   8  10
HETATM   10  N   UNL     1      61.435  11.838   2.057  1.00  0.00    -0.399 N 
HETATM   11  H   UNL     1      61.374  12.532   2.753  1.00  0.00     0.156 HD
HETATM   12  H   UNL     1      61.114  12.026   1.145  1.00  0.00     0.156 HD
ENDBRANCH   8  10
TORSDOF 1
ENDMDL
MODEL 9
REMARK VINA RESULT:      -3.9      2.163      3.028
REMARK  1 active torsions:
REMARK  status: ('A' for Active; 'I' for Inactive)
REMARK    1  A    between atoms: C_8  and  N_9 
ROOT
HETATM    1  C   UNL     1      65.429   7.363   4.611  1.00  0.00     0.002 A 
HETATM    2  C   UNL     1      64.918   8.513   5.200  1.00  0.00     0.085 A 
HETATM    3  C   UNL     1      66.778   8.061   6.256  1.00  0.00     0.143 A 
HETATM    4  O   UNL     1      65.739   8.935   6.202  1.00  0.00    -0.322 OA
HETATM    5  C   UNL     1      66.634   7.076   5.303  1.00  0.00     0.039 A 
HETATM    6  C   UNL     1      64.723   6.791   3.536  1.00  0.00     0.043 A 
HETATM    7  C   UNL     1      63.745   9.139   4.795  1.00  0.00     0.040 A 
HETATM    8  C   UNL     1      63.516   7.371   3.114  1.00  0.00     0.026 A 
HETATM    9  C   UNL     1      63.064   8.551   3.719  1.00  0.00     0.032 A 
ENDROOT
BRANCH   8  10
HETATM   10  N   UNL     1      62.900   6.911   1.940  1.00  0.00    -0.399 N 
HETATM   11  H   UNL     1      62.852   7.495   1.148  1.00  0.00     0.156 HD
HETATM   12  H   UNL     1      62.517   6.005   1.907  1.00  0.00     0.156 HD
ENDBRANCH   8  10
TORSDOF 1
ENDMDL
