MODEL 1
REMARK VINA RESULT:      -4.8      0.000      0.000
REMARK  2 active torsions:
REMARK  status: ('A' for Active; 'I' for Inactive)
REMARK    1  A    between atoms: C_8  and  C_11 
REMARK    2  A    between atoms: N_10  and  C_11 
ROOT
HETATM    1  C   UNL     1      62.342   9.790   2.994  1.00  0.00     0.000 A 
HETATM    2  C   UNL     1      62.323  10.860   3.879  1.00  0.00     0.085 A 
HETATM    3  C   UNL     1      61.615  11.638   1.963  1.00  0.00     0.143 A 
HETATM    4  O   UNL     1      61.881  11.985   3.251  1.00  0.00    -0.322 OA
HETATM    5  C   UNL     1      61.882  10.305   1.754  1.00  0.00     0.039 A 
HETATM    6  C   UNL     1      62.770   8.538   3.466  1.00  0.00     0.023 A 
HETATM    7  C   UNL     1      62.703  10.775   5.216  1.00  0.00     0.039 A 
HETATM    8  C   UNL     1      63.157   8.401   4.816  1.00  0.00    -0.032 A 
HETATM    9  C   UNL     1      63.123   9.518   5.669  1.00  0.00     0.011 A 
ENDROOT
BRANCH   8  10
HETATM   10  C   UNL     1      63.609   7.055   5.328  1.00  0.00     0.268 C 
BRANCH  10  11
HETATM   11  N   UNL     1      64.182   7.165   6.664  1.00  0.00    -0.075 N 
HETATM   12  H   UNL     1      64.746   8.013   6.724  1.00  0.00     0.274 HD
HETATM   13  H   UNL     1      64.769   6.351   6.850  1.00  0.00     0.274 HD
HETATM   14  H   UNL     1      63.431   7.208   7.354  1.00  0.00     0.274 HD
ENDBRANCH  10  11
ENDBRANCH   8  10
TORSDOF 2
ENDMDL
MODEL 2
REMARK VINA RESULT:      -4.7      2.305      3.170
REMARK  2 active torsions:
REMARK  status: ('A' for Active; 'I' for Inactive)
REMARK    1  A    between atoms: C_8  and  C_11 
REMARK    2  A    between atoms: N_10  and  C_11 
ROOT
HETATM    1  C   UNL     1      62.155   9.305   2.294  1.00  0.00     0.000 A 
HETATM    2  C   UNL     1      62.884   8.169   2.621  1.00  0.00     0.085 A 
HETATM    3  C   UNL     1      62.126   7.847   0.597  1.00  0.00     0.143 A 
HETATM    4  O   UNL     1      62.866   7.282   1.588  1.00  0.00    -0.322 OA
HETATM    5  C   UNL     1      61.667   9.086   0.979  1.00  0.00     0.039 A 
HETATM    6  C   UNL     1      62.063  10.338   3.242  1.00  0.00     0.023 A 
HETATM    7  C   UNL     1      63.536   7.983   3.838  1.00  0.00     0.039 A 
HETATM    8  C   UNL     1      62.715  10.198   4.485  1.00  0.00    -0.032 A 
HETATM    9  C   UNL     1      63.436   9.026   4.768  1.00  0.00     0.011 A 
ENDROOT
BRANCH   8  10
HETATM   10  C   UNL     1      62.625  11.310   5.501  1.00  0.00     0.268 C 
BRANCH  10  11
HETATM   11  N   UNL     1      63.844  11.400   6.296  1.00  0.00    -0.075 N 
HETATM   12  H   UNL     1      64.093  10.473   6.643  1.00  0.00     0.274 HD
HETATM   13  H   UNL     1      63.691  12.029   7.084  1.00  0.00     0.274 HD
HETATM   14  H   UNL     1      64.603  11.759   5.716  1.00  0.00     0.274 HD
ENDBRANCH  10  11
ENDBRANCH   8  10
TORSDOF 2
ENDMDL
MODEL 3
REMARK VINA RESULT:      -4.7      1.953      3.251
REMARK  2 active torsions:
REMARK  status: ('A' for Active; 'I' for Inactive)
REMARK    1  A    between atoms: C_8  and  C_11 
REMARK    2  A    between atoms: N_10  and  C_11 
ROOT
HETATM    1  C   UNL     1      62.692   9.519   3.892  1.00  0.00     0.000 A 
HETATM    2  C   UNL     1      62.160  10.620   3.234  1.00  0.00     0.085 A 
HETATM    3  C   UNL     1      62.585  11.274   5.276  1.00  0.00     0.143 A 
HETATM    4  O   UNL     1      62.095  11.688   4.077  1.00  0.00    -0.322 OA
HETATM    5  C   UNL     1      62.964   9.953   5.216  1.00  0.00     0.039 A 
HETATM    6  C   UNL     1      62.839   8.318   3.177  1.00  0.00     0.023 A 
HETATM    7  C   UNL     1      61.758  10.614   1.901  1.00  0.00     0.039 A 
HETATM    8  C   UNL     1      62.454   8.267   1.822  1.00  0.00    -0.032 A 
HETATM    9  C   UNL     1      61.916   9.409   1.204  1.00  0.00     0.011 A 
ENDROOT
BRANCH   8  10
HETATM   10  C   UNL     1      62.618   6.980   1.049  1.00  0.00     0.268 C 
BRANCH  10  11
HETATM   11  N   UNL     1      63.626   6.123   1.661  1.00  0.00    -0.075 N 
HETATM   12  H   UNL     1      63.171   5.316   2.091  1.00  0.00     0.274 HD
HETATM   13  H   UNL     1      64.132   6.648   2.375  1.00  0.00     0.274 HD
HETATM   14  H   UNL     1      64.280   5.802   0.947  1.00  0.00     0.274 HD
ENDBRANCH  10  11
ENDBRANCH   8  10
TORSDOF 2
ENDMDL
MODEL 4
REMARK VINA RESULT:      -4.6      2.239      3.610
REMARK  2 active torsions:
REMARK  status: ('A' for Active; 'I' for Inactive)
REMARK    1  A    between atoms: C_8  and  C_11 
REMARK    2  A    between atoms: N_10  and  C_11 
ROOT
HETATM    1  C   UNL     1      63.181   8.241   3.435  1.00  0.00     0.000 A 
HETATM    2  C   UNL     1      62.522   8.608   2.269  1.00  0.00     0.085 A 
HETATM    3  C   UNL     1      63.291   6.591   1.928  1.00  0.00     0.143 A 
HETATM    4  O   UNL     1      62.590   7.603   1.351  1.00  0.00    -0.322 OA
HETATM    5  C   UNL     1      63.677   6.931   3.203  1.00  0.00     0.039 A 
HETATM    6  C   UNL     1      63.215   9.155   4.501  1.00  0.00     0.023 A 
HETATM    7  C   UNL     1      61.886   9.833   2.083  1.00  0.00     0.039 A 
HETATM    8  C   UNL     1      62.577  10.405   4.363  1.00  0.00    -0.032 A 
HETATM    9  C   UNL     1      61.927  10.729   3.160  1.00  0.00     0.011 A 
ENDROOT
BRANCH   8  10
HETATM   10  C   UNL     1      62.605  11.386   5.510  1.00  0.00     0.268 C 
BRANCH  10  11
HETATM   11  N   UNL     1      63.869  11.315   6.234  1.00  0.00    -0.075 N 
HETATM   12  H   UNL     1      63.857  10.511   6.862  1.00  0.00     0.274 HD
HETATM   13  H   UNL     1      63.998  12.169   6.777  1.00  0.00     0.274 HD
HETATM   14  H   UNL     1      64.636  11.215   5.569  1.00  0.00     0.274 HD
ENDBRANCH  10  11
ENDBRANCH   8  10
TORSDOF 2
ENDMDL
MODEL 5
REMARK VINA RESULT:      -4.4      2.725      4.045
REMARK  2 active torsions:
REMARK  status: ('A' for Active; 'I' for Inactive)
REMARK    1  A    between atoms: C_8  and  C_11 
REMARK    2  A    between atoms: N_10  and  C_11 
ROOT
HETATM    1  C   UNL     1      64.206   8.046   4.215  1.00  0.00     0.000 A 
HETATM    2  C   UNL     1      64.093   9.145   5.057  1.00  0.00     0.085 A 
HETATM    3  C   UNL     1      65.902   8.085   5.674  1.00  0.00     0.143 A 
HETATM    4  O   UNL     1      65.126   9.168   5.945  1.00  0.00    -0.322 OA
HETATM    5  C   UNL     1      65.382   7.365   4.624  1.00  0.00     0.039 A 
HETATM    6  C   UNL     1      63.227   7.856   3.226  1.00  0.00     0.023 A 
HETATM    7  C   UNL     1      63.064  10.080   4.986  1.00  0.00     0.039 A 
HETATM    8  C   UNL     1      62.170   8.784   3.110  1.00  0.00    -0.032 A 
HETATM    9  C   UNL     1      62.100   9.876   3.991  1.00  0.00     0.011 A 
ENDROOT
BRANCH   8  10
HETATM   10  C   UNL     1      61.121   8.586   2.043  1.00  0.00     0.268 C 
BRANCH  10  11
HETATM   11  N   UNL     1      59.846   8.183   2.624  1.00  0.00    -0.075 N 
HETATM   12  H   UNL     1      59.975   7.974   3.615  1.00  0.00     0.274 HD
HETATM   13  H   UNL     1      59.501   7.352   2.143  1.00  0.00     0.274 HD
HETATM   14  H   UNL     1      59.170   8.941   2.524  1.00  0.00     0.274 HD
ENDBRANCH  10  11
ENDBRANCH   8  10
TORSDOF 2
ENDMDL
MODEL 6
REMARK VINA RESULT:      -4.2      2.578      3.316
REMARK  2 active torsions:
REMARK  status: ('A' for Active; 'I' for Inactive)
REMARK    1  A    between atoms: C_8  and  C_11 
REMARK    2  A    between atoms: N_10  and  C_11 
ROOT
HETATM    1  C   UNL     1      63.099   9.102   4.123  1.00  0.00     0.000 A 
HETATM    2  C   UNL     1      64.164   9.120   5.015  1.00  0.00     0.085 A 
HETATM    3  C   UNL     1      62.981  10.909   5.438  1.00  0.00     0.143 A 
HETATM    4  O   UNL     1      64.092  10.221   5.814  1.00  0.00    -0.322 OA
HETATM    5  C   UNL     1      62.338  10.266   4.406  1.00  0.00     0.039 A 
HETATM    6  C   UNL     1      63.004   8.035   3.215  1.00  0.00     0.023 A 
HETATM    7  C   UNL     1      65.154   8.143   5.069  1.00  0.00     0.039 A 
HETATM    8  C   UNL     1      63.979   7.016   3.239  1.00  0.00    -0.032 A 
HETATM    9  C   UNL     1      65.040   7.085   4.158  1.00  0.00     0.011 A 
ENDROOT
BRANCH   8  10
HETATM   10  C   UNL     1      63.875   5.863   2.269  1.00  0.00     0.268 C 
BRANCH  10  11
HETATM   11  N   UNL     1      63.246   6.279   1.021  1.00  0.00    -0.075 N 
HETATM   12  H   UNL     1      62.563   7.014   1.212  1.00  0.00     0.274 HD
HETATM   13  H   UNL     1      62.776   5.481   0.594  1.00  0.00     0.274 HD
HETATM   14  H   UNL     1      63.958   6.637   0.384  1.00  0.00     0.274 HD
ENDBRANCH  10  11
ENDBRANCH   8  10
TORSDOF 2
ENDMDL
MODEL 7
REMARK VINA RESULT:      -4.2      2.648      3.424
REMARK  2 active torsions:
REMARK  status: ('A' for Active; 'I' for Inactive)
REMARK    1  A    between atoms: C_8  and  C_11 
REMARK    2  A    between atoms: N_10  and  C_11 
ROOT
HETATM    1  C   UNL     1      62.006  10.047   1.993  1.00  0.00     0.000 A 
HETATM    2  C   UNL     1      62.077   9.614   3.311  1.00  0.00     0.085 A 
HETATM    3  C   UNL     1      61.779  11.778   3.394  1.00  0.00     0.143 A 
HETATM    4  O   UNL     1      61.939  10.668   4.163  1.00  0.00    -0.322 OA
HETATM    5  C   UNL     1      61.813  11.452   2.058  1.00  0.00     0.039 A 
HETATM    6  C   UNL     1      62.126   9.095   0.967  1.00  0.00     0.023 A 
HETATM    7  C   UNL     1      62.261   8.286   3.687  1.00  0.00     0.039 A 
HETATM    8  C   UNL     1      62.305   7.736   1.301  1.00  0.00    -0.032 A 
HETATM    9  C   UNL     1      62.375   7.351   2.650  1.00  0.00     0.011 A 
ENDROOT
BRANCH   8  10
HETATM   10  C   UNL     1      62.426   6.710   0.200  1.00  0.00     0.268 C 
BRANCH  10  11
HETATM   11  N   UNL     1      61.534   5.581   0.431  1.00  0.00    -0.075 N 
HETATM   12  H   UNL     1      61.843   4.783  -0.125  1.00  0.00     0.274 HD
HETATM   13  H   UNL     1      60.584   5.837   0.161  1.00  0.00     0.274 HD
HETATM   14  H   UNL     1      61.550   5.330   1.420  1.00  0.00     0.274 HD
ENDBRANCH  10  11
ENDBRANCH   8  10
TORSDOF 2
ENDMDL
MODEL 8
REMARK VINA RESULT:      -4.0      2.820      3.674
REMARK  2 active torsions:
REMARK  status: ('A' for Active; 'I' for Inactive)
REMARK    1  A    between atoms: C_8  and  C_11 
REMARK    2  A    between atoms: N_10  and  C_11 
ROOT
HETATM    1  C   UNL     1      63.890   8.246   4.220  1.00  0.00     0.000 A 
HETATM    2  C   UNL     1      64.771   8.753   5.166  1.00  0.00     0.085 A 
HETATM    3  C   UNL     1      63.049  10.100   5.149  1.00  0.00     0.143 A 
HETATM    4  O   UNL     1      64.259   9.882   5.731  1.00  0.00    -0.322 OA
HETATM    5  C   UNL     1      62.777   9.127   4.216  1.00  0.00     0.039 A 
HETATM    6  C   UNL     1      64.249   7.076   3.530  1.00  0.00     0.023 A 
HETATM    7  C   UNL     1      65.998   8.175   5.480  1.00  0.00     0.039 A 
HETATM    8  C   UNL     1      65.478   6.449   3.822  1.00  0.00    -0.032 A 
HETATM    9  C   UNL     1      66.336   7.007   4.785  1.00  0.00     0.011 A 
ENDROOT
BRANCH   8  10
HETATM   10  C   UNL     1      65.862   5.187   3.088  1.00  0.00     0.268 C 
BRANCH  10  11
HETATM   11  N   UNL     1      67.310   5.072   2.958  1.00  0.00    -0.075 N 
HETATM   12  H   UNL     1      67.653   5.790   2.319  1.00  0.00     0.274 HD
HETATM   13  H   UNL     1      67.547   4.150   2.592  1.00  0.00     0.274 HD
HETATM   14  H   UNL     1      67.745   5.198   3.872  1.00  0.00     0.274 HD
ENDBRANCH  10  11
ENDBRANCH   8  10
TORSDOF 2
ENDMDL
MODEL 9
REMARK VINA RESULT:      -4.0      3.160      4.884
REMARK  2 active torsions:
REMARK  status: ('A' for Active; 'I' for Inactive)
REMARK    1  A    between atoms: C_8  and  C_11 
REMARK    2  A    between atoms: N_10  and  C_11 
ROOT
HETATM    1  C   UNL     1      64.783   8.267   5.028  1.00  0.00     0.000 A 
HETATM    2  C   UNL     1      64.685   7.233   4.105  1.00  0.00     0.085 A 
HETATM    3  C   UNL     1      66.378   6.742   5.398  1.00  0.00     0.143 A 
HETATM    4  O   UNL     1      65.657   6.305   4.331  1.00  0.00    -0.322 OA
HETATM    5  C   UNL     1      65.884   7.939   5.861  1.00  0.00     0.039 A 
HETATM    6  C   UNL     1      63.857   9.321   4.953  1.00  0.00     0.023 A 
HETATM    7  C   UNL     1      63.723   7.170   3.101  1.00  0.00     0.039 A 
HETATM    8  C   UNL     1      62.858   9.296   3.958  1.00  0.00    -0.032 A 
HETATM    9  C   UNL     1      62.806   8.229   3.045  1.00  0.00     0.011 A 
ENDROOT
BRANCH   8  10
HETATM   10  C   UNL     1      61.857  10.423   3.880  1.00  0.00     0.268 C 
BRANCH  10  11
HETATM   11  N   UNL     1      61.578  10.786   2.496  1.00  0.00    -0.075 N 
HETATM   12  H   UNL     1      61.085  11.680   2.471  1.00  0.00     0.274 HD
HETATM   13  H   UNL     1      60.998  10.066   2.065  1.00  0.00     0.274 HD
HETATM   14  H   UNL     1      62.455  10.870   1.982  1.00  0.00     0.274 HD
ENDBRANCH  10  11
ENDBRANCH   8  10
TORSDOF 2
ENDMDL
