MODEL 1
REMARK VINA RESULT:      -5.3      0.000      0.000
REMARK  2 active torsions:
REMARK  status: ('A' for Active; 'I' for Inactive)
REMARK    1  A    between atoms: C_8  and  C_11 
REMARK    2  A    between atoms: O_10  and  C_11 
ROOT
HETATM    1  C   UNL     1      62.170   9.744   2.735  1.00  0.00     0.000 A 
HETATM    2  C   UNL     1      62.848   8.540   2.873  1.00  0.00     0.085 A 
HETATM    3  C   UNL     1      61.893   8.481   0.908  1.00  0.00     0.143 A 
HETATM    4  O   UNL     1      62.681   7.772   1.760  1.00  0.00    -0.322 OA
HETATM    5  C   UNL     1      61.555   9.697   1.456  1.00  0.00     0.039 A 
HETATM    6  C   UNL     1      62.229  10.669   3.792  1.00  0.00     0.023 A 
HETATM    7  C   UNL     1      63.586   8.183   3.998  1.00  0.00     0.039 A 
HETATM    8  C   UNL     1      62.962  10.349   4.954  1.00  0.00    -0.034 A 
HETATM    9  C   UNL     1      63.628   9.116   5.042  1.00  0.00     0.012 A 
ENDROOT
BRANCH   8  10
HETATM   10  C   UNL     1      63.006  11.328   6.098  1.00  0.00     0.202 C 
BRANCH  10  11
HETATM   11  O   UNL     1      64.350  11.598   6.472  1.00  0.00    -0.396 OA
HETATM   12  H   UNL     1      64.866  11.825   5.682  1.00  0.00     0.209 HD
ENDBRANCH  10  11
ENDBRANCH   8  10
TORSDOF 2
ENDMDL
MODEL 2
REMARK VINA RESULT:      -5.2      0.984      1.960
REMARK  2 active torsions:
REMARK  status: ('A' for Active; 'I' for Inactive)
REMARK    1  A    between atoms: C_8  and  C_11 
REMARK    2  A    between atoms: O_10  and  C_11 
ROOT
HETATM    1  C   UNL     1      62.607   8.932   2.990  1.00  0.00     0.000 A 
HETATM    2  C   UNL     1      62.030   9.814   2.085  1.00  0.00     0.085 A 
HETATM    3  C   UNL     1      62.292   7.928   1.014  1.00  0.00     0.143 A 
HETATM    4  O   UNL     1      61.837   9.202   0.884  1.00  0.00    -0.322 OA
HETATM    5  C   UNL     1      62.771   7.710   2.285  1.00  0.00     0.039 A 
HETATM    6  C   UNL     1      62.881   9.392   4.290  1.00  0.00     0.023 A 
HETATM    7  C   UNL     1      61.705  11.136   2.381  1.00  0.00     0.039 A 
HETATM    8  C   UNL     1      62.572  10.725   4.634  1.00  0.00    -0.034 A 
HETATM    9  C   UNL     1      61.991  11.576   3.679  1.00  0.00     0.012 A 
ENDROOT
BRANCH   8  10
HETATM   10  C   UNL     1      62.889  11.228   6.018  1.00  0.00     0.202 C 
BRANCH  10  11
HETATM   11  O   UNL     1      64.292  11.379   6.183  1.00  0.00    -0.396 OA
HETATM   12  H   UNL     1      64.618  12.064   5.578  1.00  0.00     0.209 HD
ENDBRANCH  10  11
ENDBRANCH   8  10
TORSDOF 2
ENDMDL
MODEL 3
REMARK VINA RESULT:      -4.9      2.058      2.938
REMARK  2 active torsions:
REMARK  status: ('A' for Active; 'I' for Inactive)
REMARK    1  A    between atoms: C_8  and  C_11 
REMARK    2  A    between atoms: O_10  and  C_11 
ROOT
HETATM    1  C   UNL     1      62.316   9.787   3.062  1.00  0.00     0.000 A 
HETATM    2  C   UNL     1      62.314  10.902   3.891  1.00  0.00     0.085 A 
HETATM    3  C   UNL     1      61.637  11.598   1.934  1.00  0.00     0.143 A 
HETATM    4  O   UNL     1      61.899  12.003   3.205  1.00  0.00    -0.322 OA
HETATM    5  C   UNL     1      61.873  10.249   1.795  1.00  0.00     0.039 A 
HETATM    6  C   UNL     1      62.718   8.553   3.602  1.00  0.00     0.023 A 
HETATM    7  C   UNL     1      62.690  10.879   5.232  1.00  0.00     0.039 A 
HETATM    8  C   UNL     1      63.112   8.483   4.955  1.00  0.00    -0.034 A 
HETATM    9  C   UNL     1      63.093   9.641   5.749  1.00  0.00     0.012 A 
ENDROOT
BRANCH   8  10
HETATM   10  C   UNL     1      63.568   7.167   5.528  1.00  0.00     0.202 C 
BRANCH  10  11
HETATM   11  O   UNL     1      63.800   7.286   6.925  1.00  0.00    -0.396 OA
HETATM   12  H   UNL     1      64.748   7.189   7.106  1.00  0.00     0.209 HD
ENDBRANCH  10  11
ENDBRANCH   8  10
TORSDOF 2
ENDMDL
MODEL 4
REMARK VINA RESULT:      -4.7      1.438      4.485
REMARK  2 active torsions:
REMARK  status: ('A' for Active; 'I' for Inactive)
REMARK    1  A    between atoms: C_8  and  C_11 
REMARK    2  A    between atoms: O_10  and  C_11 
ROOT
HETATM    1  C   UNL     1      62.701   9.518   3.898  1.00  0.00     0.000 A 
HETATM    2  C   UNL     1      62.167  10.619   3.239  1.00  0.00     0.085 A 
HETATM    3  C   UNL     1      62.577  11.272   5.283  1.00  0.00     0.143 A 
HETATM    4  O   UNL     1      62.094  11.686   4.082  1.00  0.00    -0.322 OA
HETATM    5  C   UNL     1      62.965   9.953   5.224  1.00  0.00     0.039 A 
HETATM    6  C   UNL     1      62.852   8.319   3.181  1.00  0.00     0.023 A 
HETATM    7  C   UNL     1      61.765  10.612   1.906  1.00  0.00     0.039 A 
HETATM    8  C   UNL     1      62.454   8.263   1.829  1.00  0.00    -0.034 A 
HETATM    9  C   UNL     1      61.918   9.405   1.211  1.00  0.00     0.012 A 
ENDROOT
BRANCH   8  10
HETATM   10  C   UNL     1      62.591   6.971   1.066  1.00  0.00     0.202 C 
BRANCH  10  11
HETATM   11  O   UNL     1      63.671   6.203   1.579  1.00  0.00    -0.396 OA
HETATM   12  H   UNL     1      64.508   6.661   1.401  1.00  0.00     0.209 HD
ENDBRANCH  10  11
ENDBRANCH   8  10
TORSDOF 2
ENDMDL
MODEL 5
REMARK VINA RESULT:      -4.7      1.406      2.805
REMARK  2 active torsions:
REMARK  status: ('A' for Active; 'I' for Inactive)
REMARK    1  A    between atoms: C_8  and  C_11 
REMARK    2  A    between atoms: O_10  and  C_11 
ROOT
HETATM    1  C   UNL     1      64.579   7.882   4.411  1.00  0.00     0.000 A 
HETATM    2  C   UNL     1      63.631   7.646   3.424  1.00  0.00     0.085 A 
HETATM    3  C   UNL     1      65.093   6.031   3.261  1.00  0.00     0.143 A 
HETATM    4  O   UNL     1      63.943   6.519   2.726  1.00  0.00    -0.322 OA
HETATM    5  C   UNL     1      65.524   6.827   4.297  1.00  0.00     0.039 A 
HETATM    6  C   UNL     1      64.421   9.009   5.235  1.00  0.00     0.023 A 
HETATM    7  C   UNL     1      62.525   8.460   3.193  1.00  0.00     0.039 A 
HETATM    8  C   UNL     1      63.317   9.865   5.035  1.00  0.00    -0.034 A 
HETATM    9  C   UNL     1      62.388   9.581   4.021  1.00  0.00     0.012 A 
ENDROOT
BRANCH   8  10
HETATM   10  C   UNL     1      63.159  11.088   5.901  1.00  0.00     0.202 C 
BRANCH  10  11
HETATM   11  O   UNL     1      64.412  11.477   6.447  1.00  0.00    -0.396 OA
HETATM   12  H   UNL     1      64.318  12.331   6.897  1.00  0.00     0.209 HD
ENDBRANCH  10  11
ENDBRANCH   8  10
TORSDOF 2
ENDMDL
MODEL 6
REMARK VINA RESULT:      -4.7      1.954      3.724
REMARK  2 active torsions:
REMARK  status: ('A' for Active; 'I' for Inactive)
REMARK    1  A    between atoms: C_8  and  C_11 
REMARK    2  A    between atoms: O_10  and  C_11 
ROOT
HETATM    1  C   UNL     1      63.270   8.089   4.056  1.00  0.00     0.000 A 
HETATM    2  C   UNL     1      63.329   8.788   5.255  1.00  0.00     0.085 A 
HETATM    3  C   UNL     1      64.156   6.807   5.664  1.00  0.00     0.143 A 
HETATM    4  O   UNL     1      63.870   8.008   6.232  1.00  0.00    -0.322 OA
HETATM    5  C   UNL     1      63.810   6.805   4.332  1.00  0.00     0.039 A 
HETATM    6  C   UNL     1      62.738   8.738   2.929  1.00  0.00     0.023 A 
HETATM    7  C   UNL     1      62.890  10.099   5.417  1.00  0.00     0.039 A 
HETATM    8  C   UNL     1      62.276  10.066   3.047  1.00  0.00    -0.034 A 
HETATM    9  C   UNL     1      62.358  10.727   4.284  1.00  0.00     0.012 A 
ENDROOT
BRANCH   8  10
HETATM   10  C   UNL     1      61.681  10.756   1.847  1.00  0.00     0.202 C 
BRANCH  10  11
HETATM   11  O   UNL     1      62.069  12.123   1.815  1.00  0.00    -0.396 OA
HETATM   12  H   UNL     1      61.683  12.586   2.576  1.00  0.00     0.209 HD
ENDBRANCH  10  11
ENDBRANCH   8  10
TORSDOF 2
ENDMDL
MODEL 7
REMARK VINA RESULT:      -4.4      1.255      4.241
REMARK  2 active torsions:
REMARK  status: ('A' for Active; 'I' for Inactive)
REMARK    1  A    between atoms: C_8  and  C_11 
REMARK    2  A    between atoms: O_10  and  C_11 
ROOT
HETATM    1  C   UNL     1      62.333  10.176   3.649  1.00  0.00     0.000 A 
HETATM    2  C   UNL     1      63.116   9.266   4.348  1.00  0.00     0.085 A 
HETATM    3  C   UNL     1      62.936  11.025   5.631  1.00  0.00     0.143 A 
HETATM    4  O   UNL     1      63.481   9.782   5.554  1.00  0.00    -0.322 OA
HETATM    5  C   UNL     1      62.221  11.313   4.491  1.00  0.00     0.039 A 
HETATM    6  C   UNL     1      61.862   9.813   2.376  1.00  0.00     0.023 A 
HETATM    7  C   UNL     1      63.471   8.008   3.865  1.00  0.00     0.039 A 
HETATM    8  C   UNL     1      62.200   8.551   1.844  1.00  0.00    -0.034 A 
HETATM    9  C   UNL     1      62.997   7.669   2.592  1.00  0.00     0.012 A 
ENDROOT
BRANCH   8  10
HETATM   10  C   UNL     1      61.718   8.171   0.468  1.00  0.00     0.202 C 
BRANCH  10  11
HETATM   11  O   UNL     1      60.299   8.226   0.405  1.00  0.00    -0.396 OA
HETATM   12  H   UNL     1      60.028   8.659  -0.420  1.00  0.00     0.209 HD
ENDBRANCH  10  11
ENDBRANCH   8  10
TORSDOF 2
ENDMDL
MODEL 8
REMARK VINA RESULT:      -4.4      1.738      4.393
REMARK  2 active torsions:
REMARK  status: ('A' for Active; 'I' for Inactive)
REMARK    1  A    between atoms: C_8  and  C_11 
REMARK    2  A    between atoms: O_10  and  C_11 
ROOT
HETATM    1  C   UNL     1      64.392   7.897   4.308  1.00  0.00     0.000 A 
HETATM    2  C   UNL     1      64.263   9.020   5.114  1.00  0.00     0.085 A 
HETATM    3  C   UNL     1      66.126   8.049   5.716  1.00  0.00     0.143 A 
HETATM    4  O   UNL     1      65.319   9.114   5.969  1.00  0.00    -0.322 OA
HETATM    5  C   UNL     1      65.605   7.274   4.706  1.00  0.00     0.039 A 
HETATM    6  C   UNL     1      63.389   7.637   3.358  1.00  0.00     0.023 A 
HETATM    7  C   UNL     1      63.196   9.913   5.046  1.00  0.00     0.039 A 
HETATM    8  C   UNL     1      62.286   8.511   3.256  1.00  0.00    -0.034 A 
HETATM    9  C   UNL     1      62.204   9.633   4.097  1.00  0.00     0.012 A 
ENDROOT
BRANCH   8  10
HETATM   10  C   UNL     1      61.197   8.220   2.257  1.00  0.00     0.202 C 
BRANCH  10  11
HETATM   11  O   UNL     1      60.770   9.418   1.623  1.00  0.00    -0.396 OA
HETATM   12  H   UNL     1      59.800   9.452   1.616  1.00  0.00     0.209 HD
ENDBRANCH  10  11
ENDBRANCH   8  10
TORSDOF 2
ENDMDL
MODEL 9
REMARK VINA RESULT:      -4.4      1.439      2.332
REMARK  2 active torsions:
REMARK  status: ('A' for Active; 'I' for Inactive)
REMARK    1  A    between atoms: C_8  and  C_11 
REMARK    2  A    between atoms: O_10  and  C_11 
ROOT
HETATM    1  C   UNL     1      62.804   8.147   2.456  1.00  0.00     0.000 A 
HETATM    2  C   UNL     1      62.103   9.320   2.709  1.00  0.00     0.085 A 
HETATM    3  C   UNL     1      61.438   8.623   0.748  1.00  0.00     0.143 A 
HETATM    4  O   UNL     1      61.271   9.608   1.671  1.00  0.00    -0.322 OA
HETATM    5  C   UNL     1      62.364   7.703   1.181  1.00  0.00     0.039 A 
HETATM    6  C   UNL     1      63.716   7.692   3.424  1.00  0.00     0.023 A 
HETATM    7  C   UNL     1      62.247  10.082   3.866  1.00  0.00     0.039 A 
HETATM    8  C   UNL     1      63.898   8.434   4.610  1.00  0.00    -0.034 A 
HETATM    9  C   UNL     1      63.165   9.614   4.815  1.00  0.00     0.012 A 
ENDROOT
BRANCH   8  10
HETATM   10  C   UNL     1      64.895   7.961   5.636  1.00  0.00     0.202 C 
BRANCH  10  11
HETATM   11  O   UNL     1      65.671   9.051   6.115  1.00  0.00    -0.396 OA
HETATM   12  H   UNL     1      65.229   9.885   5.893  1.00  0.00     0.209 HD
ENDBRANCH  10  11
ENDBRANCH   8  10
TORSDOF 2
ENDMDL
