MODEL 1
REMARK VINA RESULT:      -3.3      0.000      0.000
REMARK  0 active torsions:
REMARK  status: ('A' for Active; 'I' for Inactive)
ROOT
HETATM    1  C   UNL     1      62.937  10.817   5.258  1.00  0.00     0.158 A 
HETATM    2  S   UNL     1      63.023   9.119   5.001  1.00  0.00    -0.046 SA
HETATM    3  N   UNL     1      62.171  11.444   4.392  1.00  0.00    -0.280 N 
ATOM      4  HN  UNL     1      62.005  12.451   4.408  1.00  0.00     0.189 HD
HETATM    5  N   UNL     1      61.614  10.592   3.458  1.00  0.00    -0.303 N 
ATOM      6  HN  UNL     1      60.993  10.892   2.706  1.00  0.00     0.186 HD
HETATM    7  C   UNL     1      61.986   9.348   3.658  1.00  0.00     0.160 A 
HETATM    8  N   UNL     1      63.593  11.412   6.270  1.00  0.00    -0.379 N 
HETATM    9  H   UNL     1      64.150  10.874   6.879  1.00  0.00     0.158 HD
HETATM   10  H   UNL     1      63.518  12.385   6.402  1.00  0.00     0.158 HD
ENDROOT
TORSDOF 0
ENDMDL
MODEL 2
REMARK VINA RESULT:      -3.3      1.110      2.426
REMARK  0 active torsions:
REMARK  status: ('A' for Active; 'I' for Inactive)
ROOT
HETATM    1  C   UNL     1      62.097  10.901   3.679  1.00  0.00     0.158 A 
HETATM    2  S   UNL     1      62.657   9.285   3.866  1.00  0.00    -0.046 SA
HETATM    3  N   UNL     1      62.386  11.681   4.697  1.00  0.00    -0.280 N 
ATOM      4  HN  UNL     1      62.134  12.669   4.743  1.00  0.00     0.189 HD
HETATM    5  N   UNL     1      63.068  11.019   5.700  1.00  0.00    -0.303 N 
ATOM      6  HN  UNL     1      63.378  11.455   6.568  1.00  0.00     0.186 HD
HETATM    7  C   UNL     1      63.268   9.757   5.395  1.00  0.00     0.160 A 
HETATM    8  N   UNL     1      61.442  11.298   2.573  1.00  0.00    -0.379 N 
HETATM    9  H   UNL     1      61.262  10.653   1.850  1.00  0.00     0.158 HD
HETATM   10  H   UNL     1      61.141  12.231   2.486  1.00  0.00     0.158 HD
ENDROOT
TORSDOF 0
ENDMDL
MODEL 3
REMARK VINA RESULT:      -3.1      1.707      2.003
REMARK  0 active torsions:
REMARK  status: ('A' for Active; 'I' for Inactive)
ROOT
HETATM    1  C   UNL     1      63.227   9.481   5.223  1.00  0.00     0.158 A 
HETATM    2  S   UNL     1      62.378   9.386   3.730  1.00  0.00    -0.046 SA
HETATM    3  N   UNL     1      63.208  10.678   5.766  1.00  0.00    -0.280 N 
ATOM      4  HN  UNL     1      63.656  10.902   6.655  1.00  0.00     0.189 HD
HETATM    5  N   UNL     1      62.517  11.599   5.003  1.00  0.00    -0.303 N 
ATOM      6  HN  UNL     1      62.394  12.579   5.258  1.00  0.00     0.186 HD
HETATM    7  C   UNL     1      62.038  11.055   3.907  1.00  0.00     0.160 A 
HETATM    8  N   UNL     1      63.828   8.404   5.762  1.00  0.00    -0.379 N 
HETATM    9  H   UNL     1      63.798   7.538   5.294  1.00  0.00     0.158 HD
HETATM   10  H   UNL     1      64.298   8.483   6.624  1.00  0.00     0.158 HD
ENDROOT
TORSDOF 0
ENDMDL
MODEL 4
REMARK VINA RESULT:      -3.1      1.837      1.989
REMARK  0 active torsions:
REMARK  status: ('A' for Active; 'I' for Inactive)
ROOT
HETATM    1  C   UNL     1      63.244  10.381   5.301  1.00  0.00     0.158 A 
HETATM    2  S   UNL     1      62.141  10.353   3.981  1.00  0.00    -0.046 SA
HETATM    3  N   UNL     1      64.041   9.337   5.345  1.00  0.00    -0.280 N 
ATOM      4  HN  UNL     1      64.759   9.203   6.058  1.00  0.00     0.189 HD
HETATM    5  N   UNL     1      63.803   8.440   4.322  1.00  0.00    -0.303 N 
ATOM      6  HN  UNL     1      64.319   7.570   4.189  1.00  0.00     0.186 HD
HETATM    7  C   UNL     1      62.828   8.848   3.541  1.00  0.00     0.160 A 
HETATM    8  N   UNL     1      63.270  11.402   6.177  1.00  0.00    -0.379 N 
HETATM    9  H   UNL     1      62.639  12.152   6.078  1.00  0.00     0.158 HD
HETATM   10  H   UNL     1      63.919  11.400   6.917  1.00  0.00     0.158 HD
ENDROOT
TORSDOF 0
ENDMDL
MODEL 5
REMARK VINA RESULT:      -2.9      5.403      6.191
REMARK  0 active torsions:
REMARK  status: ('A' for Active; 'I' for Inactive)
ROOT
HETATM    1  C   UNL     1      66.309   6.395   7.989  1.00  0.00     0.158 A 
HETATM    2  S   UNL     1      65.255   6.519   6.635  1.00  0.00    -0.046 SA
HETATM    3  N   UNL     1      67.135   7.411   8.110  1.00  0.00    -0.280 N 
ATOM      4  HN  UNL     1      67.819   7.498   8.861  1.00  0.00     0.189 HD
HETATM    5  N   UNL     1      66.976   8.349   7.108  1.00  0.00    -0.303 N 
ATOM      6  HN  UNL     1      67.524   9.206   7.031  1.00  0.00     0.186 HD
HETATM    7  C   UNL     1      66.030   8.000   6.266  1.00  0.00     0.160 A 
HETATM    8  N   UNL     1      66.255   5.349   8.833  1.00  0.00    -0.379 N 
HETATM    9  H   UNL     1      65.607   4.624   8.676  1.00  0.00     0.158 HD
HETATM   10  H   UNL     1      66.862   5.308   9.606  1.00  0.00     0.158 HD
ENDROOT
TORSDOF 0
ENDMDL
MODEL 6
REMARK VINA RESULT:      -2.9      6.365      7.214
REMARK  0 active torsions:
REMARK  status: ('A' for Active; 'I' for Inactive)
ROOT
HETATM    1  C   UNL     1      66.188   6.647   7.680  1.00  0.00     0.158 A 
HETATM    2  S   UNL     1      66.268   4.932   7.781  1.00  0.00    -0.046 SA
HETATM    3  N   UNL     1      67.187   7.258   8.277  1.00  0.00    -0.280 N 
ATOM      4  HN  UNL     1      67.295   8.273   8.304  1.00  0.00     0.189 HD
HETATM    5  N   UNL     1      68.074   6.379   8.866  1.00  0.00    -0.303 N 
ATOM      6  HN  UNL     1      68.911   6.663   9.376  1.00  0.00     0.186 HD
HETATM    7  C   UNL     1      67.707   5.130   8.688  1.00  0.00     0.160 A 
HETATM    8  N   UNL     1      65.189   7.270   7.028  1.00  0.00    -0.379 N 
HETATM    9  H   UNL     1      64.474   6.741   6.604  1.00  0.00     0.158 HD
HETATM   10  H   UNL     1      65.172   8.253   6.976  1.00  0.00     0.158 HD
ENDROOT
TORSDOF 0
ENDMDL
MODEL 7
REMARK VINA RESULT:      -2.7      5.280      5.558
REMARK  0 active torsions:
REMARK  status: ('A' for Active; 'I' for Inactive)
ROOT
HETATM    1  C   UNL     1      66.974   7.989   6.194  1.00  0.00     0.158 A 
HETATM    2  S   UNL     1      65.526   7.587   5.358  1.00  0.00    -0.046 SA
HETATM    3  N   UNL     1      68.064   7.559   5.600  1.00  0.00    -0.280 N 
ATOM      4  HN  UNL     1      69.006   7.720   5.959  1.00  0.00     0.189 HD
HETATM    5  N   UNL     1      67.798   6.865   4.436  1.00  0.00    -0.303 N 
ATOM      6  HN  UNL     1      68.514   6.454   3.836  1.00  0.00     0.186 HD
HETATM    7  C   UNL     1      66.508   6.799   4.197  1.00  0.00     0.160 A 
HETATM    8  N   UNL     1      66.954   8.695   7.340  1.00  0.00    -0.379 N 
HETATM    9  H   UNL     1      66.095   8.983   7.725  1.00  0.00     0.158 HD
HETATM   10  H   UNL     1      67.798   8.922   7.793  1.00  0.00     0.158 HD
ENDROOT
TORSDOF 0
ENDMDL
MODEL 8
REMARK VINA RESULT:      -2.6      2.308      3.126
REMARK  0 active torsions:
REMARK  status: ('A' for Active; 'I' for Inactive)
ROOT
HETATM    1  C   UNL     1      61.873   9.022   2.642  1.00  0.00     0.158 A 
HETATM    2  S   UNL     1      62.443   9.632   4.146  1.00  0.00    -0.046 SA
HETATM    3  N   UNL     1      61.396   9.951   1.843  1.00  0.00    -0.280 N 
ATOM      4  HN  UNL     1      61.027   9.760   0.911  1.00  0.00     0.189 HD
HETATM    5  N   UNL     1      61.450  11.213   2.401  1.00  0.00    -0.303 N 
ATOM      6  HN  UNL     1      61.126  12.061   1.934  1.00  0.00     0.186 HD
HETATM    7  C   UNL     1      61.969  11.186   3.607  1.00  0.00     0.160 A 
HETATM    8  N   UNL     1      61.940   7.713   2.340  1.00  0.00    -0.379 N 
HETATM    9  H   UNL     1      62.312   7.076   2.993  1.00  0.00     0.158 HD
HETATM   10  H   UNL     1      61.617   7.391   1.468  1.00  0.00     0.158 HD
ENDROOT
TORSDOF 0
ENDMDL
MODEL 9
REMARK VINA RESULT:      -2.6      1.876      2.671
REMARK  0 active torsions:
REMARK  status: ('A' for Active; 'I' for Inactive)
ROOT
HETATM    1  C   UNL     1      63.312   9.495   4.417  1.00  0.00     0.158 A 
HETATM    2  S   UNL     1      62.214  10.489   3.543  1.00  0.00    -0.046 SA
HETATM    3  N   UNL     1      63.658   9.989   5.585  1.00  0.00    -0.280 N 
ATOM      4  HN  UNL     1      64.294   9.522   6.232  1.00  0.00     0.189 HD
HETATM    5  N   UNL     1      63.066  11.211   5.843  1.00  0.00    -0.303 N 
ATOM      6  HN  UNL     1      63.211  11.751   6.696  1.00  0.00     0.186 HD
HETATM    7  C   UNL     1      62.292  11.591   4.851  1.00  0.00     0.160 A 
HETATM    8  N   UNL     1      63.744   8.319   3.926  1.00  0.00    -0.379 N 
HETATM    9  H   UNL     1      63.439   8.014   3.041  1.00  0.00     0.158 HD
HETATM   10  H   UNL     1      64.364   7.763   4.452  1.00  0.00     0.158 HD
ENDROOT
TORSDOF 0
ENDMDL
