MODEL 1
REMARK VINA RESULT:      -5.1      0.000      0.000
REMARK  2 active torsions:
REMARK  status: ('A' for Active; 'I' for Inactive)
REMARK    1  A    between atoms: C_4  and  C_7 
REMARK    2  A    between atoms: C_7  and  O_8 
ROOT
HETATM    1  N   UNL     1      63.253   9.303   4.812  1.00  0.00    -0.342 N 
ATOM      2  HN  UNL     1      63.793   8.726   5.457  1.00  0.00     0.167 HD
HETATM    3  N   UNL     1      62.105  10.984   3.926  1.00  0.00    -0.342 N 
HETATM    4  C   UNL     1      62.825  10.541   5.008  1.00  0.00     0.106 A 
HETATM    5  C   UNL     1      62.815   8.961   3.553  1.00  0.00     0.060 A 
HETATM    6  C   UNL     1      62.090   9.997   2.975  1.00  0.00     0.060 A 
HETATM    7  C   UNL     1      63.008   7.776   2.822  1.00  0.00     0.032 A 
HETATM    8  C   UNL     1      61.527   9.927   1.700  1.00  0.00     0.032 A 
HETATM    9  C   UNL     1      61.729   8.738   0.988  1.00  0.00     0.002 A 
HETATM   10  C   UNL     1      62.457   7.680   1.536  1.00  0.00     0.002 A 
HETATM   11  H   UNL     1      61.672  11.865   3.846  1.00  0.00     0.167 HD
ENDROOT
BRANCH   4  12
HETATM   12  C   UNL     1      63.066  11.395   6.205  1.00  0.00     0.240 C 
BRANCH  12  13
HETATM   13  O   UNL     1      64.456  11.395   6.512  1.00  0.00    -0.393 OA
HETATM   14  H   UNL     1      64.839  12.253   6.271  1.00  0.00     0.209 HD
ENDBRANCH  12  13
ENDBRANCH   4  12
TORSDOF 2
ENDMDL
MODEL 2
REMARK VINA RESULT:      -4.8      2.013      2.978
REMARK  2 active torsions:
REMARK  status: ('A' for Active; 'I' for Inactive)
REMARK    1  A    between atoms: C_4  and  C_7 
REMARK    2  A    between atoms: C_7  and  O_8 
ROOT
HETATM    1  N   UNL     1      63.001   9.095   5.562  1.00  0.00    -0.342 N 
ATOM      2  HN  UNL     1      63.082   9.508   6.491  1.00  0.00     0.167 HD
HETATM    3  N   UNL     1      63.067   7.663   3.866  1.00  0.00    -0.342 N 
HETATM    4  C   UNL     1      63.266   7.845   5.212  1.00  0.00     0.106 A 
HETATM    5  C   UNL     1      62.592   9.717   4.405  1.00  0.00     0.060 A 
HETATM    6  C   UNL     1      62.625   8.841   3.325  1.00  0.00     0.060 A 
HETATM    7  C   UNL     1      62.160  11.038   4.195  1.00  0.00     0.032 A 
HETATM    8  C   UNL     1      62.261   9.203   2.026  1.00  0.00     0.032 A 
HETATM    9  C   UNL     1      61.834  10.524   1.838  1.00  0.00     0.002 A 
HETATM   10  C   UNL     1      61.783  11.427   2.902  1.00  0.00     0.002 A 
HETATM   11  H   UNL     1      63.216   6.824   3.372  1.00  0.00     0.167 HD
ENDROOT
BRANCH   4  12
HETATM   12  C   UNL     1      63.711   6.739   6.106  1.00  0.00     0.240 C 
BRANCH  12  13
HETATM   13  O   UNL     1      64.292   7.289   7.283  1.00  0.00    -0.393 OA
HETATM   14  H   UNL     1      63.813   8.094   7.533  1.00  0.00     0.209 HD
ENDBRANCH  12  13
ENDBRANCH   4  12
TORSDOF 2
ENDMDL
MODEL 3
REMARK VINA RESULT:      -4.8      1.348      2.528
REMARK  2 active torsions:
REMARK  status: ('A' for Active; 'I' for Inactive)
REMARK    1  A    between atoms: C_4  and  C_7 
REMARK    2  A    between atoms: C_7  and  O_8 
ROOT
HETATM    1  N   UNL     1      62.590   9.742   4.023  1.00  0.00    -0.342 N 
ATOM      2  HN  UNL     1      61.816  10.259   3.606  1.00  0.00     0.167 HD
HETATM    3  N   UNL     1      64.274   9.145   5.341  1.00  0.00    -0.342 N 
HETATM    4  C   UNL     1      63.289  10.070   5.098  1.00  0.00     0.106 A 
HETATM    5  C   UNL     1      63.130   8.553   3.586  1.00  0.00     0.060 A 
HETATM    6  C   UNL     1      64.190   8.157   4.396  1.00  0.00     0.060 A 
HETATM    7  C   UNL     1      62.759   7.737   2.504  1.00  0.00     0.032 A 
HETATM    8  C   UNL     1      64.924   6.987   4.189  1.00  0.00     0.032 A 
HETATM    9  C   UNL     1      64.539   6.188   3.104  1.00  0.00     0.002 A 
HETATM   10  C   UNL     1      63.476   6.554   2.275  1.00  0.00     0.002 A 
HETATM   11  H   UNL     1      64.931   9.184   6.074  1.00  0.00     0.167 HD
ENDROOT
BRANCH   4  12
HETATM   12  C   UNL     1      63.082  11.258   5.975  1.00  0.00     0.240 C 
BRANCH  12  13
HETATM   13  O   UNL     1      64.331  11.661   6.524  1.00  0.00    -0.393 OA
HETATM   14  H   UNL     1      64.199  12.435   7.094  1.00  0.00     0.209 HD
ENDBRANCH  12  13
ENDBRANCH   4  12
TORSDOF 2
ENDMDL
MODEL 4
REMARK VINA RESULT:      -4.7      2.066      2.920
REMARK  2 active torsions:
REMARK  status: ('A' for Active; 'I' for Inactive)
REMARK    1  A    between atoms: C_4  and  C_7 
REMARK    2  A    between atoms: C_7  and  O_8 
ROOT
HETATM    1  N   UNL     1      63.548   7.614   3.803  1.00  0.00    -0.342 N 
ATOM      2  HN  UNL     1      63.709   6.767   3.256  1.00  0.00     0.167 HD
HETATM    3  N   UNL     1      63.482   9.080   5.468  1.00  0.00    -0.342 N 
HETATM    4  C   UNL     1      63.889   7.833   5.064  1.00  0.00     0.106 A 
HETATM    5  C   UNL     1      62.931   8.771   3.385  1.00  0.00     0.060 A 
HETATM    6  C   UNL     1      62.875   9.708   4.412  1.00  0.00     0.060 A 
HETATM    7  C   UNL     1      62.398   9.107   2.129  1.00  0.00     0.032 A 
HETATM    8  C   UNL     1      62.304  10.974   4.271  1.00  0.00     0.032 A 
HETATM    9  C   UNL     1      61.777  11.289   3.011  1.00  0.00     0.002 A 
HETATM   10  C   UNL     1      61.823  10.374   1.957  1.00  0.00     0.002 A 
HETATM   11  H   UNL     1      63.606   9.462   6.368  1.00  0.00     0.167 HD
ENDROOT
BRANCH   4  12
HETATM   12  C   UNL     1      64.622   6.905   5.969  1.00  0.00     0.240 C 
BRANCH  12  13
HETATM   13  O   UNL     1      64.241   7.162   7.316  1.00  0.00    -0.393 OA
HETATM   14  H   UNL     1      65.020   7.430   7.827  1.00  0.00     0.209 HD
ENDBRANCH  12  13
ENDBRANCH   4  12
TORSDOF 2
ENDMDL
MODEL 5
REMARK VINA RESULT:      -4.5      2.327      3.163
REMARK  2 active torsions:
REMARK  status: ('A' for Active; 'I' for Inactive)
REMARK    1  A    between atoms: C_4  and  C_7 
REMARK    2  A    between atoms: C_7  and  O_8 
ROOT
HETATM    1  N   UNL     1      64.546   9.297   5.779  1.00  0.00    -0.342 N 
ATOM      2  HN  UNL     1      64.696   9.956   6.543  1.00  0.00     0.167 HD
HETATM    3  N   UNL     1      64.760   7.575   4.394  1.00  0.00    -0.342 N 
HETATM    4  C   UNL     1      65.233   8.193   5.524  1.00  0.00     0.106 A 
HETATM    5  C   UNL     1      63.587   9.364   4.795  1.00  0.00     0.060 A 
HETATM    6  C   UNL     1      63.699   8.296   3.911  1.00  0.00     0.060 A 
HETATM    7  C   UNL     1      62.565  10.308   4.594  1.00  0.00     0.032 A 
HETATM    8  C   UNL     1      62.854   8.109   2.815  1.00  0.00     0.032 A 
HETATM    9  C   UNL     1      61.844   9.062   2.631  1.00  0.00     0.002 A 
HETATM   10  C   UNL     1      61.699  10.143   3.504  1.00  0.00     0.002 A 
HETATM   11  H   UNL     1      65.122   6.750   3.996  1.00  0.00     0.167 HD
ENDROOT
BRANCH   4  12
HETATM   12  C   UNL     1      66.365   7.638   6.318  1.00  0.00     0.240 C 
BRANCH  12  13
HETATM   13  O   UNL     1      66.912   8.664   7.140  1.00  0.00    -0.393 OA
HETATM   14  H   UNL     1      66.191   9.164   7.554  1.00  0.00     0.209 HD
ENDBRANCH  12  13
ENDBRANCH   4  12
TORSDOF 2
ENDMDL
MODEL 6
REMARK VINA RESULT:      -4.0      5.514      6.697
REMARK  2 active torsions:
REMARK  status: ('A' for Active; 'I' for Inactive)
REMARK    1  A    between atoms: C_4  and  C_7 
REMARK    2  A    between atoms: C_7  and  O_8 
ROOT
HETATM    1  N   UNL     1      65.351   6.286   5.775  1.00  0.00    -0.342 N 
ATOM      2  HN  UNL     1      64.847   5.755   5.065  1.00  0.00     0.167 HD
HETATM    3  N   UNL     1      66.208   7.956   6.961  1.00  0.00    -0.342 N 
HETATM    4  C   UNL     1      65.410   7.603   5.902  1.00  0.00     0.106 A 
HETATM    5  C   UNL     1      66.114   5.787   6.806  1.00  0.00     0.060 A 
HETATM    6  C   UNL     1      66.665   6.813   7.565  1.00  0.00     0.060 A 
HETATM    7  C   UNL     1      66.376   4.455   7.171  1.00  0.00     0.032 A 
HETATM    8  C   UNL     1      67.483   6.598   8.676  1.00  0.00     0.032 A 
HETATM    9  C   UNL     1      67.734   5.264   9.023  1.00  0.00     0.002 A 
HETATM   10  C   UNL     1      67.191   4.209   8.285  1.00  0.00     0.002 A 
HETATM   11  H   UNL     1      66.418   8.876   7.242  1.00  0.00     0.167 HD
ENDROOT
BRANCH   4  12
HETATM   12  C   UNL     1      64.721   8.618   5.056  1.00  0.00     0.240 C 
BRANCH  12  13
HETATM   13  O   UNL     1      64.612   9.839   5.779  1.00  0.00    -0.393 OA
HETATM   14  H   UNL     1      65.489  10.246   5.858  1.00  0.00     0.209 HD
ENDBRANCH  12  13
ENDBRANCH   4  12
TORSDOF 2
ENDMDL
MODEL 7
REMARK VINA RESULT:      -4.0      2.897      3.963
REMARK  2 active torsions:
REMARK  status: ('A' for Active; 'I' for Inactive)
REMARK    1  A    between atoms: C_4  and  C_7 
REMARK    2  A    between atoms: C_7  and  O_8 
ROOT
HETATM    1  N   UNL     1      63.297   8.582   3.657  1.00  0.00    -0.342 N 
ATOM      2  HN  UNL     1      62.712   8.435   2.835  1.00  0.00     0.167 HD
HETATM    3  N   UNL     1      64.200   9.459   5.486  1.00  0.00    -0.342 N 
HETATM    4  C   UNL     1      63.230   9.582   4.523  1.00  0.00     0.106 A 
HETATM    5  C   UNL     1      64.326   7.783   4.103  1.00  0.00     0.060 A 
HETATM    6  C   UNL     1      64.910   8.312   5.249  1.00  0.00     0.060 A 
HETATM    7  C   UNL     1      64.816   6.572   3.586  1.00  0.00     0.032 A 
HETATM    8  C   UNL     1      65.977   7.709   5.920  1.00  0.00     0.032 A 
HETATM    9  C   UNL     1      66.452   6.503   5.388  1.00  0.00     0.002 A 
HETATM   10  C   UNL     1      65.883   5.942   4.242  1.00  0.00     0.002 A 
HETATM   11  H   UNL     1      64.359  10.090   6.226  1.00  0.00     0.167 HD
ENDROOT
BRANCH   4  12
HETATM   12  C   UNL     1      62.255  10.709   4.518  1.00  0.00     0.240 C 
BRANCH  12  13
HETATM   13  O   UNL     1      61.145  10.368   3.695  1.00  0.00    -0.393 OA
HETATM   14  H   UNL     1      61.127  10.949   2.919  1.00  0.00     0.209 HD
ENDBRANCH  12  13
ENDBRANCH   4  12
TORSDOF 2
ENDMDL
MODEL 8
REMARK VINA RESULT:      -4.0     11.740     12.508
REMARK  2 active torsions:
REMARK  status: ('A' for Active; 'I' for Inactive)
REMARK    1  A    between atoms: C_4  and  C_7 
REMARK    2  A    between atoms: C_7  and  O_8 
ROOT
HETATM    1  N   UNL     1      58.240   3.220  11.838  1.00  0.00    -0.342 N 
ATOM      2  HN  UNL     1      57.885   4.105  12.202  1.00  0.00     0.167 HD
HETATM    3  N   UNL     1      58.988   1.638  10.472  1.00  0.00    -0.342 N 
HETATM    4  C   UNL     1      58.580   2.943  10.588  1.00  0.00     0.106 A 
HETATM    5  C   UNL     1      58.468   2.060  12.543  1.00  0.00     0.060 A 
HETATM    6  C   UNL     1      58.936   1.050  11.709  1.00  0.00     0.060 A 
HETATM    7  C   UNL     1      58.310   1.791  13.913  1.00  0.00     0.032 A 
HETATM    8  C   UNL     1      59.252  -0.235  12.155  1.00  0.00     0.032 A 
HETATM    9  C   UNL     1      59.086  -0.483  13.524  1.00  0.00     0.002 A 
HETATM   10  C   UNL     1      58.624   0.510  14.390  1.00  0.00     0.002 A 
HETATM   11  H   UNL     1      59.271   1.196   9.638  1.00  0.00     0.167 HD
ENDROOT
BRANCH   4  12
HETATM   12  C   UNL     1      58.558   3.875   9.426  1.00  0.00     0.240 C 
BRANCH  12  13
HETATM   13  O   UNL     1      58.712   5.212   9.891  1.00  0.00    -0.393 OA
HETATM   14  H   UNL     1      57.887   5.505  10.309  1.00  0.00     0.209 HD
ENDBRANCH  12  13
ENDBRANCH   4  12
TORSDOF 2
ENDMDL
MODEL 9
REMARK VINA RESULT:      -4.0      3.137      4.619
REMARK  2 active torsions:
REMARK  status: ('A' for Active; 'I' for Inactive)
REMARK    1  A    between atoms: C_4  and  C_7 
REMARK    2  A    between atoms: C_7  and  O_8 
ROOT
HETATM    1  N   UNL     1      60.790   9.269   2.722  1.00  0.00    -0.342 N 
ATOM      2  HN  UNL     1      60.105  10.009   2.874  1.00  0.00     0.167 HD
HETATM    3  N   UNL     1      61.846   7.492   1.911  1.00  0.00    -0.342 N 
HETATM    4  C   UNL     1      60.768   8.332   1.785  1.00  0.00     0.106 A 
HETATM    5  C   UNL     1      61.936   9.031   3.447  1.00  0.00     0.060 A 
HETATM    6  C   UNL     1      62.617   7.920   2.960  1.00  0.00     0.060 A 
HETATM    7  C   UNL     1      62.475   9.734   4.538  1.00  0.00     0.032 A 
HETATM    8  C   UNL     1      63.813   7.449   3.503  1.00  0.00     0.032 A 
HETATM    9  C   UNL     1      64.334   8.163   4.591  1.00  0.00     0.002 A 
HETATM   10  C   UNL     1      63.679   9.286   5.100  1.00  0.00     0.002 A 
HETATM   11  H   UNL     1      62.035   6.710   1.342  1.00  0.00     0.167 HD
ENDROOT
BRANCH   4  12
HETATM   12  C   UNL     1      59.751   8.164   0.709  1.00  0.00     0.240 C 
BRANCH  12  13
HETATM   13  O   UNL     1      58.451   8.361   1.255  1.00  0.00    -0.393 OA
HETATM   14  H   UNL     1      58.101   9.214   0.954  1.00  0.00     0.209 HD
ENDBRANCH  12  13
ENDBRANCH   4  12
TORSDOF 2
ENDMDL
