MODEL 1
REMARK VINA RESULT:      -5.3      0.000      0.000
REMARK  2 active torsions:
REMARK  status: ('A' for Active; 'I' for Inactive)
REMARK    1  A    between atoms: C_10  and  C_12 
REMARK    2  A    between atoms: C_12  and  O_13 
ROOT
HETATM    1  C   UNL     1      62.028   9.781   2.874  1.00  0.00     0.067 A 
HETATM    2  S   UNL     1      61.554   8.543   0.859  1.00  0.00     0.068 SA
HETATM    3  C   UNL     1      62.815   8.499   2.915  1.00  0.00     0.067 A 
HETATM    4  N   UNL     1      61.284   9.910   1.765  1.00  0.00    -0.310 N 
ATOM      5  HN  UNL     1      60.675  10.692   1.525  1.00  0.00     0.176 HD
HETATM    6  N   UNL     1      62.624   7.726   1.835  1.00  0.00    -0.310 N 
ATOM      7  HN  UNL     1      63.050   6.818   1.649  1.00  0.00     0.176 HD
HETATM    8  C   UNL     1      62.108  10.718   3.932  1.00  0.00     0.041 A 
HETATM    9  C   UNL     1      63.654   8.200   4.013  1.00  0.00     0.033 A 
HETATM   10  C   UNL     1      62.956  10.384   5.011  1.00  0.00    -0.033 A 
HETATM   11  C   UNL     1      63.698   9.167   5.037  1.00  0.00     0.012 A 
ENDROOT
BRANCH  10  12
HETATM   12  C   UNL     1      63.091  11.348   6.168  1.00  0.00     0.203 C 
BRANCH  12  13
HETATM   13  O   UNL     1      64.461  11.549   6.485  1.00  0.00    -0.396 OA
HETATM   14  H   UNL     1      64.548  11.750   7.429  1.00  0.00     0.209 HD
ENDBRANCH  12  13
ENDBRANCH  10  12
TORSDOF 2
ENDMDL
MODEL 2
REMARK VINA RESULT:      -5.0      0.966      2.067
REMARK  2 active torsions:
REMARK  status: ('A' for Active; 'I' for Inactive)
REMARK    1  A    between atoms: C_10  and  C_12 
REMARK    2  A    between atoms: C_12  and  O_13 
ROOT
HETATM    1  C   UNL     1      62.726   8.747   3.065  1.00  0.00     0.067 A 
HETATM    2  S   UNL     1      62.495   7.404   1.075  1.00  0.00     0.068 SA
HETATM    3  C   UNL     1      62.086   9.594   1.997  1.00  0.00     0.067 A 
HETATM    4  N   UNL     1      62.999   7.499   2.656  1.00  0.00    -0.310 N 
ATOM      5  HN  UNL     1      63.430   6.756   3.206  1.00  0.00     0.176 HD
HETATM    6  N   UNL     1      61.911   8.941   0.838  1.00  0.00    -0.310 N 
ATOM      7  HN  UNL     1      61.501   9.315  -0.018  1.00  0.00     0.176 HD
HETATM    8  C   UNL     1      62.987   9.274   4.352  1.00  0.00     0.041 A 
HETATM    9  C   UNL     1      61.730  10.938   2.257  1.00  0.00     0.033 A 
HETATM   10  C   UNL     1      62.617  10.620   4.573  1.00  0.00    -0.033 A 
HETATM   11  C   UNL     1      62.010  11.411   3.554  1.00  0.00     0.012 A 
ENDROOT
BRANCH  10  12
HETATM   12  C   UNL     1      62.863  11.237   5.931  1.00  0.00     0.203 C 
BRANCH  12  13
HETATM   13  O   UNL     1      64.257  11.367   6.168  1.00  0.00    -0.396 OA
HETATM   14  H   UNL     1      64.475  12.301   6.311  1.00  0.00     0.209 HD
ENDBRANCH  12  13
ENDBRANCH  10  12
TORSDOF 2
ENDMDL
MODEL 3
REMARK VINA RESULT:      -4.5      2.881      3.766
REMARK  2 active torsions:
REMARK  status: ('A' for Active; 'I' for Inactive)
REMARK    1  A    between atoms: C_10  and  C_12 
REMARK    2  A    between atoms: C_12  and  O_13 
ROOT
HETATM    1  C   UNL     1      63.248   8.009   3.922  1.00  0.00     0.067 A 
HETATM    2  S   UNL     1      64.237   6.485   5.508  1.00  0.00     0.068 SA
HETATM    3  C   UNL     1      63.339   8.709   5.252  1.00  0.00     0.067 A 
HETATM    4  N   UNL     1      63.723   6.756   3.951  1.00  0.00    -0.310 N 
ATOM      5  HN  UNL     1      63.761   6.099   3.172  1.00  0.00     0.176 HD
HETATM    6  N   UNL     1      63.877   7.946   6.216  1.00  0.00    -0.310 N 
ATOM      7  HN  UNL     1      64.034   8.209   7.188  1.00  0.00     0.176 HD
HETATM    8  C   UNL     1      62.705   8.665   2.791  1.00  0.00     0.041 A 
HETATM    9  C   UNL     1      62.883  10.039   5.403  1.00  0.00     0.033 A 
HETATM   10  C   UNL     1      62.260   9.992   2.981  1.00  0.00    -0.033 A 
HETATM   11  C   UNL     1      62.354  10.645   4.245  1.00  0.00     0.012 A 
ENDROOT
BRANCH  10  12
HETATM   12  C   UNL     1      61.678  10.749   1.808  1.00  0.00     0.203 C 
BRANCH  12  13
HETATM   13  O   UNL     1      62.083  12.110   1.850  1.00  0.00    -0.396 OA
HETATM   14  H   UNL     1      63.046  12.164   1.754  1.00  0.00     0.209 HD
ENDBRANCH  12  13
ENDBRANCH  10  12
TORSDOF 2
ENDMDL
MODEL 4
REMARK VINA RESULT:      -4.4      1.183      2.441
REMARK  2 active torsions:
REMARK  status: ('A' for Active; 'I' for Inactive)
REMARK    1  A    between atoms: C_10  and  C_12 
REMARK    2  A    between atoms: C_12  and  O_13 
ROOT
HETATM    1  C   UNL     1      62.834   8.209   2.728  1.00  0.00     0.067 A 
HETATM    2  S   UNL     1      61.248   8.650   0.965  1.00  0.00     0.068 SA
HETATM    3  C   UNL     1      62.081   9.465   3.077  1.00  0.00     0.067 A 
HETATM    4  N   UNL     1      62.449   7.668   1.563  1.00  0.00    -0.310 N 
ATOM      5  HN  UNL     1      62.818   6.822   1.130  1.00  0.00     0.176 HD
HETATM    6  N   UNL     1      61.166   9.807   2.156  1.00  0.00    -0.310 N 
ATOM      7  HN  UNL     1      60.545  10.615   2.181  1.00  0.00     0.176 HD
HETATM    8  C   UNL     1      63.838   7.701   3.587  1.00  0.00     0.041 A 
HETATM    9  C   UNL     1      62.359  10.168   4.272  1.00  0.00     0.033 A 
HETATM   10  C   UNL     1      64.087   8.430   4.771  1.00  0.00    -0.033 A 
HETATM   11  C   UNL     1      63.365   9.617   5.091  1.00  0.00     0.012 A 
ENDROOT
BRANCH  10  12
HETATM   12  C   UNL     1      65.142   7.933   5.733  1.00  0.00     0.203 C 
BRANCH  12  13
HETATM   13  O   UNL     1      65.888   9.025   6.252  1.00  0.00    -0.396 OA
HETATM   14  H   UNL     1      65.780   9.795   5.674  1.00  0.00     0.209 HD
ENDBRANCH  12  13
ENDBRANCH  10  12
TORSDOF 2
ENDMDL
MODEL 5
REMARK VINA RESULT:      -4.3      3.070      3.524
REMARK  2 active torsions:
REMARK  status: ('A' for Active; 'I' for Inactive)
REMARK    1  A    between atoms: C_10  and  C_12 
REMARK    2  A    between atoms: C_12  and  O_13 
ROOT
HETATM    1  C   UNL     1      63.897   8.417   5.060  1.00  0.00     0.067 A 
HETATM    2  S   UNL     1      65.148   6.524   5.879  1.00  0.00     0.068 SA
HETATM    3  C   UNL     1      63.870   7.343   4.005  1.00  0.00     0.067 A 
HETATM    4  N   UNL     1      64.587   8.065   6.154  1.00  0.00    -0.310 N 
ATOM      5  HN  UNL     1      64.738   8.630   6.990  1.00  0.00     0.176 HD
HETATM    6  N   UNL     1      64.542   6.236   4.359  1.00  0.00    -0.310 N 
ATOM      7  HN  UNL     1      64.658   5.388   3.804  1.00  0.00     0.176 HD
HETATM    8  C   UNL     1      63.240   9.653   4.856  1.00  0.00     0.041 A 
HETATM    9  C   UNL     1      63.185   7.545   2.784  1.00  0.00     0.033 A 
HETATM   10  C   UNL     1      62.567   9.818   3.624  1.00  0.00    -0.033 A 
HETATM   11  C   UNL     1      62.547   8.793   2.634  1.00  0.00     0.012 A 
ENDROOT
BRANCH  10  12
HETATM   12  C   UNL     1      61.839  11.114   3.351  1.00  0.00     0.203 C 
BRANCH  12  13
HETATM   13  O   UNL     1      62.139  12.070   4.359  1.00  0.00    -0.396 OA
HETATM   14  H   UNL     1      61.937  12.959   4.031  1.00  0.00     0.209 HD
ENDBRANCH  12  13
ENDBRANCH  10  12
TORSDOF 2
ENDMDL
MODEL 6
REMARK VINA RESULT:      -3.9      6.840      7.859
REMARK  2 active torsions:
REMARK  status: ('A' for Active; 'I' for Inactive)
REMARK    1  A    between atoms: C_10  and  C_12 
REMARK    2  A    between atoms: C_12  and  O_13 
ROOT
HETATM    1  C   UNL     1      67.600   4.464   7.009  1.00  0.00     0.067 A 
HETATM    2  S   UNL     1      67.957   2.330   8.075  1.00  0.00     0.068 SA
HETATM    3  C   UNL     1      67.383   4.636   8.488  1.00  0.00     0.067 A 
HETATM    4  N   UNL     1      67.926   3.209   6.665  1.00  0.00    -0.310 N 
ATOM      5  HN  UNL     1      68.117   2.863   5.725  1.00  0.00     0.176 HD
HETATM    6  N   UNL     1      67.556   3.502   9.184  1.00  0.00    -0.310 N 
ATOM      7  HN  UNL     1      67.460   3.382  10.192  1.00  0.00     0.176 HD
HETATM    8  C   UNL     1      67.460   5.557   6.121  1.00  0.00     0.041 A 
HETATM    9  C   UNL     1      67.033   5.896   9.027  1.00  0.00     0.033 A 
HETATM   10  C   UNL     1      67.109   6.799   6.696  1.00  0.00    -0.033 A 
HETATM   11  C   UNL     1      66.908   6.950   8.099  1.00  0.00     0.012 A 
ENDROOT
BRANCH  10  12
HETATM   12  C   UNL     1      66.953   8.007   5.800  1.00  0.00     0.203 C 
BRANCH  12  13
HETATM   13  O   UNL     1      65.825   8.773   6.200  1.00  0.00    -0.396 OA
HETATM   14  H   UNL     1      65.877   9.656   5.803  1.00  0.00     0.209 HD
ENDBRANCH  12  13
ENDBRANCH  10  12
TORSDOF 2
ENDMDL
MODEL 7
REMARK VINA RESULT:      -3.9      2.284      3.036
REMARK  2 active torsions:
REMARK  status: ('A' for Active; 'I' for Inactive)
REMARK    1  A    between atoms: C_10  and  C_12 
REMARK    2  A    between atoms: C_12  and  O_13 
ROOT
HETATM    1  C   UNL     1      63.627   8.730   4.331  1.00  0.00     0.067 A 
HETATM    2  S   UNL     1      61.593   9.044   3.074  1.00  0.00     0.068 SA
HETATM    3  C   UNL     1      63.514   7.609   3.333  1.00  0.00     0.067 A 
HETATM    4  N   UNL     1      62.603   9.594   4.275  1.00  0.00    -0.310 N 
ATOM      5  HN  UNL     1      62.470  10.424   4.853  1.00  0.00     0.176 HD
HETATM    6  N   UNL     1      62.409   7.685   2.575  1.00  0.00    -0.310 N 
ATOM      7  HN  UNL     1      62.126   7.037   1.840  1.00  0.00     0.176 HD
HETATM    8  C   UNL     1      64.731   8.809   5.214  1.00  0.00     0.041 A 
HETATM    9  C   UNL     1      64.509   6.607   3.254  1.00  0.00     0.033 A 
HETATM   10  C   UNL     1      65.703   7.790   5.105  1.00  0.00    -0.033 A 
HETATM   11  C   UNL     1      65.585   6.734   4.155  1.00  0.00     0.012 A 
ENDROOT
BRANCH  10  12
HETATM   12  C   UNL     1      66.910   7.824   6.016  1.00  0.00     0.203 C 
BRANCH  12  13
HETATM   13  O   UNL     1      66.806   8.906   6.930  1.00  0.00    -0.396 OA
HETATM   14  H   UNL     1      65.992   8.816   7.448  1.00  0.00     0.209 HD
ENDBRANCH  12  13
ENDBRANCH  10  12
TORSDOF 2
ENDMDL
MODEL 8
REMARK VINA RESULT:      -3.7      1.706      2.229
REMARK  2 active torsions:
REMARK  status: ('A' for Active; 'I' for Inactive)
REMARK    1  A    between atoms: C_10  and  C_12 
REMARK    2  A    between atoms: C_12  and  O_13 
ROOT
HETATM    1  C   UNL     1      62.311   8.502   2.842  1.00  0.00     0.067 A 
HETATM    2  S   UNL     1      60.729   8.469   1.022  1.00  0.00     0.068 SA
HETATM    3  C   UNL     1      62.632   7.323   1.962  1.00  0.00     0.067 A 
HETATM    4  N   UNL     1      61.261   9.214   2.409  1.00  0.00    -0.310 N 
ATOM      5  HN  UNL     1      60.867  10.048   2.845  1.00  0.00     0.176 HD
HETATM    6  N   UNL     1      61.806   7.208   0.910  1.00  0.00    -0.310 N 
ATOM      7  HN  UNL     1      61.833   6.489   0.187  1.00  0.00     0.176 HD
HETATM    8  C   UNL     1      63.081   8.777   3.998  1.00  0.00     0.041 A 
HETATM    9  C   UNL     1      63.711   6.462   2.269  1.00  0.00     0.033 A 
HETATM   10  C   UNL     1      64.150   7.894   4.272  1.00  0.00    -0.033 A 
HETATM   11  C   UNL     1      64.444   6.783   3.429  1.00  0.00     0.012 A 
ENDROOT
BRANCH  10  12
HETATM   12  C   UNL     1      65.014   8.140   5.488  1.00  0.00     0.203 C 
BRANCH  12  13
HETATM   13  O   UNL     1      65.075   9.530   5.775  1.00  0.00    -0.396 OA
HETATM   14  H   UNL     1      64.228   9.945   5.550  1.00  0.00     0.209 HD
ENDBRANCH  12  13
ENDBRANCH  10  12
TORSDOF 2
ENDMDL
MODEL 9
REMARK VINA RESULT:      -3.7     12.891     13.254
REMARK  2 active torsions:
REMARK  status: ('A' for Active; 'I' for Inactive)
REMARK    1  A    between atoms: C_10  and  C_12 
REMARK    2  A    between atoms: C_12  and  O_13 
ROOT
HETATM    1  C   UNL     1      56.043   1.697  12.498  1.00  0.00     0.067 A 
HETATM    2  S   UNL     1      54.790   0.599  14.242  1.00  0.00     0.068 SA
HETATM    3  C   UNL     1      57.002   1.305  13.590  1.00  0.00     0.067 A 
HETATM    4  N   UNL     1      54.774   1.350  12.759  1.00  0.00    -0.310 N 
ATOM      5  HN  UNL     1      53.961   1.514  12.166  1.00  0.00     0.176 HD
HETATM    6  N   UNL     1      56.406   0.683  14.619  1.00  0.00    -0.310 N 
ATOM      7  HN  UNL     1      56.856   0.332  15.465  1.00  0.00     0.176 HD
HETATM    8  C   UNL     1      56.498   2.364  11.335  1.00  0.00     0.041 A 
HETATM    9  C   UNL     1      58.382   1.593  13.480  1.00  0.00     0.033 A 
HETATM   10  C   UNL     1      57.883   2.635  11.262  1.00  0.00    -0.033 A 
HETATM   11  C   UNL     1      58.781   2.256  12.302  1.00  0.00     0.012 A 
ENDROOT
BRANCH  10  12
HETATM   12  C   UNL     1      58.431   3.337  10.040  1.00  0.00     0.203 C 
BRANCH  12  13
HETATM   13  O   UNL     1      58.642   4.714  10.317  1.00  0.00    -0.396 OA
HETATM   14  H   UNL     1      59.031   5.144   9.541  1.00  0.00     0.209 HD
ENDBRANCH  12  13
ENDBRANCH  10  12
TORSDOF 2
ENDMDL
