MODEL 1
REMARK VINA RESULT:      -4.5      0.000      0.000
REMARK  2 active torsions:
REMARK  status: ('A' for Active; 'I' for Inactive)
REMARK    1  A    between atoms: C_8  and  C_12 
REMARK    2  A    between atoms: C_12  and  N_13 
ROOT
HETATM    1  C   UNL     1      62.954   8.902   3.601  1.00  0.00     0.074 A 
HETATM    2  S   UNL     1      64.178   7.182   4.643  1.00  0.00     0.068 SA
HETATM    3  N   UNL     1      63.372   7.651   3.278  1.00  0.00    -0.310 N 
ATOM      4  HN  UNL     1      63.226   7.132   2.412  1.00  0.00     0.176 HD
HETATM    5  C   UNL     1      63.316   9.354   4.902  1.00  0.00     0.067 A 
HETATM    6  N   UNL     1      64.032   8.481   5.655  1.00  0.00    -0.310 N 
ATOM      7  HN  UNL     1      64.388   8.597   6.603  1.00  0.00     0.176 HD
HETATM    8  C   UNL     1      62.214   9.731   2.740  1.00  0.00    -0.003 A 
HETATM    9  C   UNL     1      61.847  11.011   3.198  1.00  0.00     0.011 A 
HETATM   10  C   UNL     1      62.208  11.449   4.485  1.00  0.00     0.003 A 
HETATM   11  C   UNL     1      62.943  10.621   5.342  1.00  0.00     0.032 A 
ENDROOT
BRANCH   8  12
HETATM   12  C   UNL     1      61.812   9.266   1.362  1.00  0.00     0.270 C 
BRANCH  12  13
HETATM   13  N   UNL     1      60.429   8.799   1.362  1.00  0.00    -0.075 N 
HETATM   14  H   UNL     1      59.917   9.253   2.118  1.00  0.00     0.274 HD
HETATM   15  H   UNL     1      60.413   7.788   1.500  1.00  0.00     0.274 HD
HETATM   16  H   UNL     1      59.993   9.028   0.470  1.00  0.00     0.274 HD
ENDBRANCH  12  13
ENDBRANCH   8  12
TORSDOF 2
ENDMDL
MODEL 2
REMARK VINA RESULT:      -4.5      1.453      3.277
REMARK  2 active torsions:
REMARK  status: ('A' for Active; 'I' for Inactive)
REMARK    1  A    between atoms: C_8  and  C_12 
REMARK    2  A    between atoms: C_12  and  N_13 
ROOT
HETATM    1  C   UNL     1      62.864   8.653   3.347  1.00  0.00     0.074 A 
HETATM    2  S   UNL     1      63.420   6.502   2.568  1.00  0.00     0.068 SA
HETATM    3  N   UNL     1      63.413   7.525   3.867  1.00  0.00    -0.310 N 
ATOM      4  HN  UNL     1      63.738   7.352   4.818  1.00  0.00     0.176 HD
HETATM    5  C   UNL     1      62.511   8.586   1.969  1.00  0.00     0.067 A 
HETATM    6  N   UNL     1      62.766   7.406   1.348  1.00  0.00    -0.310 N 
ATOM      7  HN  UNL     1      62.596   7.144   0.378  1.00  0.00     0.176 HD
HETATM    8  C   UNL     1      62.640   9.829   4.082  1.00  0.00    -0.003 A 
HETATM    9  C   UNL     1      62.058  10.929   3.422  1.00  0.00     0.011 A 
HETATM   10  C   UNL     1      61.714  10.854   2.061  1.00  0.00     0.003 A 
HETATM   11  C   UNL     1      61.940   9.682   1.329  1.00  0.00     0.032 A 
ENDROOT
BRANCH   8  12
HETATM   12  C   UNL     1      63.017   9.924   5.540  1.00  0.00     0.270 C 
BRANCH  12  13
HETATM   13  N   UNL     1      63.311  11.306   5.905  1.00  0.00    -0.075 N 
HETATM   14  H   UNL     1      62.696  11.594   6.666  1.00  0.00     0.274 HD
HETATM   15  H   UNL     1      63.159  11.910   5.097  1.00  0.00     0.274 HD
HETATM   16  H   UNL     1      64.282  11.379   6.206  1.00  0.00     0.274 HD
ENDBRANCH  12  13
ENDBRANCH   8  12
TORSDOF 2
ENDMDL
MODEL 3
REMARK VINA RESULT:      -4.4      1.697      3.497
REMARK  2 active torsions:
REMARK  status: ('A' for Active; 'I' for Inactive)
REMARK    1  A    between atoms: C_8  and  C_12 
REMARK    2  A    between atoms: C_12  and  N_13 
ROOT
HETATM    1  C   UNL     1      62.779   9.067   3.302  1.00  0.00     0.074 A 
HETATM    2  S   UNL     1      61.872   8.756   1.152  1.00  0.00     0.068 SA
HETATM    3  N   UNL     1      62.803   8.098   2.350  1.00  0.00    -0.310 N 
ATOM      4  HN  UNL     1      63.276   7.195   2.369  1.00  0.00     0.176 HD
HETATM    5  C   UNL     1      62.025  10.230   2.976  1.00  0.00     0.067 A 
HETATM    6  N   UNL     1      61.426  10.227   1.758  1.00  0.00    -0.310 N 
ATOM      7  HN  UNL     1      60.849  10.948   1.327  1.00  0.00     0.176 HD
HETATM    8  C   UNL     1      63.437   8.969   4.539  1.00  0.00    -0.003 A 
HETATM    9  C   UNL     1      63.327  10.045   5.441  1.00  0.00     0.011 A 
HETATM   10  C   UNL     1      62.582  11.190   5.111  1.00  0.00     0.003 A 
HETATM   11  C   UNL     1      61.929  11.287   3.876  1.00  0.00     0.032 A 
ENDROOT
BRANCH   8  12
HETATM   12  C   UNL     1      64.249   7.749   4.899  1.00  0.00     0.270 C 
BRANCH  12  13
HETATM   13  N   UNL     1      64.696   7.821   6.287  1.00  0.00    -0.075 N 
HETATM   14  H   UNL     1      64.347   7.010   6.798  1.00  0.00     0.274 HD
HETATM   15  H   UNL     1      64.335   8.674   6.715  1.00  0.00     0.274 HD
HETATM   16  H   UNL     1      65.715   7.831   6.316  1.00  0.00     0.274 HD
ENDBRANCH  12  13
ENDBRANCH   8  12
TORSDOF 2
ENDMDL
MODEL 4
REMARK VINA RESULT:      -4.2      2.152      3.902
REMARK  2 active torsions:
REMARK  status: ('A' for Active; 'I' for Inactive)
REMARK    1  A    between atoms: C_8  and  C_12 
REMARK    2  A    between atoms: C_12  and  N_13 
ROOT
HETATM    1  C   UNL     1      62.393   8.864   3.839  1.00  0.00     0.074 A 
HETATM    2  S   UNL     1      60.715   8.129   2.361  1.00  0.00     0.068 SA
HETATM    3  N   UNL     1      61.186   9.315   3.412  1.00  0.00    -0.310 N 
ATOM      4  HN  UNL     1      60.694  10.169   3.674  1.00  0.00     0.176 HD
HETATM    5  C   UNL     1      62.814   7.620   3.287  1.00  0.00     0.067 A 
HETATM    6  N   UNL     1      61.959   7.042   2.406  1.00  0.00    -0.310 N 
ATOM      7  HN  UNL     1      62.060   6.162   1.901  1.00  0.00     0.176 HD
HETATM    8  C   UNL     1      63.206   9.545   4.761  1.00  0.00    -0.003 A 
HETATM    9  C   UNL     1      64.441   8.968   5.116  1.00  0.00     0.011 A 
HETATM   10  C   UNL     1      64.849   7.740   4.567  1.00  0.00     0.003 A 
HETATM   11  C   UNL     1      64.036   7.060   3.651  1.00  0.00     0.032 A 
ENDROOT
BRANCH   8  12
HETATM   12  C   UNL     1      62.773  10.858   5.364  1.00  0.00     0.270 C 
BRANCH  12  13
HETATM   13  N   UNL     1      63.794  11.365   6.276  1.00  0.00    -0.075 N 
HETATM   14  H   UNL     1      64.647  11.566   5.753  1.00  0.00     0.274 HD
HETATM   15  H   UNL     1      63.991  10.663   6.989  1.00  0.00     0.274 HD
HETATM   16  H   UNL     1      63.459  12.218   6.721  1.00  0.00     0.274 HD
ENDBRANCH  12  13
ENDBRANCH   8  12
TORSDOF 2
ENDMDL
MODEL 5
REMARK VINA RESULT:      -4.2      1.613      2.896
REMARK  2 active torsions:
REMARK  status: ('A' for Active; 'I' for Inactive)
REMARK    1  A    between atoms: C_8  and  C_12 
REMARK    2  A    between atoms: C_12  and  N_13 
ROOT
HETATM    1  C   UNL     1      62.887   8.953   3.476  1.00  0.00     0.074 A 
HETATM    2  S   UNL     1      64.020   7.929   5.267  1.00  0.00     0.068 SA
HETATM    3  N   UNL     1      63.263   9.298   4.735  1.00  0.00    -0.310 N 
ATOM      4  HN  UNL     1      63.116  10.180   5.227  1.00  0.00     0.176 HD
HETATM    5  C   UNL     1      63.245   7.637   3.068  1.00  0.00     0.067 A 
HETATM    6  N   UNL     1      63.914   6.893   3.984  1.00  0.00    -0.310 N 
ATOM      7  HN  UNL     1      64.263   5.938   3.902  1.00  0.00     0.176 HD
HETATM    8  C   UNL     1      62.190   9.805   2.603  1.00  0.00    -0.003 A 
HETATM    9  C   UNL     1      61.855   9.320   1.323  1.00  0.00     0.011 A 
HETATM   10  C   UNL     1      62.213   8.019   0.928  1.00  0.00     0.003 A 
HETATM   11  C   UNL     1      62.910   7.173   1.799  1.00  0.00     0.032 A 
ENDROOT
BRANCH   8  12
HETATM   12  C   UNL     1      61.812  11.207   3.013  1.00  0.00     0.270 C 
BRANCH  12  13
HETATM   13  N   UNL     1      61.807  12.096   1.856  1.00  0.00    -0.075 N 
HETATM   14  H   UNL     1      62.416  11.714   1.132  1.00  0.00     0.274 HD
HETATM   15  H   UNL     1      62.146  13.017   2.134  1.00  0.00     0.274 HD
HETATM   16  H   UNL     1      60.857  12.178   1.494  1.00  0.00     0.274 HD
ENDBRANCH  12  13
ENDBRANCH   8  12
TORSDOF 2
ENDMDL
MODEL 6
REMARK VINA RESULT:      -4.2      2.090      3.144
REMARK  2 active torsions:
REMARK  status: ('A' for Active; 'I' for Inactive)
REMARK    1  A    between atoms: C_8  and  C_12 
REMARK    2  A    between atoms: C_12  and  N_13 
ROOT
HETATM    1  C   UNL     1      62.897   9.580   4.156  1.00  0.00     0.074 A 
HETATM    2  S   UNL     1      63.033  11.074   5.970  1.00  0.00     0.068 SA
HETATM    3  N   UNL     1      63.380   9.553   5.425  1.00  0.00    -0.310 N 
ATOM      4  HN  UNL     1      63.841   8.787   5.917  1.00  0.00     0.176 HD
HETATM    5  C   UNL     1      62.299  10.808   3.753  1.00  0.00     0.067 A 
HETATM    6  N   UNL     1      62.286  11.795   4.684  1.00  0.00    -0.310 N 
ATOM      7  HN  UNL     1      61.911  12.740   4.609  1.00  0.00     0.176 HD
HETATM    8  C   UNL     1      62.964   8.494   3.266  1.00  0.00    -0.003 A 
HETATM    9  C   UNL     1      62.428   8.658   1.973  1.00  0.00     0.011 A 
HETATM   10  C   UNL     1      61.838   9.873   1.584  1.00  0.00     0.003 A 
HETATM   11  C   UNL     1      61.770  10.952   2.473  1.00  0.00     0.032 A 
ENDROOT
BRANCH   8  12
HETATM   12  C   UNL     1      63.584   7.182   3.677  1.00  0.00     0.270 C 
BRANCH  12  13
HETATM   13  N   UNL     1      63.790   6.325   2.514  1.00  0.00    -0.075 N 
HETATM   14  H   UNL     1      62.886   6.010   2.161  1.00  0.00     0.274 HD
HETATM   15  H   UNL     1      64.350   5.517   2.783  1.00  0.00     0.274 HD
HETATM   16  H   UNL     1      64.275   6.850   1.787  1.00  0.00     0.274 HD
ENDBRANCH  12  13
ENDBRANCH   8  12
TORSDOF 2
ENDMDL
MODEL 7
REMARK VINA RESULT:      -4.1      1.983      2.743
REMARK  2 active torsions:
REMARK  status: ('A' for Active; 'I' for Inactive)
REMARK    1  A    between atoms: C_8  and  C_12 
REMARK    2  A    between atoms: C_12  and  N_13 
ROOT
HETATM    1  C   UNL     1      62.657   9.369   3.553  1.00  0.00     0.074 A 
HETATM    2  S   UNL     1      62.848  10.883   5.345  1.00  0.00     0.068 SA
HETATM    3  N   UNL     1      62.124  10.571   3.892  1.00  0.00    -0.310 N 
ATOM      4  HN  UNL     1      61.448  11.138   3.380  1.00  0.00     0.176 HD
HETATM    5  C   UNL     1      63.588   8.825   4.483  1.00  0.00     0.067 A 
HETATM    6  N   UNL     1      63.825   9.573   5.590  1.00  0.00    -0.310 N 
ATOM      7  HN  UNL     1      64.448   9.377   6.373  1.00  0.00     0.176 HD
HETATM    8  C   UNL     1      62.340   8.673   2.374  1.00  0.00    -0.003 A 
HETATM    9  C   UNL     1      62.961   7.429   2.145  1.00  0.00     0.011 A 
HETATM   10  C   UNL     1      63.880   6.901   3.069  1.00  0.00     0.003 A 
HETATM   11  C   UNL     1      64.197   7.597   4.241  1.00  0.00     0.032 A 
ENDROOT
BRANCH   8  12
HETATM   12  C   UNL     1      61.364   9.237   1.371  1.00  0.00     0.270 C 
BRANCH  12  13
HETATM   13  N   UNL     1      60.076   8.556   1.470  1.00  0.00    -0.075 N 
HETATM   14  H   UNL     1      59.948   7.954   0.657  1.00  0.00     0.274 HD
HETATM   15  H   UNL     1      59.329   9.249   1.502  1.00  0.00     0.274 HD
HETATM   16  H   UNL     1      60.054   7.992   2.319  1.00  0.00     0.274 HD
ENDBRANCH  12  13
ENDBRANCH   8  12
TORSDOF 2
ENDMDL
MODEL 8
REMARK VINA RESULT:      -4.1      2.176      3.338
REMARK  2 active torsions:
REMARK  status: ('A' for Active; 'I' for Inactive)
REMARK    1  A    between atoms: C_8  and  C_12 
REMARK    2  A    between atoms: C_12  and  N_13 
ROOT
HETATM    1  C   UNL     1      64.381   8.562   5.021  1.00  0.00     0.074 A 
HETATM    2  S   UNL     1      66.249   7.456   5.933  1.00  0.00     0.068 SA
HETATM    3  N   UNL     1      65.232   8.753   6.062  1.00  0.00    -0.310 N 
ATOM      4  HN  UNL     1      65.241   9.506   6.750  1.00  0.00     0.176 HD
HETATM    5  C   UNL     1      64.632   7.405   4.229  1.00  0.00     0.067 A 
HETATM    6  N   UNL     1      65.685   6.640   4.611  1.00  0.00    -0.310 N 
ATOM      7  HN  UNL     1      66.039   5.782   4.190  1.00  0.00     0.176 HD
HETATM    8  C   UNL     1      63.313   9.420   4.711  1.00  0.00    -0.003 A 
HETATM    9  C   UNL     1      62.501   9.102   3.604  1.00  0.00     0.011 A 
HETATM   10  C   UNL     1      62.756   7.959   2.827  1.00  0.00     0.003 A 
HETATM   11  C   UNL     1      63.823   7.107   3.135  1.00  0.00     0.032 A 
ENDROOT
BRANCH   8  12
HETATM   12  C   UNL     1      63.038  10.655   5.533  1.00  0.00     0.270 C 
BRANCH  12  13
HETATM   13  N   UNL     1      62.356  11.664   4.728  1.00  0.00    -0.075 N 
HETATM   14  H   UNL     1      62.542  12.589   5.116  1.00  0.00     0.274 HD
HETATM   15  H   UNL     1      61.352  11.486   4.740  1.00  0.00     0.274 HD
HETATM   16  H   UNL     1      62.699  11.622   3.769  1.00  0.00     0.274 HD
ENDBRANCH  12  13
ENDBRANCH   8  12
TORSDOF 2
ENDMDL
MODEL 9
REMARK VINA RESULT:      -3.8      2.982      5.261
REMARK  2 active torsions:
REMARK  status: ('A' for Active; 'I' for Inactive)
REMARK    1  A    between atoms: C_8  and  C_12 
REMARK    2  A    between atoms: C_12  and  N_13 
ROOT
HETATM    1  C   UNL     1      64.816   8.293   5.006  1.00  0.00     0.074 A 
HETATM    2  S   UNL     1      62.848   9.554   4.727  1.00  0.00     0.068 SA
HETATM    3  N   UNL     1      64.247   9.379   5.590  1.00  0.00    -0.310 N 
ATOM      4  HN  UNL     1      64.596   9.943   6.365  1.00  0.00     0.176 HD
HETATM    5  C   UNL     1      64.077   7.714   3.935  1.00  0.00     0.067 A 
HETATM    6  N   UNL     1      62.899   8.317   3.633  1.00  0.00    -0.310 N 
ATOM      7  HN  UNL     1      62.220   8.069   2.915  1.00  0.00     0.176 HD
HETATM    8  C   UNL     1      66.050   7.745   5.397  1.00  0.00    -0.003 A 
HETATM    9  C   UNL     1      66.530   6.618   4.702  1.00  0.00     0.011 A 
HETATM   10  C   UNL     1      65.793   6.052   3.647  1.00  0.00     0.003 A 
HETATM   11  C   UNL     1      64.563   6.597   3.261  1.00  0.00     0.032 A 
ENDROOT
BRANCH   8  12
HETATM   12  C   UNL     1      66.843   8.339   6.535  1.00  0.00     0.270 C 
BRANCH  12  13
HETATM   13  N   UNL     1      67.040   7.351   7.592  1.00  0.00    -0.075 N 
HETATM   14  H   UNL     1      67.965   7.474   8.003  1.00  0.00     0.274 HD
HETATM   15  H   UNL     1      66.964   6.413   7.198  1.00  0.00     0.274 HD
HETATM   16  H   UNL     1      66.328   7.477   8.311  1.00  0.00     0.274 HD
ENDBRANCH  12  13
ENDBRANCH   8  12
TORSDOF 2
ENDMDL
