MODEL 1
REMARK VINA RESULT:      -3.6      0.000      0.000
REMARK  2 active torsions:
REMARK  status: ('A' for Active; 'I' for Inactive)
REMARK    1  A    between atoms: C_3  and  C_7 
REMARK    2  A    between atoms: C_7  and  O_8 
ROOT
HETATM    1  N   UNL     1      64.109   9.117   5.341  1.00  0.00    -0.361 N 
ATOM      2  HN  UNL     1      64.789   9.110   6.101  1.00  0.00     0.165 HD
HETATM    3  C   UNL     1      63.224  10.072   5.121  1.00  0.00     0.074 A 
HETATM    4  S   UNL     1      62.207   9.837   3.754  1.00  0.00    -0.085 SA
HETATM    5  C   UNL     1      63.973   8.130   4.384  1.00  0.00     0.096 A 
HETATM    6  C   UNL     1      62.993   8.348   3.438  1.00  0.00     0.068 A 
ENDROOT
BRANCH   3   7
HETATM    7  C   UNL     1      63.087  11.294   5.975  1.00  0.00     0.229 C 
BRANCH   7   8
HETATM    8  O   UNL     1      64.376  11.613   6.498  1.00  0.00    -0.394 OA
HETATM    9  H   UNL     1      64.524  12.569   6.436  1.00  0.00     0.209 HD
ENDBRANCH   7   8
ENDBRANCH   3   7
TORSDOF 2
ENDMDL
MODEL 2
REMARK VINA RESULT:      -3.5      1.559      1.781
REMARK  2 active torsions:
REMARK  status: ('A' for Active; 'I' for Inactive)
REMARK    1  A    between atoms: C_3  and  C_7 
REMARK    2  A    between atoms: C_7  and  O_8 
ROOT
HETATM    1  N   UNL     1      62.086  10.889   3.958  1.00  0.00    -0.361 N 
ATOM      2  HN  UNL     1      61.585  11.774   3.884  1.00  0.00     0.165 HD
HETATM    3  C   UNL     1      62.844  10.527   4.976  1.00  0.00     0.074 A 
HETATM    4  S   UNL     1      63.559   8.967   4.848  1.00  0.00    -0.085 SA
HETATM    5  C   UNL     1      62.073   9.884   3.009  1.00  0.00     0.096 A 
HETATM    6  C   UNL     1      62.814   8.763   3.319  1.00  0.00     0.068 A 
ENDROOT
BRANCH   3   7
HETATM    7  C   UNL     1      63.088  11.383   6.179  1.00  0.00     0.229 C 
BRANCH   7   8
HETATM    8  O   UNL     1      64.495  11.425   6.413  1.00  0.00    -0.394 OA
HETATM    9  H   UNL     1      64.844  12.286   6.135  1.00  0.00     0.209 HD
ENDBRANCH   7   8
ENDBRANCH   3   7
TORSDOF 2
ENDMDL
MODEL 3
REMARK VINA RESULT:      -3.2      1.720      2.470
REMARK  2 active torsions:
REMARK  status: ('A' for Active; 'I' for Inactive)
REMARK    1  A    between atoms: C_3  and  C_7 
REMARK    2  A    between atoms: C_7  and  O_8 
ROOT
HETATM    1  N   UNL     1      63.633  10.320   5.655  1.00  0.00    -0.361 N 
ATOM      2  HN  UNL     1      64.135  10.656   6.477  1.00  0.00     0.165 HD
HETATM    3  C   UNL     1      63.884   9.191   5.019  1.00  0.00     0.074 A 
HETATM    4  S   UNL     1      62.870   8.861   3.669  1.00  0.00    -0.085 SA
HETATM    5  C   UNL     1      62.587  10.978   5.038  1.00  0.00     0.096 A 
HETATM    6  C   UNL     1      62.043  10.337   3.944  1.00  0.00     0.068 A 
ENDROOT
BRANCH   3   7
HETATM    7  C   UNL     1      64.964   8.233   5.416  1.00  0.00     0.229 C 
BRANCH   7   8
HETATM    8  O   UNL     1      65.905   8.940   6.224  1.00  0.00    -0.394 OA
HETATM    9  H   UNL     1      65.734   9.893   6.161  1.00  0.00     0.209 HD
ENDBRANCH   7   8
ENDBRANCH   3   7
TORSDOF 2
ENDMDL
MODEL 4
REMARK VINA RESULT:      -3.1      2.749      3.197
REMARK  2 active torsions:
REMARK  status: ('A' for Active; 'I' for Inactive)
REMARK    1  A    between atoms: C_3  and  C_7 
REMARK    2  A    between atoms: C_7  and  O_8 
ROOT
HETATM    1  N   UNL     1      62.337  11.154   4.362  1.00  0.00    -0.361 N 
ATOM      2  HN  UNL     1      62.057  12.134   4.378  1.00  0.00     0.165 HD
HETATM    3  C   UNL     1      62.249  10.355   3.315  1.00  0.00     0.074 A 
HETATM    4  S   UNL     1      62.809   8.747   3.563  1.00  0.00    -0.085 SA
HETATM    5  C   UNL     1      62.864  10.458   5.433  1.00  0.00     0.096 A 
HETATM    6  C   UNL     1      63.184   9.139   5.188  1.00  0.00     0.068 A 
ENDROOT
BRANCH   3   7
HETATM    7  C   UNL     1      61.711  10.781   1.985  1.00  0.00     0.229 C 
BRANCH   7   8
HETATM    8  O   UNL     1      62.028  12.160   1.803  1.00  0.00    -0.394 OA
HETATM    9  H   UNL     1      62.382  12.296   0.910  1.00  0.00     0.209 HD
ENDBRANCH   7   8
ENDBRANCH   3   7
TORSDOF 2
ENDMDL
MODEL 5
REMARK VINA RESULT:      -3.1     13.141     13.242
REMARK  2 active torsions:
REMARK  status: ('A' for Active; 'I' for Inactive)
REMARK    1  A    between atoms: C_3  and  C_7 
REMARK    2  A    between atoms: C_7  and  O_8 
ROOT
HETATM    1  N   UNL     1      57.666   1.804  14.523  1.00  0.00    -0.361 N 
ATOM      2  HN  UNL     1      57.425   1.646  15.501  1.00  0.00     0.165 HD
HETATM    3  C   UNL     1      56.816   2.168  13.580  1.00  0.00     0.074 A 
HETATM    4  S   UNL     1      57.495   2.381  12.014  1.00  0.00    -0.085 SA
HETATM    5  C   UNL     1      58.930   1.671  13.981  1.00  0.00     0.096 A 
HETATM    6  C   UNL     1      59.032   1.945  12.633  1.00  0.00     0.068 A 
ENDROOT
BRANCH   3   7
HETATM    7  C   UNL     1      55.356   2.395  13.817  1.00  0.00     0.229 C 
BRANCH   7   8
HETATM    8  O   UNL     1      55.219   3.220  14.973  1.00  0.00    -0.394 OA
HETATM    9  H   UNL     1      54.328   3.118  15.341  1.00  0.00     0.209 HD
ENDBRANCH   7   8
ENDBRANCH   3   7
TORSDOF 2
ENDMDL
MODEL 6
REMARK VINA RESULT:      -3.0      4.682      5.235
REMARK  2 active torsions:
REMARK  status: ('A' for Active; 'I' for Inactive)
REMARK    1  A    between atoms: C_3  and  C_7 
REMARK    2  A    between atoms: C_7  and  O_8 
ROOT
HETATM    1  N   UNL     1      67.261   7.555   7.960  1.00  0.00    -0.361 N 
ATOM      2  HN  UNL     1      67.841   8.393   7.964  1.00  0.00     0.165 HD
HETATM    3  C   UNL     1      66.453   7.193   6.980  1.00  0.00     0.074 A 
HETATM    4  S   UNL     1      65.601   5.719   7.229  1.00  0.00    -0.085 SA
HETATM    5  C   UNL     1      67.200   6.623   8.978  1.00  0.00     0.096 A 
HETATM    6  C   UNL     1      66.354   5.556   8.760  1.00  0.00     0.068 A 
ENDROOT
BRANCH   3   7
HETATM    7  C   UNL     1      66.265   7.981   5.721  1.00  0.00     0.229 C 
BRANCH   7   8
HETATM    8  O   UNL     1      65.531   9.161   6.045  1.00  0.00    -0.394 OA
HETATM    9  H   UNL     1      64.691   9.163   5.561  1.00  0.00     0.209 HD
ENDBRANCH   7   8
ENDBRANCH   3   7
TORSDOF 2
ENDMDL
MODEL 7
REMARK VINA RESULT:      -2.9      3.646      4.200
REMARK  2 active torsions:
REMARK  status: ('A' for Active; 'I' for Inactive)
REMARK    1  A    between atoms: C_3  and  C_7 
REMARK    2  A    between atoms: C_7  and  O_8 
ROOT
HETATM    1  N   UNL     1      64.978   7.095   7.068  1.00  0.00    -0.361 N 
ATOM      2  HN  UNL     1      63.993   7.144   7.325  1.00  0.00     0.165 HD
HETATM    3  C   UNL     1      65.527   7.714   6.039  1.00  0.00     0.074 A 
HETATM    4  S   UNL     1      67.219   7.470   5.847  1.00  0.00    -0.085 SA
HETATM    5  C   UNL     1      65.943   6.372   7.743  1.00  0.00     0.096 A 
HETATM    6  C   UNL     1      67.220   6.456   7.228  1.00  0.00     0.068 A 
ENDROOT
BRANCH   3   7
HETATM    7  C   UNL     1      64.766   8.580   5.085  1.00  0.00     0.229 C 
BRANCH   7   8
HETATM    8  O   UNL     1      64.556   9.846   5.710  1.00  0.00    -0.394 OA
HETATM    9  H   UNL     1      65.235   9.989   6.388  1.00  0.00     0.209 HD
ENDBRANCH   7   8
ENDBRANCH   3   7
TORSDOF 2
ENDMDL
MODEL 8
REMARK VINA RESULT:      -2.9      2.026      2.049
REMARK  2 active torsions:
REMARK  status: ('A' for Active; 'I' for Inactive)
REMARK    1  A    between atoms: C_3  and  C_7 
REMARK    2  A    between atoms: C_7  and  O_8 
ROOT
HETATM    1  N   UNL     1      64.201   9.327   5.436  1.00  0.00    -0.361 N 
ATOM      2  HN  UNL     1      64.767  10.068   5.849  1.00  0.00     0.165 HD
HETATM    3  C   UNL     1      63.051   9.506   4.813  1.00  0.00     0.074 A 
HETATM    4  S   UNL     1      62.314   8.079   4.197  1.00  0.00    -0.085 SA
HETATM    5  C   UNL     1      64.521   7.983   5.443  1.00  0.00     0.096 A 
HETATM    6  C   UNL     1      63.616   7.153   4.815  1.00  0.00     0.068 A 
ENDROOT
BRANCH   3   7
HETATM    7  C   UNL     1      62.401  10.842   4.631  1.00  0.00     0.229 C 
BRANCH   7   8
HETATM    8  O   UNL     1      61.267  10.668   3.781  1.00  0.00    -0.394 OA
HETATM    9  H   UNL     1      60.552  10.242   4.278  1.00  0.00     0.209 HD
ENDBRANCH   7   8
ENDBRANCH   3   7
TORSDOF 2
ENDMDL
MODEL 9
REMARK VINA RESULT:      -2.8      1.975      2.130
REMARK  2 active torsions:
REMARK  status: ('A' for Active; 'I' for Inactive)
REMARK    1  A    between atoms: C_3  and  C_7 
REMARK    2  A    between atoms: C_7  and  O_8 
ROOT
HETATM    1  N   UNL     1      61.905   9.837   3.295  1.00  0.00    -0.361 N 
ATOM      2  HN  UNL     1      61.204  10.537   3.053  1.00  0.00     0.165 HD
HETATM    3  C   UNL     1      62.711   9.899   4.339  1.00  0.00     0.074 A 
HETATM    4  S   UNL     1      63.789   8.570   4.520  1.00  0.00    -0.085 SA
HETATM    5  C   UNL     1      62.155   8.680   2.583  1.00  0.00     0.096 A 
HETATM    6  C   UNL     1      63.142   7.866   3.097  1.00  0.00     0.068 A 
ENDROOT
BRANCH   3   7
HETATM    7  C   UNL     1      62.717  11.026   5.322  1.00  0.00     0.229 C 
BRANCH   7   8
HETATM    8  O   UNL     1      62.089  12.151   4.707  1.00  0.00    -0.394 OA
HETATM    9  H   UNL     1      62.699  12.905   4.710  1.00  0.00     0.209 HD
ENDBRANCH   7   8
ENDBRANCH   3   7
TORSDOF 2
ENDMDL
