MODEL 1
REMARK VINA RESULT:      -5.6      0.000      0.000
REMARK  2 active torsions:
REMARK  status: ('A' for Active; 'I' for Inactive)
REMARK    1  A    between atoms: C_2  and  C_6 
REMARK    2  A    between atoms: C_3  and  C_7 
ROOT
HETATM    1  S   UNL     1      64.652   8.333   5.367  1.00  0.00    -0.083 SA
HETATM    2  C   UNL     1      64.405   6.974   6.373  1.00  0.00     0.082 A 
HETATM    3  C   UNL     1      63.043   8.301   4.763  1.00  0.00     0.016 A 
HETATM    4  C   UNL     1      63.124   6.480   6.234  1.00  0.00     0.027 A 
HETATM    5  C   UNL     1      62.345   7.237   5.311  1.00  0.00     0.021 A 
ENDROOT
BRANCH   3   6
HETATM    6  C   UNL     1      62.578   9.300   3.783  1.00  0.00    -0.019 A 
HETATM    7  C   UNL     1      62.290  10.610   4.198  1.00  0.00     0.013 A 
HETATM    8  C   UNL     1      61.866  11.579   3.283  1.00  0.00     0.001 A 
HETATM    9  C   UNL     1      61.724  11.252   1.937  1.00  0.00     0.000 A 
HETATM   10  C   UNL     1      62.007   9.960   1.505  1.00  0.00     0.001 A 
HETATM   11  C   UNL     1      62.432   8.993   2.420  1.00  0.00     0.013 A 
ENDBRANCH   3   6
BRANCH   2  12
HETATM   12  C   UNL     1      65.482   6.507   7.209  1.00  0.00     0.216 C 
HETATM   13  O   UNL     1      65.668   5.395   7.679  1.00  0.00    -0.643 OA
HETATM   14  O   UNL     1      66.375   7.494   7.461  1.00  0.00    -0.643 OA
ENDBRANCH   2  12
TORSDOF 2
ENDMDL
MODEL 2
REMARK VINA RESULT:      -5.2      1.509      2.153
REMARK  2 active torsions:
REMARK  status: ('A' for Active; 'I' for Inactive)
REMARK    1  A    between atoms: C_2  and  C_6 
REMARK    2  A    between atoms: C_3  and  C_7 
ROOT
HETATM    1  S   UNL     1      64.297   6.791   6.582  1.00  0.00    -0.083 SA
HETATM    2  C   UNL     1      65.867   6.754   7.256  1.00  0.00     0.082 A 
HETATM    3  C   UNL     1      64.724   7.970   5.406  1.00  0.00     0.016 A 
HETATM    4  C   UNL     1      66.703   7.647   6.616  1.00  0.00     0.027 A 
HETATM    5  C   UNL     1      66.048   8.345   5.560  1.00  0.00     0.021 A 
ENDROOT
BRANCH   3   6
HETATM    6  C   UNL     1      63.735   8.463   4.430  1.00  0.00    -0.019 A 
HETATM    7  C   UNL     1      63.038   9.657   4.677  1.00  0.00     0.013 A 
HETATM    8  C   UNL     1      62.109  10.153   3.757  1.00  0.00     0.001 A 
HETATM    9  C   UNL     1      61.863   9.463   2.574  1.00  0.00     0.000 A 
HETATM   10  C   UNL     1      62.544   8.279   2.309  1.00  0.00     0.001 A 
HETATM   11  C   UNL     1      63.473   7.785   3.228  1.00  0.00     0.013 A 
ENDBRANCH   3   6
BRANCH   2  12
HETATM   12  C   UNL     1      66.147   5.860   8.350  1.00  0.00     0.216 C 
HETATM   13  O   UNL     1      66.023   4.646   8.407  1.00  0.00    -0.643 OA
HETATM   14  O   UNL     1      66.613   6.532   9.430  1.00  0.00    -0.643 OA
ENDBRANCH   2  12
TORSDOF 2
ENDMDL
MODEL 3
REMARK VINA RESULT:      -4.9      1.682      2.731
REMARK  2 active torsions:
REMARK  status: ('A' for Active; 'I' for Inactive)
REMARK    1  A    between atoms: C_2  and  C_6 
REMARK    2  A    between atoms: C_3  and  C_7 
ROOT
HETATM    1  S   UNL     1      64.628   6.266   6.056  1.00  0.00    -0.083 SA
HETATM    2  C   UNL     1      66.180   6.096   6.750  1.00  0.00     0.082 A 
HETATM    3  C   UNL     1      64.944   7.861   5.500  1.00  0.00     0.016 A 
HETATM    4  C   UNL     1      66.925   7.247   6.589  1.00  0.00     0.027 A 
HETATM    5  C   UNL     1      66.216   8.258   5.877  1.00  0.00     0.021 A 
ENDROOT
BRANCH   3   6
HETATM    6  C   UNL     1      63.924   8.623   4.756  1.00  0.00    -0.019 A 
HETATM    7  C   UNL     1      63.454   8.147   3.520  1.00  0.00     0.013 A 
HETATM    8  C   UNL     1      62.474   8.843   2.805  1.00  0.00     0.001 A 
HETATM    9  C   UNL     1      61.948  10.026   3.316  1.00  0.00     0.000 A 
HETATM   10  C   UNL     1      62.398  10.513   4.539  1.00  0.00     0.001 A 
HETATM   11  C   UNL     1      63.376   9.816   5.253  1.00  0.00     0.013 A 
ENDBRANCH   3   6
BRANCH   2  12
HETATM   12  C   UNL     1      66.537   4.857   7.393  1.00  0.00     0.216 C 
HETATM   13  O   UNL     1      67.221   3.937   6.971  1.00  0.00    -0.643 OA
HETATM   14  O   UNL     1      66.007   4.776   8.637  1.00  0.00    -0.643 OA
ENDBRANCH   2  12
TORSDOF 2
ENDMDL
MODEL 4
REMARK VINA RESULT:      -4.8      3.150      6.097
REMARK  2 active torsions:
REMARK  status: ('A' for Active; 'I' for Inactive)
REMARK    1  A    between atoms: C_2  and  C_6 
REMARK    2  A    between atoms: C_3  and  C_7 
ROOT
HETATM    1  S   UNL     1      63.746   9.160   4.996  1.00  0.00    -0.083 SA
HETATM    2  C   UNL     1      62.849   9.108   3.542  1.00  0.00     0.082 A 
HETATM    3  C   UNL     1      64.488   7.637   4.707  1.00  0.00     0.016 A 
HETATM    4  C   UNL     1      63.086   7.935   2.854  1.00  0.00     0.027 A 
HETATM    5  C   UNL     1      64.021   7.092   3.522  1.00  0.00     0.021 A 
ENDROOT
BRANCH   3   6
HETATM    6  C   UNL     1      65.456   7.069   5.663  1.00  0.00    -0.019 A 
HETATM    7  C   UNL     1      66.802   6.914   5.293  1.00  0.00     0.013 A 
HETATM    8  C   UNL     1      67.741   6.395   6.190  1.00  0.00     0.001 A 
HETATM    9  C   UNL     1      67.349   6.024   7.472  1.00  0.00     0.000 A 
HETATM   10  C   UNL     1      66.021   6.171   7.860  1.00  0.00     0.001 A 
HETATM   11  C   UNL     1      65.083   6.691   6.963  1.00  0.00     0.013 A 
ENDBRANCH   3   6
BRANCH   2  12
HETATM   12  C   UNL     1      61.992  10.214   3.198  1.00  0.00     0.216 C 
HETATM   13  O   UNL     1      61.583  11.123   3.905  1.00  0.00    -0.643 OA
HETATM   14  O   UNL     1      61.635  10.175   1.892  1.00  0.00    -0.643 OA
ENDBRANCH   2  12
TORSDOF 2
ENDMDL
MODEL 5
REMARK VINA RESULT:      -4.8      1.469      1.930
REMARK  2 active torsions:
REMARK  status: ('A' for Active; 'I' for Inactive)
REMARK    1  A    between atoms: C_2  and  C_6 
REMARK    2  A    between atoms: C_3  and  C_7 
ROOT
HETATM    1  S   UNL     1      63.300   6.379   5.292  1.00  0.00    -0.083 SA
HETATM    2  C   UNL     1      64.677   5.974   6.221  1.00  0.00     0.082 A 
HETATM    3  C   UNL     1      63.920   7.925   4.870  1.00  0.00     0.016 A 
HETATM    4  C   UNL     1      65.588   7.011   6.236  1.00  0.00     0.027 A 
HETATM    5  C   UNL     1      65.153   8.128   5.466  1.00  0.00     0.021 A 
ENDROOT
BRANCH   3   6
HETATM    6  C   UNL     1      63.152   8.841   4.006  1.00  0.00    -0.019 A 
HETATM    7  C   UNL     1      62.745  10.093   4.495  1.00  0.00     0.013 A 
HETATM    8  C   UNL     1      62.032  10.986   3.687  1.00  0.00     0.001 A 
HETATM    9  C   UNL     1      61.717  10.640   2.376  1.00  0.00     0.000 A 
HETATM   10  C   UNL     1      62.113   9.405   1.872  1.00  0.00     0.001 A 
HETATM   11  C   UNL     1      62.827   8.515   2.679  1.00  0.00     0.013 A 
ENDBRANCH   3   6
BRANCH   2  12
HETATM   12  C   UNL     1      64.749   4.681   6.855  1.00  0.00     0.216 C 
HETATM   13  O   UNL     1      65.254   4.372   7.923  1.00  0.00    -0.643 OA
HETATM   14  O   UNL     1      64.147   3.729   6.103  1.00  0.00    -0.643 OA
ENDBRANCH   2  12
TORSDOF 2
ENDMDL
MODEL 6
REMARK VINA RESULT:      -4.5      2.111      2.600
REMARK  2 active torsions:
REMARK  status: ('A' for Active; 'I' for Inactive)
REMARK    1  A    between atoms: C_2  and  C_6 
REMARK    2  A    between atoms: C_3  and  C_7 
ROOT
HETATM    1  S   UNL     1      64.076   8.296   4.925  1.00  0.00    -0.083 SA
HETATM    2  C   UNL     1      65.516   7.431   5.238  1.00  0.00     0.082 A 
HETATM    3  C   UNL     1      63.729   7.396   3.502  1.00  0.00     0.016 A 
HETATM    4  C   UNL     1      65.750   6.486   4.259  1.00  0.00     0.027 A 
HETATM    5  C   UNL     1      64.730   6.468   3.264  1.00  0.00     0.021 A 
ENDROOT
BRANCH   3   6
HETATM    6  C   UNL     1      62.519   7.670   2.705  1.00  0.00    -0.019 A 
HETATM    7  C   UNL     1      61.319   7.000   2.996  1.00  0.00     0.013 A 
HETATM    8  C   UNL     1      60.155   7.258   2.266  1.00  0.00     0.001 A 
HETATM    9  C   UNL     1      60.172   8.190   1.233  1.00  0.00     0.000 A 
HETATM   10  C   UNL     1      61.350   8.866   0.930  1.00  0.00     0.001 A 
HETATM   11  C   UNL     1      62.513   8.609   1.661  1.00  0.00     0.013 A 
ENDBRANCH   3   6
BRANCH   2  12
HETATM   12  C   UNL     1      66.293   7.749   6.409  1.00  0.00     0.216 C 
HETATM   13  O   UNL     1      66.883   6.999   7.172  1.00  0.00    -0.643 OA
HETATM   14  O   UNL     1      66.332   9.085   6.627  1.00  0.00    -0.643 OA
ENDBRANCH   2  12
TORSDOF 2
ENDMDL
MODEL 7
REMARK VINA RESULT:      -4.5      2.558      3.541
REMARK  2 active torsions:
REMARK  status: ('A' for Active; 'I' for Inactive)
REMARK    1  A    between atoms: C_2  and  C_6 
REMARK    2  A    between atoms: C_3  and  C_7 
ROOT
HETATM    1  S   UNL     1      62.733   7.531   4.219  1.00  0.00    -0.083 SA
HETATM    2  C   UNL     1      63.637   8.757   4.993  1.00  0.00     0.082 A 
HETATM    3  C   UNL     1      61.663   8.654   3.479  1.00  0.00     0.016 A 
HETATM    4  C   UNL     1      63.119  10.006   4.718  1.00  0.00     0.027 A 
HETATM    5  C   UNL     1      61.987   9.947   3.854  1.00  0.00     0.021 A 
ENDROOT
BRANCH   3   6
HETATM    6  C   UNL     1      60.569   8.196   2.601  1.00  0.00    -0.019 A 
HETATM    7  C   UNL     1      60.659   8.381   1.211  1.00  0.00     0.013 A 
HETATM    8  C   UNL     1      59.643   7.939   0.358  1.00  0.00     0.001 A 
HETATM    9  C   UNL     1      58.521   7.304   0.882  1.00  0.00     0.000 A 
HETATM   10  C   UNL     1      58.414   7.109   2.256  1.00  0.00     0.001 A 
HETATM   11  C   UNL     1      59.430   7.550   3.107  1.00  0.00     0.013 A 
ENDBRANCH   3   6
BRANCH   2  12
HETATM   12  C   UNL     1      64.774   8.394   5.803  1.00  0.00     0.216 C 
HETATM   13  O   UNL     1      65.869   8.929   5.880  1.00  0.00    -0.643 OA
HETATM   14  O   UNL     1      64.511   7.302   6.561  1.00  0.00    -0.643 OA
ENDBRANCH   2  12
TORSDOF 2
ENDMDL
MODEL 8
REMARK VINA RESULT:      -4.4      3.503      5.961
REMARK  2 active torsions:
REMARK  status: ('A' for Active; 'I' for Inactive)
REMARK    1  A    between atoms: C_2  and  C_6 
REMARK    2  A    between atoms: C_3  and  C_7 
ROOT
HETATM    1  S   UNL     1      63.458   7.605   3.126  1.00  0.00    -0.083 SA
HETATM    2  C   UNL     1      62.294   8.810   2.793  1.00  0.00     0.082 A 
HETATM    3  C   UNL     1      63.936   8.338   4.605  1.00  0.00     0.016 A 
HETATM    4  C   UNL     1      62.284   9.777   3.777  1.00  0.00     0.027 A 
HETATM    5  C   UNL     1      63.226   9.509   4.813  1.00  0.00     0.021 A 
ENDROOT
BRANCH   3   6
HETATM    6  C   UNL     1      64.983   7.734   5.450  1.00  0.00    -0.019 A 
HETATM    7  C   UNL     1      64.627   6.951   6.560  1.00  0.00     0.013 A 
HETATM    8  C   UNL     1      65.602   6.354   7.364  1.00  0.00     0.001 A 
HETATM    9  C   UNL     1      66.951   6.529   7.069  1.00  0.00     0.000 A 
HETATM   10  C   UNL     1      67.326   7.300   5.972  1.00  0.00     0.001 A 
HETATM   11  C   UNL     1      66.350   7.895   5.169  1.00  0.00     0.013 A 
ENDBRANCH   3   6
BRANCH   2  12
HETATM   12  C   UNL     1      61.492   8.710   1.599  1.00  0.00     0.216 C 
HETATM   13  O   UNL     1      60.317   8.397   1.482  1.00  0.00    -0.643 OA
HETATM   14  O   UNL     1      62.210   9.025   0.494  1.00  0.00    -0.643 OA
ENDBRANCH   2  12
TORSDOF 2
ENDMDL
MODEL 9
REMARK VINA RESULT:      -4.3      3.160      6.479
REMARK  2 active torsions:
REMARK  status: ('A' for Active; 'I' for Inactive)
REMARK    1  A    between atoms: C_2  and  C_6 
REMARK    2  A    between atoms: C_3  and  C_7 
ROOT
HETATM    1  S   UNL     1      63.765   6.391   5.813  1.00  0.00    -0.083 SA
HETATM    2  C   UNL     1      63.252   7.707   4.851  1.00  0.00     0.082 A 
HETATM    3  C   UNL     1      65.264   7.136   6.205  1.00  0.00     0.016 A 
HETATM    4  C   UNL     1      64.217   8.692   4.802  1.00  0.00     0.027 A 
HETATM    5  C   UNL     1      65.370   8.364   5.574  1.00  0.00     0.021 A 
ENDROOT
BRANCH   3   6
HETATM    6  C   UNL     1      66.240   6.464   7.083  1.00  0.00    -0.019 A 
HETATM    7  C   UNL     1      66.248   6.733   8.461  1.00  0.00     0.013 A 
HETATM    8  C   UNL     1      67.153   6.094   9.315  1.00  0.00     0.001 A 
HETATM    9  C   UNL     1      68.064   5.175   8.803  1.00  0.00     0.000 A 
HETATM   10  C   UNL     1      68.071   4.893   7.440  1.00  0.00     0.001 A 
HETATM   11  C   UNL     1      67.165   5.530   6.588  1.00  0.00     0.013 A 
ENDBRANCH   3   6
BRANCH   2  12
HETATM   12  C   UNL     1      61.954   7.663   4.226  1.00  0.00     0.216 C 
HETATM   13  O   UNL     1      61.543   8.281   3.255  1.00  0.00    -0.643 OA
HETATM   14  O   UNL     1      61.132   6.791   4.857  1.00  0.00    -0.643 OA
ENDBRANCH   2  12
TORSDOF 2
ENDMDL
