MODEL 1
REMARK VINA RESULT:      -4.1      0.000      0.000
REMARK  2 active torsions:
REMARK  status: ('A' for Active; 'I' for Inactive)
REMARK    1  A    between atoms: C_5  and  C_8 
REMARK    2  A    between atoms: N_7  and  C_8 
ROOT
HETATM    1  N   UNL     1      61.562  11.336   2.307  1.00  0.00    -0.264 N 
ATOM      2  HN  UNL     1      61.174  11.860   1.523  1.00  0.00     0.194 HD
HETATM    3  C   UNL     1      62.366   9.655   3.607  1.00  0.00     0.063 A 
HETATM    4  O   UNL     1      61.919  11.834   3.546  1.00  0.00    -0.243 OA
HETATM    5  C   UNL     1      61.830  10.020   2.350  1.00  0.00     0.060 A 
HETATM    6  C   UNL     1      62.403  10.824   4.320  1.00  0.00     0.074 A 
HETATM    7  C   UNL     1      62.840  11.188   5.678  1.00  0.00     0.079 C 
ENDROOT
BRANCH   5   8
HETATM    8  C   UNL     1      61.565   9.147   1.169  1.00  0.00     0.288 C 
BRANCH   8   9
HETATM    9  N   UNL     1      60.177   8.672   1.196  1.00  0.00    -0.074 N 
HETATM   10  H   UNL     1      60.147   7.728   1.581  1.00  0.00     0.274 HD
HETATM   11  H   UNL     1      59.801   8.665   0.247  1.00  0.00     0.274 HD
HETATM   12  H   UNL     1      59.616   9.294   1.778  1.00  0.00     0.274 HD
ENDBRANCH   8   9
ENDBRANCH   5   8
TORSDOF 2
ENDMDL
MODEL 2
REMARK VINA RESULT:      -3.7      2.901      3.422
REMARK  2 active torsions:
REMARK  status: ('A' for Active; 'I' for Inactive)
REMARK    1  A    between atoms: C_5  and  C_8 
REMARK    2  A    between atoms: N_7  and  C_8 
ROOT
HETATM    1  N   UNL     1      63.410  10.305   5.462  1.00  0.00    -0.264 N 
ATOM      2  HN  UNL     1      62.983  11.152   5.837  1.00  0.00     0.194 HD
HETATM    3  C   UNL     1      63.797   8.431   4.236  1.00  0.00     0.063 A 
HETATM    4  O   UNL     1      64.608   9.733   5.847  1.00  0.00    -0.243 OA
HETATM    5  C   UNL     1      62.923   9.513   4.491  1.00  0.00     0.060 A 
HETATM    6  C   UNL     1      64.837   8.614   5.108  1.00  0.00     0.074 A 
HETATM    7  C   UNL     1      66.085   7.885   5.389  1.00  0.00     0.079 C 
ENDROOT
BRANCH   5   8
HETATM    8  C   UNL     1      61.621   9.826   3.830  1.00  0.00     0.288 C 
BRANCH   8   9
HETATM    9  N   UNL     1      61.722  11.091   3.093  1.00  0.00    -0.074 N 
HETATM   10  H   UNL     1      62.576  11.091   2.534  1.00  0.00     0.274 HD
HETATM   11  H   UNL     1      61.747  11.868   3.753  1.00  0.00     0.274 HD
HETATM   12  H   UNL     1      60.914  11.192   2.479  1.00  0.00     0.274 HD
ENDBRANCH   8   9
ENDBRANCH   5   8
TORSDOF 2
ENDMDL
MODEL 3
REMARK VINA RESULT:      -3.6      1.770      3.699
REMARK  2 active torsions:
REMARK  status: ('A' for Active; 'I' for Inactive)
REMARK    1  A    between atoms: C_5  and  C_8 
REMARK    2  A    between atoms: N_7  and  C_8 
ROOT
HETATM    1  N   UNL     1      62.005  11.007   3.476  1.00  0.00    -0.264 N 
ATOM      2  HN  UNL     1      61.803  11.909   3.908  1.00  0.00     0.194 HD
HETATM    3  C   UNL     1      62.672   8.860   3.148  1.00  0.00     0.063 A 
HETATM    4  O   UNL     1      61.776  10.642   2.163  1.00  0.00    -0.243 OA
HETATM    5  C   UNL     1      62.549   9.929   4.066  1.00  0.00     0.060 A 
HETATM    6  C   UNL     1      62.173   9.355   1.972  1.00  0.00     0.074 A 
HETATM    7  C   UNL     1      61.989   8.803   0.619  1.00  0.00     0.079 C 
ENDROOT
BRANCH   5   8
HETATM    8  C   UNL     1      62.934   9.959   5.508  1.00  0.00     0.288 C 
BRANCH   8   9
HETATM    9  N   UNL     1      63.291  11.325   5.905  1.00  0.00    -0.074 N 
HETATM   10  H   UNL     1      62.929  11.985   5.216  1.00  0.00     0.274 HD
HETATM   11  H   UNL     1      64.306  11.410   5.957  1.00  0.00     0.274 HD
HETATM   12  H   UNL     1      62.886  11.531   6.818  1.00  0.00     0.274 HD
ENDBRANCH   8   9
ENDBRANCH   5   8
TORSDOF 2
ENDMDL
MODEL 4
REMARK VINA RESULT:      -3.4      2.975      3.601
REMARK  2 active torsions:
REMARK  status: ('A' for Active; 'I' for Inactive)
REMARK    1  A    between atoms: C_5  and  C_8 
REMARK    2  A    between atoms: N_7  and  C_8 
ROOT
HETATM    1  N   UNL     1      63.136   9.825   5.512  1.00  0.00    -0.264 N 
ATOM      2  HN  UNL     1      63.502   9.844   6.464  1.00  0.00     0.194 HD
HETATM    3  C   UNL     1      62.466   9.118   3.459  1.00  0.00     0.063 A 
HETATM    4  O   UNL     1      62.653  10.895   4.783  1.00  0.00    -0.243 OA
HETATM    5  C   UNL     1      63.024   8.754   4.707  1.00  0.00     0.060 A 
HETATM    6  C   UNL     1      62.250  10.467   3.556  1.00  0.00     0.074 A 
HETATM    7  C   UNL     1      61.697  11.488   2.651  1.00  0.00     0.079 C 
ENDROOT
BRANCH   5   8
HETATM    8  C   UNL     1      63.457   7.402   5.168  1.00  0.00     0.288 C 
BRANCH   8   9
HETATM    9  N   UNL     1      63.618   7.395   6.626  1.00  0.00    -0.074 N 
HETATM   10  H   UNL     1      62.700   7.396   7.070  1.00  0.00     0.274 HD
HETATM   11  H   UNL     1      64.137   8.225   6.915  1.00  0.00     0.274 HD
HETATM   12  H   UNL     1      64.131   6.560   6.908  1.00  0.00     0.274 HD
ENDBRANCH   8   9
ENDBRANCH   5   8
TORSDOF 2
ENDMDL
MODEL 5
REMARK VINA RESULT:      -3.4      3.345      4.517
REMARK  2 active torsions:
REMARK  status: ('A' for Active; 'I' for Inactive)
REMARK    1  A    between atoms: C_5  and  C_8 
REMARK    2  A    between atoms: N_7  and  C_8 
ROOT
HETATM    1  N   UNL     1      63.407   8.746   5.824  1.00  0.00    -0.264 N 
ATOM      2  HN  UNL     1      63.574   8.868   6.822  1.00  0.00     0.194 HD
HETATM    3  C   UNL     1      62.882   9.137   3.648  1.00  0.00     0.063 A 
HETATM    4  O   UNL     1      63.554   7.583   5.090  1.00  0.00    -0.243 OA
HETATM    5  C   UNL     1      62.998   9.680   4.948  1.00  0.00     0.060 A 
HETATM    6  C   UNL     1      63.242   7.823   3.788  1.00  0.00     0.074 A 
HETATM    7  C   UNL     1      63.356   6.683   2.863  1.00  0.00     0.079 C 
ENDROOT
BRANCH   5   8
HETATM    8  C   UNL     1      62.732  11.080   5.394  1.00  0.00     0.288 C 
BRANCH   8   9
HETATM    9  N   UNL     1      63.773  11.517   6.330  1.00  0.00    -0.074 N 
HETATM   10  H   UNL     1      64.097  10.718   6.876  1.00  0.00     0.274 HD
HETATM   11  H   UNL     1      63.392  12.225   6.958  1.00  0.00     0.274 HD
HETATM   12  H   UNL     1      64.556  11.911   5.809  1.00  0.00     0.274 HD
ENDBRANCH   8   9
ENDBRANCH   5   8
TORSDOF 2
ENDMDL
MODEL 6
REMARK VINA RESULT:      -3.4      5.507      6.241
REMARK  2 active torsions:
REMARK  status: ('A' for Active; 'I' for Inactive)
REMARK    1  A    between atoms: C_5  and  C_8 
REMARK    2  A    between atoms: N_7  and  C_8 
ROOT
HETATM    1  N   UNL     1      64.642   7.206   7.012  1.00  0.00    -0.264 N 
ATOM      2  HN  UNL     1      64.560   6.692   7.889  1.00  0.00     0.194 HD
HETATM    3  C   UNL     1      65.481   8.180   5.138  1.00  0.00     0.063 A 
HETATM    4  O   UNL     1      63.622   7.816   6.305  1.00  0.00    -0.243 OA
HETATM    5  C   UNL     1      65.762   7.432   6.305  1.00  0.00     0.060 A 
HETATM    6  C   UNL     1      64.129   8.394   5.182  1.00  0.00     0.074 A 
HETATM    7  C   UNL     1      63.168   9.084   4.306  1.00  0.00     0.079 C 
ENDROOT
BRANCH   5   8
HETATM    8  C   UNL     1      67.081   6.913   6.776  1.00  0.00     0.288 C 
BRANCH   8   9
HETATM    9  N   UNL     1      67.283   7.259   8.187  1.00  0.00    -0.074 N 
HETATM   10  H   UNL     1      66.435   7.689   8.557  1.00  0.00     0.274 HD
HETATM   11  H   UNL     1      68.060   7.915   8.269  1.00  0.00     0.274 HD
HETATM   12  H   UNL     1      67.495   6.415   8.718  1.00  0.00     0.274 HD
ENDBRANCH   8   9
ENDBRANCH   5   8
TORSDOF 2
ENDMDL
MODEL 7
REMARK VINA RESULT:      -3.3      6.406      6.931
REMARK  2 active torsions:
REMARK  status: ('A' for Active; 'I' for Inactive)
REMARK    1  A    between atoms: C_5  and  C_8 
REMARK    2  A    between atoms: N_7  and  C_8 
ROOT
HETATM    1  N   UNL     1      65.031   7.104   7.287  1.00  0.00    -0.264 N 
ATOM      2  HN  UNL     1      64.027   7.277   7.333  1.00  0.00     0.194 HD
HETATM    3  C   UNL     1      67.193   7.046   6.589  1.00  0.00     0.063 A 
HETATM    4  O   UNL     1      65.811   6.463   8.232  1.00  0.00    -0.243 OA
HETATM    5  C   UNL     1      65.870   7.451   6.296  1.00  0.00     0.060 A 
HETATM    6  C   UNL     1      67.105   6.433   7.810  1.00  0.00     0.074 A 
HETATM    7  C   UNL     1      68.075   5.789   8.711  1.00  0.00     0.079 C 
ENDROOT
BRANCH   5   8
HETATM    8  C   UNL     1      65.369   8.172   5.088  1.00  0.00     0.288 C 
BRANCH   8   9
HETATM    9  N   UNL     1      64.358   9.162   5.476  1.00  0.00    -0.074 N 
HETATM   10  H   UNL     1      64.203   9.810   4.703  1.00  0.00     0.274 HD
HETATM   11  H   UNL     1      64.683   9.678   6.293  1.00  0.00     0.274 HD
HETATM   12  H   UNL     1      63.484   8.686   5.700  1.00  0.00     0.274 HD
ENDBRANCH   8   9
ENDBRANCH   5   8
TORSDOF 2
ENDMDL
MODEL 8
REMARK VINA RESULT:      -3.1      8.375      8.937
REMARK  2 active torsions:
REMARK  status: ('A' for Active; 'I' for Inactive)
REMARK    1  A    between atoms: C_5  and  C_8 
REMARK    2  A    between atoms: N_7  and  C_8 
ROOT
HETATM    1  N   UNL     1      66.091   6.078   8.201  1.00  0.00    -0.264 N 
ATOM      2  HN  UNL     1      65.303   6.711   8.339  1.00  0.00     0.194 HD
HETATM    3  C   UNL     1      67.992   5.122   7.404  1.00  0.00     0.063 A 
HETATM    4  O   UNL     1      66.371   4.928   8.915  1.00  0.00    -0.243 OA
HETATM    5  C   UNL     1      67.071   6.189   7.288  1.00  0.00     0.060 A 
HETATM    6  C   UNL     1      67.511   4.361   8.436  1.00  0.00     0.074 A 
HETATM    7  C   UNL     1      67.958   3.123   9.097  1.00  0.00     0.079 C 
ENDROOT
BRANCH   5   8
HETATM    8  C   UNL     1      67.094   7.330   6.325  1.00  0.00     0.288 C 
BRANCH   8   9
HETATM    9  N   UNL     1      66.838   8.590   7.032  1.00  0.00    -0.074 N 
HETATM   10  H   UNL     1      65.833   8.765   7.062  1.00  0.00     0.274 HD
HETATM   11  H   UNL     1      67.302   9.355   6.543  1.00  0.00     0.274 HD
HETATM   12  H   UNL     1      67.200   8.526   7.984  1.00  0.00     0.274 HD
ENDBRANCH   8   9
ENDBRANCH   5   8
TORSDOF 2
ENDMDL
MODEL 9
REMARK VINA RESULT:      -3.1     14.290     14.719
REMARK  2 active torsions:
REMARK  status: ('A' for Active; 'I' for Inactive)
REMARK    1  A    between atoms: C_5  and  C_8 
REMARK    2  A    between atoms: N_7  and  C_8 
ROOT
HETATM    1  N   UNL     1      56.926   1.022  14.454  1.00  0.00    -0.264 N 
ATOM      2  HN  UNL     1      56.250   0.738  15.163  1.00  0.00     0.194 HD
HETATM    3  C   UNL     1      57.928   2.092  12.717  1.00  0.00     0.063 A 
HETATM    4  O   UNL     1      58.192   0.504  14.253  1.00  0.00    -0.243 OA
HETATM    5  C   UNL     1      56.770   1.978  13.522  1.00  0.00     0.060 A 
HETATM    6  C   UNL     1      58.788   1.150  13.214  1.00  0.00     0.074 A 
HETATM    7  C   UNL     1      60.155   0.722  12.872  1.00  0.00     0.079 C 
ENDROOT
BRANCH   5   8
HETATM    8  C   UNL     1      55.503   2.763  13.436  1.00  0.00     0.288 C 
BRANCH   8   9
HETATM    9  N   UNL     1      54.976   3.018  14.782  1.00  0.00    -0.074 N 
HETATM   10  H   UNL     1      54.866   4.023  14.919  1.00  0.00     0.274 HD
HETATM   11  H   UNL     1      55.625   2.648  15.477  1.00  0.00     0.274 HD
HETATM   12  H   UNL     1      54.071   2.560  14.885  1.00  0.00     0.274 HD
ENDBRANCH   8   9
ENDBRANCH   5   8
TORSDOF 2
ENDMDL
