MODEL 1
REMARK VINA RESULT:      -5.3      0.000      0.000
REMARK  3 active torsions:
REMARK  status: ('A' for Active; 'I' for Inactive)
REMARK    1  A    between atoms: C_1  and  C_7 
REMARK    2  A    between atoms: CA_2  and  C_8 
REMARK    3  A    between atoms: C_8  and  O_9 
ROOT
HETATM    1  C   UNL     1      62.833   8.136   4.806  1.00  0.00     0.111 A 
HETATM    2  CA  UNL     1      63.978   7.674   5.437  1.00  0.00     0.069 A 
HETATM    3  N   UNL     1      63.658   6.632   6.295  1.00  0.00    -0.346 N 
ATOM      4  HN  UNL     1      64.279   6.097   6.902  1.00  0.00     0.167 HD
HETATM    5  C   UNL     1      62.360   6.500   6.136  1.00  0.00     0.234 A 
HETATM    6  O   UNL     1      61.790   7.366   5.259  1.00  0.00    -0.303 OA
ENDROOT
BRANCH   1   7
HETATM    7  C   UNL     1      62.516   9.169   3.830  1.00  0.00    -0.000 A 
HETATM    8  C   UNL     1      62.264  10.488   4.235  1.00  0.00     0.014 A 
HETATM    9  C   UNL     1      61.893  11.465   3.305  1.00  0.00     0.001 A 
HETATM   10  C   UNL     1      61.774  11.137   1.956  1.00  0.00     0.000 A 
HETATM   11  C   UNL     1      62.044   9.839   1.534  1.00  0.00     0.001 A 
HETATM   12  C   UNL     1      62.421   8.866   2.464  1.00  0.00     0.014 A 
ENDBRANCH   1   7
BRANCH   2  13
HETATM   13  C   UNL     1      65.390   8.125   5.293  1.00  0.00     0.224 C 
BRANCH  13  14
HETATM   14  O   UNL     1      65.712   9.176   6.201  1.00  0.00    -0.395 OA
HETATM   15  H   UNL     1      66.246   9.846   5.744  1.00  0.00     0.209 HD
ENDBRANCH  13  14
ENDBRANCH   2  13
TORSDOF 3
ENDMDL
MODEL 2
REMARK VINA RESULT:      -5.2      1.064      2.739
REMARK  3 active torsions:
REMARK  status: ('A' for Active; 'I' for Inactive)
REMARK    1  A    between atoms: C_1  and  C_7 
REMARK    2  A    between atoms: CA_2  and  C_8 
REMARK    3  A    between atoms: C_8  and  O_9 
ROOT
HETATM    1  C   UNL     1      64.156   8.469   5.438  1.00  0.00     0.111 A 
HETATM    2  CA  UNL     1      64.047   7.257   6.103  1.00  0.00     0.069 A 
HETATM    3  N   UNL     1      65.231   6.975   6.770  1.00  0.00    -0.346 N 
ATOM      4  HN  UNL     1      65.461   6.157   7.334  1.00  0.00     0.167 HD
HETATM    5  C   UNL     1      65.984   8.017   6.498  1.00  0.00     0.234 A 
HETATM    6  O   UNL     1      65.410   8.959   5.705  1.00  0.00    -0.303 OA
ENDROOT
BRANCH   1   7
HETATM    7  C   UNL     1      63.293   9.286   4.597  1.00  0.00    -0.000 A 
HETATM    8  C   UNL     1      62.908   8.847   3.322  1.00  0.00     0.014 A 
HETATM    9  C   UNL     1      62.135   9.660   2.486  1.00  0.00     0.001 A 
HETATM   10  C   UNL     1      61.732  10.922   2.917  1.00  0.00     0.000 A 
HETATM   11  C   UNL     1      62.085  11.364   4.189  1.00  0.00     0.001 A 
HETATM   12  C   UNL     1      62.852  10.547   5.025  1.00  0.00     0.014 A 
ENDBRANCH   1   7
BRANCH   2  13
HETATM   13  C   UNL     1      62.894   6.318   6.185  1.00  0.00     0.224 C 
BRANCH  13  14
HETATM   14  O   UNL     1      61.793   6.883   6.893  1.00  0.00    -0.395 OA
HETATM   15  H   UNL     1      60.971   6.705   6.409  1.00  0.00     0.209 HD
ENDBRANCH  13  14
ENDBRANCH   2  13
TORSDOF 3
ENDMDL
MODEL 3
REMARK VINA RESULT:      -5.1      2.154      3.021
REMARK  3 active torsions:
REMARK  status: ('A' for Active; 'I' for Inactive)
REMARK    1  A    between atoms: C_1  and  C_7 
REMARK    2  A    between atoms: CA_2  and  C_8 
REMARK    3  A    between atoms: C_8  and  O_9 
ROOT
HETATM    1  C   UNL     1      62.396   9.926   4.036  1.00  0.00     0.111 A 
HETATM    2  CA  UNL     1      63.425   9.751   4.949  1.00  0.00     0.069 A 
HETATM    3  N   UNL     1      63.502  10.850   5.792  1.00  0.00    -0.346 N 
ATOM      4  HN  UNL     1      64.159  11.019   6.554  1.00  0.00     0.167 HD
HETATM    5  C   UNL     1      62.524  11.620   5.372  1.00  0.00     0.234 A 
HETATM    6  O   UNL     1      61.812  11.136   4.321  1.00  0.00    -0.303 OA
ENDROOT
BRANCH   1   7
HETATM    7  C   UNL     1      61.827   9.162   2.936  1.00  0.00    -0.000 A 
HETATM    8  C   UNL     1      60.846   8.187   3.169  1.00  0.00     0.014 A 
HETATM    9  C   UNL     1      60.348   7.406   2.121  1.00  0.00     0.001 A 
HETATM   10  C   UNL     1      60.820   7.592   0.824  1.00  0.00     0.000 A 
HETATM   11  C   UNL     1      61.776   8.572   0.571  1.00  0.00     0.001 A 
HETATM   12  C   UNL     1      62.268   9.356   1.618  1.00  0.00     0.014 A 
ENDBRANCH   1   7
BRANCH   2  13
HETATM   13  C   UNL     1      64.362   8.605   5.116  1.00  0.00     0.224 C 
BRANCH  13  14
HETATM   14  O   UNL     1      65.508   8.958   5.887  1.00  0.00    -0.395 OA
HETATM   15  H   UNL     1      65.496   9.912   6.067  1.00  0.00     0.209 HD
ENDBRANCH  13  14
ENDBRANCH   2  13
TORSDOF 3
ENDMDL
MODEL 4
REMARK VINA RESULT:      -5.1      2.189      4.607
REMARK  3 active torsions:
REMARK  status: ('A' for Active; 'I' for Inactive)
REMARK    1  A    between atoms: C_1  and  C_7 
REMARK    2  A    between atoms: CA_2  and  C_8 
REMARK    3  A    between atoms: C_8  and  O_9 
ROOT
HETATM    1  C   UNL     1      63.270   9.265   4.578  1.00  0.00     0.111 A 
HETATM    2  CA  UNL     1      62.823  10.534   4.912  1.00  0.00     0.069 A 
HETATM    3  N   UNL     1      62.053  11.051   3.881  1.00  0.00    -0.346 N 
ATOM      4  HN  UNL     1      61.597  11.962   3.827  1.00  0.00     0.167 HD
HETATM    5  C   UNL     1      62.054  10.085   2.991  1.00  0.00     0.234 A 
HETATM    6  O   UNL     1      62.762   8.978   3.335  1.00  0.00    -0.303 OA
ENDROOT
BRANCH   1   7
HETATM    7  C   UNL     1      64.084   8.237   5.211  1.00  0.00    -0.000 A 
HETATM    8  C   UNL     1      63.489   7.195   5.936  1.00  0.00     0.014 A 
HETATM    9  C   UNL     1      64.272   6.246   6.602  1.00  0.00     0.001 A 
HETATM   10  C   UNL     1      65.662   6.323   6.545  1.00  0.00     0.000 A 
HETATM   11  C   UNL     1      66.269   7.337   5.810  1.00  0.00     0.001 A 
HETATM   12  C   UNL     1      65.485   8.280   5.141  1.00  0.00     0.014 A 
ENDBRANCH   1   7
BRANCH   2  13
HETATM   13  C   UNL     1      63.047  11.323   6.155  1.00  0.00     0.224 C 
BRANCH  13  14
HETATM   14  O   UNL     1      64.434  11.534   6.413  1.00  0.00    -0.395 OA
HETATM   15  H   UNL     1      64.697  11.031   7.200  1.00  0.00     0.209 HD
ENDBRANCH  13  14
ENDBRANCH   2  13
TORSDOF 3
ENDMDL
MODEL 5
REMARK VINA RESULT:      -5.0      1.988      2.630
REMARK  3 active torsions:
REMARK  status: ('A' for Active; 'I' for Inactive)
REMARK    1  A    between atoms: C_1  and  C_7 
REMARK    2  A    between atoms: CA_2  and  C_8 
REMARK    3  A    between atoms: C_8  and  O_9 
ROOT
HETATM    1  C   UNL     1      63.388   8.531   4.138  1.00  0.00     0.111 A 
HETATM    2  CA  UNL     1      63.802   9.419   5.119  1.00  0.00     0.069 A 
HETATM    3  N   UNL     1      64.935   8.930   5.753  1.00  0.00    -0.346 N 
ATOM      4  HN  UNL     1      65.463   9.349   6.519  1.00  0.00     0.167 HD
HETATM    5  C   UNL     1      65.162   7.796   5.129  1.00  0.00     0.234 A 
HETATM    6  O   UNL     1      64.278   7.485   4.146  1.00  0.00    -0.303 OA
ENDROOT
BRANCH   1   7
HETATM    7  C   UNL     1      62.310   8.472   3.162  1.00  0.00    -0.000 A 
HETATM    8  C   UNL     1      61.103   7.823   3.462  1.00  0.00     0.014 A 
HETATM    9  C   UNL     1      60.093   7.707   2.502  1.00  0.00     0.001 A 
HETATM   10  C   UNL     1      60.273   8.244   1.229  1.00  0.00     0.000 A 
HETATM   11  C   UNL     1      61.455   8.912   0.922  1.00  0.00     0.001 A 
HETATM   12  C   UNL     1      62.460   9.033   1.885  1.00  0.00     0.014 A 
ENDBRANCH   1   7
BRANCH   2  13
HETATM   13  C   UNL     1      63.223  10.732   5.517  1.00  0.00     0.224 C 
BRANCH  13  14
HETATM   14  O   UNL     1      64.137  11.510   6.286  1.00  0.00    -0.395 OA
HETATM   15  H   UNL     1      63.760  12.391   6.443  1.00  0.00     0.209 HD
ENDBRANCH  13  14
ENDBRANCH   2  13
TORSDOF 3
ENDMDL
MODEL 6
REMARK VINA RESULT:      -4.9      2.220      3.083
REMARK  3 active torsions:
REMARK  status: ('A' for Active; 'I' for Inactive)
REMARK    1  A    between atoms: C_1  and  C_7 
REMARK    2  A    between atoms: CA_2  and  C_8 
REMARK    3  A    between atoms: C_8  and  O_9 
ROOT
HETATM    1  C   UNL     1      65.480   7.604   5.976  1.00  0.00     0.111 A 
HETATM    2  CA  UNL     1      66.863   7.549   6.062  1.00  0.00     0.069 A 
HETATM    3  N   UNL     1      67.240   7.055   7.302  1.00  0.00    -0.346 N 
ATOM      4  HN  UNL     1      68.182   6.909   7.666  1.00  0.00     0.167 HD
HETATM    5  C   UNL     1      66.091   6.822   7.895  1.00  0.00     0.234 A 
HETATM    6  O   UNL     1      64.987   7.125   7.164  1.00  0.00    -0.303 OA
ENDROOT
BRANCH   1   7
HETATM    7  C   UNL     1      64.506   8.011   4.973  1.00  0.00    -0.000 A 
HETATM    8  C   UNL     1      63.766   9.192   5.128  1.00  0.00     0.014 A 
HETATM    9  C   UNL     1      62.782   9.548   4.200  1.00  0.00     0.001 A 
HETATM   10  C   UNL     1      62.528   8.731   3.101  1.00  0.00     0.000 A 
HETATM   11  C   UNL     1      63.270   7.567   2.920  1.00  0.00     0.001 A 
HETATM   12  C   UNL     1      64.257   7.216   3.844  1.00  0.00     0.014 A 
ENDBRANCH   1   7
BRANCH   2  13
HETATM   13  C   UNL     1      67.893   7.914   5.050  1.00  0.00     0.224 C 
BRANCH  13  14
HETATM   14  O   UNL     1      67.773   7.139   3.860  1.00  0.00    -0.395 OA
HETATM   15  H   UNL     1      68.589   6.631   3.721  1.00  0.00     0.209 HD
ENDBRANCH  13  14
ENDBRANCH   2  13
TORSDOF 3
ENDMDL
MODEL 7
REMARK VINA RESULT:      -4.5      2.463      4.943
REMARK  3 active torsions:
REMARK  status: ('A' for Active; 'I' for Inactive)
REMARK    1  A    between atoms: C_1  and  C_7 
REMARK    2  A    between atoms: CA_2  and  C_8 
REMARK    3  A    between atoms: C_8  and  O_9 
ROOT
HETATM    1  C   UNL     1      62.661   9.700   4.229  1.00  0.00     0.111 A 
HETATM    2  CA  UNL     1      62.000   9.808   3.015  1.00  0.00     0.069 A 
HETATM    3  N   UNL     1      61.525  11.100   2.848  1.00  0.00    -0.346 N 
ATOM      4  HN  UNL     1      60.992  11.484   2.067  1.00  0.00     0.167 HD
HETATM    5  C   UNL     1      61.926  11.711   3.941  1.00  0.00     0.234 A 
HETATM    6  O   UNL     1      62.615  10.938   4.819  1.00  0.00    -0.303 OA
ENDROOT
BRANCH   1   7
HETATM    7  C   UNL     1      63.357   8.648   4.955  1.00  0.00    -0.000 A 
HETATM    8  C   UNL     1      62.646   7.598   5.556  1.00  0.00     0.014 A 
HETATM    9  C   UNL     1      63.308   6.624   6.311  1.00  0.00     0.001 A 
HETATM   10  C   UNL     1      64.690   6.683   6.472  1.00  0.00     0.000 A 
HETATM   11  C   UNL     1      65.413   7.705   5.863  1.00  0.00     0.001 A 
HETATM   12  C   UNL     1      64.751   8.673   5.103  1.00  0.00     0.014 A 
ENDBRANCH   1   7
BRANCH   2  13
HETATM   13  C   UNL     1      61.779   8.781   1.958  1.00  0.00     0.224 C 
BRANCH  13  14
HETATM   14  O   UNL     1      60.520   8.942   1.310  1.00  0.00    -0.395 OA
HETATM   15  H   UNL     1      60.267   9.879   1.321  1.00  0.00     0.209 HD
ENDBRANCH  13  14
ENDBRANCH   2  13
TORSDOF 3
ENDMDL
MODEL 8
REMARK VINA RESULT:      -4.4      2.437      5.225
REMARK  3 active torsions:
REMARK  status: ('A' for Active; 'I' for Inactive)
REMARK    1  A    between atoms: C_1  and  C_7 
REMARK    2  A    between atoms: CA_2  and  C_8 
REMARK    3  A    between atoms: C_8  and  O_9 
ROOT
HETATM    1  C   UNL     1      64.451   8.737   5.138  1.00  0.00     0.111 A 
HETATM    2  CA  UNL     1      63.465   8.717   4.164  1.00  0.00     0.069 A 
HETATM    3  N   UNL     1      62.689   9.863   4.253  1.00  0.00    -0.346 N 
ATOM      4  HN  UNL     1      61.885  10.130   3.684  1.00  0.00     0.167 HD
HETATM    5  C   UNL     1      63.240  10.523   5.248  1.00  0.00     0.234 A 
HETATM    6  O   UNL     1      64.304   9.913   5.831  1.00  0.00    -0.303 OA
ENDROOT
BRANCH   1   7
HETATM    7  C   UNL     1      65.540   7.862   5.548  1.00  0.00    -0.000 A 
HETATM    8  C   UNL     1      65.394   6.999   6.645  1.00  0.00     0.014 A 
HETATM    9  C   UNL     1      66.462   6.208   7.082  1.00  0.00     0.001 A 
HETATM   10  C   UNL     1      67.688   6.263   6.423  1.00  0.00     0.000 A 
HETATM   11  C   UNL     1      67.842   7.095   5.318  1.00  0.00     0.001 A 
HETATM   12  C   UNL     1      66.773   7.881   4.880  1.00  0.00     0.014 A 
ENDBRANCH   1   7
BRANCH   2  13
HETATM   13  C   UNL     1      63.184   7.696   3.117  1.00  0.00     0.224 C 
BRANCH  13  14
HETATM   14  O   UNL     1      62.662   8.280   1.926  1.00  0.00    -0.395 OA
HETATM   15  H   UNL     1      63.216   8.025   1.170  1.00  0.00     0.209 HD
ENDBRANCH  13  14
ENDBRANCH   2  13
TORSDOF 3
ENDMDL
MODEL 9
REMARK VINA RESULT:      -4.4      1.567      2.220
REMARK  3 active torsions:
REMARK  status: ('A' for Active; 'I' for Inactive)
REMARK    1  A    between atoms: C_1  and  C_7 
REMARK    2  A    between atoms: CA_2  and  C_8 
REMARK    3  A    between atoms: C_8  and  O_9 
ROOT
HETATM    1  C   UNL     1      61.620   7.221   4.035  1.00  0.00     0.111 A 
HETATM    2  CA  UNL     1      62.354   6.589   5.027  1.00  0.00     0.069 A 
HETATM    3  N   UNL     1      61.774   5.368   5.340  1.00  0.00    -0.346 N 
ATOM      4  HN  UNL     1      62.075   4.683   6.033  1.00  0.00     0.167 HD
HETATM    5  C   UNL     1      60.743   5.308   4.527  1.00  0.00     0.234 A 
HETATM    6  O   UNL     1      60.583   6.382   3.711  1.00  0.00    -0.303 OA
ENDROOT
BRANCH   1   7
HETATM    7  C   UNL     1      61.708   8.476   3.302  1.00  0.00    -0.000 A 
HETATM    8  C   UNL     1      61.826   8.485   1.904  1.00  0.00     0.014 A 
HETATM    9  C   UNL     1      61.979   9.686   1.205  1.00  0.00     0.001 A 
HETATM   10  C   UNL     1      62.009  10.897   1.894  1.00  0.00     0.000 A 
HETATM   11  C   UNL     1      61.869  10.908   3.279  1.00  0.00     0.001 A 
HETATM   12  C   UNL     1      61.710   9.707   3.975  1.00  0.00     0.014 A 
ENDBRANCH   1   7
BRANCH   2  13
HETATM   13  C   UNL     1      63.596   7.033   5.719  1.00  0.00     0.224 C 
BRANCH  13  14
HETATM   14  O   UNL     1      63.318   7.662   6.968  1.00  0.00    -0.395 OA
HETATM   15  H   UNL     1      63.572   7.068   7.693  1.00  0.00     0.209 HD
ENDBRANCH  13  14
ENDBRANCH   2  13
TORSDOF 3
ENDMDL
