MODEL 1
REMARK VINA RESULT:      -4.1      0.000      0.000
REMARK  2 active torsions:
REMARK  status: ('A' for Active; 'I' for Inactive)
REMARK    1  A    between atoms: C_5  and  C_7 
REMARK    2  A    between atoms: C_7  and  O_8 
ROOT
HETATM    1  N   UNL     1      63.362   9.219   4.574  1.00  0.00    -0.263 N 
ATOM      2  HN  UNL     1      63.975   8.759   5.247  1.00  0.00     0.194 HD
HETATM    3  C   UNL     1      61.994  10.730   3.565  1.00  0.00     0.063 A 
HETATM    4  O   UNL     1      62.981   8.747   3.328  1.00  0.00    -0.243 OA
HETATM    5  C   UNL     1      62.756  10.408   4.709  1.00  0.00     0.058 A 
HETATM    6  C   UNL     1      62.165   9.654   2.729  1.00  0.00     0.074 A 
HETATM    7  C   UNL     1      61.671   9.309   1.386  1.00  0.00     0.079 C 
ENDROOT
BRANCH   5   8
HETATM    8  C   UNL     1      62.949  11.209   5.948  1.00  0.00     0.223 C 
BRANCH   8   9
HETATM    9  O   UNL     1      64.328  11.403   6.257  1.00  0.00    -0.395 OA
HETATM   10  H   UNL     1      64.470  12.318   6.547  1.00  0.00     0.209 HD
ENDBRANCH   8   9
ENDBRANCH   5   8
TORSDOF 2
ENDMDL
MODEL 2
REMARK VINA RESULT:      -4.0      2.165      4.134
REMARK  2 active torsions:
REMARK  status: ('A' for Active; 'I' for Inactive)
REMARK    1  A    between atoms: C_5  and  C_7 
REMARK    2  A    between atoms: C_7  and  O_8 
ROOT
HETATM    1  N   UNL     1      61.584  11.345   2.406  1.00  0.00    -0.263 N 
ATOM      2  HN  UNL     1      61.189  11.866   1.623  1.00  0.00     0.194 HD
HETATM    3  C   UNL     1      62.414   9.664   3.695  1.00  0.00     0.063 A 
HETATM    4  O   UNL     1      61.947  11.842   3.647  1.00  0.00    -0.243 OA
HETATM    5  C   UNL     1      61.861  10.033   2.449  1.00  0.00     0.058 A 
HETATM    6  C   UNL     1      62.443  10.835   4.412  1.00  0.00     0.074 A 
HETATM    7  C   UNL     1      62.885  11.196   5.770  1.00  0.00     0.079 C 
ENDROOT
BRANCH   5   8
HETATM    8  C   UNL     1      61.594   9.173   1.264  1.00  0.00     0.223 C 
BRANCH   8   9
HETATM    9  O   UNL     1      60.212   8.843   1.138  1.00  0.00    -0.395 OA
HETATM   10  H   UNL     1      59.673   9.620   1.357  1.00  0.00     0.209 HD
ENDBRANCH   8   9
ENDBRANCH   5   8
TORSDOF 2
ENDMDL
MODEL 3
REMARK VINA RESULT:      -4.0      2.093      2.456
REMARK  2 active torsions:
REMARK  status: ('A' for Active; 'I' for Inactive)
REMARK    1  A    between atoms: C_5  and  C_7 
REMARK    2  A    between atoms: C_7  and  O_8 
ROOT
HETATM    1  N   UNL     1      62.789  10.566   5.641  1.00  0.00    -0.263 N 
ATOM      2  HN  UNL     1      63.026  10.766   6.612  1.00  0.00     0.194 HD
HETATM    3  C   UNL     1      62.417   9.477   3.679  1.00  0.00     0.063 A 
HETATM    4  O   UNL     1      62.358  11.467   4.680  1.00  0.00    -0.243 OA
HETATM    5  C   UNL     1      62.828   9.375   5.026  1.00  0.00     0.058 A 
HETATM    6  C   UNL     1      62.136  10.811   3.510  1.00  0.00     0.074 A 
HETATM    7  C   UNL     1      61.665  11.626   2.379  1.00  0.00     0.079 C 
ENDROOT
BRANCH   5   8
HETATM    8  C   UNL     1      63.252   8.160   5.773  1.00  0.00     0.223 C 
BRANCH   8   9
HETATM    9  O   UNL     1      62.619   8.063   7.048  1.00  0.00    -0.395 OA
HETATM   10  H   UNL     1      62.105   8.868   7.217  1.00  0.00     0.209 HD
ENDBRANCH   8   9
ENDBRANCH   5   8
TORSDOF 2
ENDMDL
MODEL 4
REMARK VINA RESULT:      -3.9      2.417      3.493
REMARK  2 active torsions:
REMARK  status: ('A' for Active; 'I' for Inactive)
REMARK    1  A    between atoms: C_5  and  C_7 
REMARK    2  A    between atoms: C_7  and  O_8 
ROOT
HETATM    1  N   UNL     1      63.396  10.266   5.463  1.00  0.00    -0.263 N 
ATOM      2  HN  UNL     1      62.952  11.106   5.833  1.00  0.00     0.194 HD
HETATM    3  C   UNL     1      63.822   8.396   4.240  1.00  0.00     0.063 A 
HETATM    4  O   UNL     1      64.610   9.720   5.849  1.00  0.00    -0.243 OA
HETATM    5  C   UNL     1      62.928   9.457   4.501  1.00  0.00     0.058 A 
HETATM    6  C   UNL     1      64.860   8.604   5.114  1.00  0.00     0.074 A 
HETATM    7  C   UNL     1      66.122   7.900   5.395  1.00  0.00     0.079 C 
ENDROOT
BRANCH   5   8
HETATM    8  C   UNL     1      61.623   9.750   3.848  1.00  0.00     0.223 C 
BRANCH   8   9
HETATM    9  O   UNL     1      61.423  11.147   3.643  1.00  0.00    -0.395 OA
HETATM   10  H   UNL     1      61.147  11.561   4.476  1.00  0.00     0.209 HD
ENDBRANCH   8   9
ENDBRANCH   5   8
TORSDOF 2
ENDMDL
MODEL 5
REMARK VINA RESULT:      -3.6      5.047      5.557
REMARK  2 active torsions:
REMARK  status: ('A' for Active; 'I' for Inactive)
REMARK    1  A    between atoms: C_5  and  C_7 
REMARK    2  A    between atoms: C_7  and  O_8 
ROOT
HETATM    1  N   UNL     1      66.890   8.353   7.306  1.00  0.00    -0.263 N 
ATOM      2  HN  UNL     1      67.627   8.827   7.828  1.00  0.00     0.194 HD
HETATM    3  C   UNL     1      65.399   6.793   6.589  1.00  0.00     0.063 A 
HETATM    4  O   UNL     1      66.146   8.866   6.255  1.00  0.00    -0.243 OA
HETATM    5  C   UNL     1      66.439   7.105   7.492  1.00  0.00     0.058 A 
HETATM    6  C   UNL     1      65.256   7.930   5.832  1.00  0.00     0.074 A 
HETATM    7  C   UNL     1      64.376   8.317   4.717  1.00  0.00     0.079 C 
ENDROOT
BRANCH   5   8
HETATM    8  C   UNL     1      67.023   6.249   8.560  1.00  0.00     0.223 C 
BRANCH   8   9
HETATM    9  O   UNL     1      66.202   5.121   8.857  1.00  0.00    -0.395 OA
HETATM   10  H   UNL     1      65.929   5.155   9.788  1.00  0.00     0.209 HD
ENDBRANCH   8   9
ENDBRANCH   5   8
TORSDOF 2
ENDMDL
MODEL 6
REMARK VINA RESULT:      -3.4      2.163      2.515
REMARK  2 active torsions:
REMARK  status: ('A' for Active; 'I' for Inactive)
REMARK    1  A    between atoms: C_5  and  C_7 
REMARK    2  A    between atoms: C_7  and  O_8 
ROOT
HETATM    1  N   UNL     1      61.721   8.036   3.779  1.00  0.00    -0.263 N 
ATOM      2  HN  UNL     1      61.402   7.078   3.636  1.00  0.00     0.194 HD
HETATM    3  C   UNL     1      62.757   9.874   4.629  1.00  0.00     0.063 A 
HETATM    4  O   UNL     1      61.423   9.143   3.000  1.00  0.00    -0.243 OA
HETATM    5  C   UNL     1      62.516   8.489   4.759  1.00  0.00     0.058 A 
HETATM    6  C   UNL     1      62.046  10.238   3.511  1.00  0.00     0.074 A 
HETATM    7  C   UNL     1      61.839  11.507   2.795  1.00  0.00     0.079 C 
ENDROOT
BRANCH   5   8
HETATM    8  C   UNL     1      63.035   7.553   5.793  1.00  0.00     0.223 C 
BRANCH   8   9
HETATM    9  O   UNL     1      62.620   7.918   7.108  1.00  0.00    -0.395 OA
HETATM   10  H   UNL     1      62.114   7.189   7.502  1.00  0.00     0.209 HD
ENDBRANCH   8   9
ENDBRANCH   5   8
TORSDOF 2
ENDMDL
MODEL 7
REMARK VINA RESULT:      -3.3      3.807      4.189
REMARK  2 active torsions:
REMARK  status: ('A' for Active; 'I' for Inactive)
REMARK    1  A    between atoms: C_5  and  C_7 
REMARK    2  A    between atoms: C_7  and  O_8 
ROOT
HETATM    1  N   UNL     1      64.674   7.264   6.948  1.00  0.00    -0.263 N 
ATOM      2  HN  UNL     1      64.711   6.694   7.793  1.00  0.00     0.194 HD
HETATM    3  C   UNL     1      65.268   8.395   5.066  1.00  0.00     0.063 A 
HETATM    4  O   UNL     1      63.552   7.844   6.377  1.00  0.00    -0.243 OA
HETATM    5  C   UNL     1      65.700   7.609   6.157  1.00  0.00     0.058 A 
HETATM    6  C   UNL     1      63.913   8.516   5.252  1.00  0.00     0.074 A 
HETATM    7  C   UNL     1      62.831   9.190   4.514  1.00  0.00     0.079 C 
ENDROOT
BRANCH   5   8
HETATM    8  C   UNL     1      67.079   7.149   6.476  1.00  0.00     0.223 C 
BRANCH   8   9
HETATM    9  O   UNL     1      68.075   7.956   5.850  1.00  0.00    -0.395 OA
HETATM   10  H   UNL     1      68.756   7.385   5.460  1.00  0.00     0.209 HD
ENDBRANCH   8   9
ENDBRANCH   5   8
TORSDOF 2
ENDMDL
MODEL 8
REMARK VINA RESULT:      -3.3      5.590      6.570
REMARK  2 active torsions:
REMARK  status: ('A' for Active; 'I' for Inactive)
REMARK    1  A    between atoms: C_5  and  C_7 
REMARK    2  A    between atoms: C_7  and  O_8 
ROOT
HETATM    1  N   UNL     1      65.828   7.698   6.946  1.00  0.00    -0.263 N 
ATOM      2  HN  UNL     1      65.606   8.588   6.500  1.00  0.00     0.194 HD
HETATM    3  C   UNL     1      65.700   5.553   7.692  1.00  0.00     0.063 A 
HETATM    4  O   UNL     1      66.992   7.367   7.622  1.00  0.00    -0.243 OA
HETATM    5  C   UNL     1      65.056   6.604   7.002  1.00  0.00     0.058 A 
HETATM    6  C   UNL     1      66.910   6.084   8.063  1.00  0.00     0.074 A 
HETATM    7  C   UNL     1      68.075   5.567   8.801  1.00  0.00     0.079 C 
ENDROOT
BRANCH   5   8
HETATM    8  C   UNL     1      63.710   6.604   6.365  1.00  0.00     0.223 C 
BRANCH   8   9
HETATM    9  O   UNL     1      62.874   7.643   6.872  1.00  0.00    -0.395 OA
HETATM   10  H   UNL     1      61.945   7.368   6.815  1.00  0.00     0.209 HD
ENDBRANCH   8   9
ENDBRANCH   5   8
TORSDOF 2
ENDMDL
MODEL 9
REMARK VINA RESULT:      -3.2      4.823      5.579
REMARK  2 active torsions:
REMARK  status: ('A' for Active; 'I' for Inactive)
REMARK    1  A    between atoms: C_5  and  C_7 
REMARK    2  A    between atoms: C_7  and  O_8 
ROOT
HETATM    1  N   UNL     1      64.810   7.198   6.890  1.00  0.00    -0.263 N 
ATOM      2  HN  UNL     1      63.836   7.322   7.167  1.00  0.00     0.194 HD
HETATM    3  C   UNL     1      66.790   7.374   5.785  1.00  0.00     0.063 A 
HETATM    4  O   UNL     1      65.761   6.401   7.505  1.00  0.00    -0.243 OA
HETATM    5  C   UNL     1      65.437   7.772   5.852  1.00  0.00     0.058 A 
HETATM    6  C   UNL     1      66.943   6.512   6.842  1.00  0.00     0.074 A 
HETATM    7  C   UNL     1      68.071   5.728   7.373  1.00  0.00     0.079 C 
ENDROOT
BRANCH   5   8
HETATM    8  C   UNL     1      64.702   8.708   4.959  1.00  0.00     0.223 C 
BRANCH   8   9
HETATM    9  O   UNL     1      64.348   9.921   5.622  1.00  0.00    -0.395 OA
HETATM   10  H   UNL     1      64.225  10.625   4.966  1.00  0.00     0.209 HD
ENDBRANCH   8   9
ENDBRANCH   5   8
TORSDOF 2
ENDMDL
