MODEL 1
REMARK VINA RESULT:      -4.7      0.000      0.000
REMARK  1 active torsions:
REMARK  status: ('A' for Active; 'I' for Inactive)
REMARK    1  A    between atoms: C_8  and  N_10 
ROOT
HETATM    1  C   UNL     1      62.094   9.606   3.058  1.00  0.00     0.061 A 
HETATM    2  C   UNL     1      62.203  10.533   4.090  1.00  0.00     0.060 A 
HETATM    3  N   UNL     1      61.236   9.835   2.041  1.00  0.00    -0.363 N 
ATOM      4  HN  UNL     1      60.649  10.670   2.011  1.00  0.00     0.165 HD
HETATM    5  N   UNL     1      62.837   7.514   2.113  1.00  0.00    -0.363 N 
ATOM      6  HN  UNL     1      63.409   6.671   2.135  1.00  0.00     0.165 HD
HETATM    7  C   UNL     1      62.898   8.441   3.092  1.00  0.00     0.059 A 
HETATM    8  C   UNL     1      63.057  10.331   5.178  1.00  0.00     0.028 A 
HETATM    9  C   UNL     1      63.781   8.266   4.147  1.00  0.00     0.034 A 
HETATM   10  C   UNL     1      63.882   9.211   5.171  1.00  0.00     0.031 A 
HETATM   11  C   UNL     1      61.194   8.901   1.068  1.00  0.00     0.105 A 
HETATM   12  C   UNL     1      61.977   7.765   1.103  1.00  0.00     0.105 A 
ENDROOT
BRANCH   8  13
HETATM   13  N   UNL     1      63.251  11.345   6.122  1.00  0.00    -0.399 N 
HETATM   14  H   UNL     1      63.846  11.193   6.891  1.00  0.00     0.156 HD
HETATM   15  H   UNL     1      62.792  12.209   6.017  1.00  0.00     0.156 HD
ENDBRANCH   8  13
TORSDOF 1
ENDMDL
MODEL 2
REMARK VINA RESULT:      -4.6      1.570      3.418
REMARK  1 active torsions:
REMARK  status: ('A' for Active; 'I' for Inactive)
REMARK    1  A    between atoms: C_8  and  N_10 
ROOT
HETATM    1  C   UNL     1      63.137   8.632   3.696  1.00  0.00     0.061 A 
HETATM    2  C   UNL     1      62.446   9.426   2.786  1.00  0.00     0.060 A 
HETATM    3  N   UNL     1      63.562   7.406   3.326  1.00  0.00    -0.363 N 
ATOM      4  HN  UNL     1      63.381   7.033   2.393  1.00  0.00     0.165 HD
HETATM    5  N   UNL     1      64.061   8.411   5.913  1.00  0.00    -0.363 N 
ATOM      6  HN  UNL     1      64.241   8.766   6.853  1.00  0.00     0.165 HD
HETATM    7  C   UNL     1      63.389   9.136   4.995  1.00  0.00     0.059 A 
HETATM    8  C   UNL     1      61.962  10.693   3.127  1.00  0.00     0.028 A 
HETATM    9  C   UNL     1      62.952  10.412   5.317  1.00  0.00     0.034 A 
HETATM   10  C   UNL     1      62.266  11.198   4.387  1.00  0.00     0.031 A 
HETATM   11  C   UNL     1      64.239   6.698   4.255  1.00  0.00     0.105 A 
HETATM   12  C   UNL     1      64.483   7.190   5.521  1.00  0.00     0.105 A 
ENDROOT
BRANCH   8  13
HETATM   13  N   UNL     1      61.401  11.523   2.151  1.00  0.00    -0.399 N 
HETATM   14  H   UNL     1      60.465  11.812   2.230  1.00  0.00     0.156 HD
HETATM   15  H   UNL     1      61.945  11.816   1.384  1.00  0.00     0.156 HD
ENDBRANCH   8  13
TORSDOF 1
ENDMDL
MODEL 3
REMARK VINA RESULT:      -4.6      0.898      2.128
REMARK  1 active torsions:
REMARK  status: ('A' for Active; 'I' for Inactive)
REMARK    1  A    between atoms: C_8  and  N_10 
ROOT
HETATM    1  C   UNL     1      62.759   8.921   3.372  1.00  0.00     0.061 A 
HETATM    2  C   UNL     1      63.057   9.367   4.655  1.00  0.00     0.060 A 
HETATM    3  N   UNL     1      63.068   7.657   3.015  1.00  0.00    -0.363 N 
ATOM      4  HN  UNL     1      63.529   7.013   3.659  1.00  0.00     0.165 HD
HETATM    5  N   UNL     1      61.806   9.422   1.213  1.00  0.00    -0.363 N 
ATOM      6  HN  UNL     1      61.354  10.056   0.555  1.00  0.00     0.165 HD
HETATM    7  C   UNL     1      62.124   9.806   2.466  1.00  0.00     0.059 A 
HETATM    8  C   UNL     1      62.781  10.674   5.068  1.00  0.00     0.028 A 
HETATM    9  C   UNL     1      61.806  11.087   2.892  1.00  0.00     0.034 A 
HETATM   10  C   UNL     1      62.107  11.515   4.188  1.00  0.00     0.031 A 
HETATM   11  C   UNL     1      62.736   7.288   1.760  1.00  0.00     0.105 A 
HETATM   12  C   UNL     1      62.118   8.152   0.878  1.00  0.00     0.105 A 
ENDROOT
BRANCH   8  13
HETATM   13  N   UNL     1      62.959  11.048   6.404  1.00  0.00    -0.399 N 
HETATM   14  H   UNL     1      63.035  11.999   6.642  1.00  0.00     0.156 HD
HETATM   15  H   UNL     1      63.007  10.358   7.104  1.00  0.00     0.156 HD
ENDBRANCH   8  13
TORSDOF 1
ENDMDL
MODEL 4
REMARK VINA RESULT:      -4.4      1.343      4.230
REMARK  1 active torsions:
REMARK  status: ('A' for Active; 'I' for Inactive)
REMARK    1  A    between atoms: C_8  and  N_10 
ROOT
HETATM    1  C   UNL     1      62.809   8.918   3.389  1.00  0.00     0.061 A 
HETATM    2  C   UNL     1      63.162   7.677   2.870  1.00  0.00     0.060 A 
HETATM    3  N   UNL     1      63.157   9.237   4.653  1.00  0.00    -0.363 N 
ATOM      4  HN  UNL     1      63.666   8.587   5.252  1.00  0.00     0.165 HD
HETATM    5  N   UNL     1      61.735  11.047   3.022  1.00  0.00    -0.363 N 
ATOM      6  HN  UNL     1      61.217  11.704   2.439  1.00  0.00     0.165 HD
HETATM    7  C   UNL     1      62.096   9.828   2.571  1.00  0.00     0.059 A 
HETATM    8  C   UNL     1      62.804   7.286   1.576  1.00  0.00     0.028 A 
HETATM    9  C   UNL     1      61.784   9.459   1.271  1.00  0.00     0.034 A 
HETATM   10  C   UNL     1      62.154   8.210   0.764  1.00  0.00     0.031 A 
HETATM   11  C   UNL     1      62.794  10.464   5.085  1.00  0.00     0.105 A 
HETATM   12  C   UNL     1      62.098  11.349   4.287  1.00  0.00     0.105 A 
ENDROOT
BRANCH   8  13
HETATM   13  N   UNL     1      63.297   6.095   1.034  1.00  0.00    -0.399 N 
HETATM   14  H   UNL     1      62.736   5.287   1.029  1.00  0.00     0.156 HD
HETATM   15  H   UNL     1      64.206   6.066   0.657  1.00  0.00     0.156 HD
ENDBRANCH   8  13
TORSDOF 1
ENDMDL
MODEL 5
REMARK VINA RESULT:      -4.1      1.322      3.817
REMARK  1 active torsions:
REMARK  status: ('A' for Active; 'I' for Inactive)
REMARK    1  A    between atoms: C_8  and  N_10 
ROOT
HETATM    1  C   UNL     1      62.048   9.847   2.809  1.00  0.00     0.061 A 
HETATM    2  C   UNL     1      61.729   9.202   1.618  1.00  0.00     0.060 A 
HETATM    3  N   UNL     1      61.630  11.113   3.017  1.00  0.00    -0.363 N 
ATOM      4  HN  UNL     1      61.091  11.623   2.316  1.00  0.00     0.165 HD
HETATM    5  N   UNL     1      63.130   9.726   4.962  1.00  0.00    -0.363 N 
ATOM      6  HN  UNL     1      63.676   9.232   5.667  1.00  0.00     0.165 HD
HETATM    7  C   UNL     1      62.800   9.151   3.787  1.00  0.00     0.059 A 
HETATM    8  C   UNL     1      62.158   7.901   1.342  1.00  0.00     0.028 A 
HETATM    9  C   UNL     1      63.183   7.843   3.533  1.00  0.00     0.034 A 
HETATM   10  C   UNL     1      62.847   7.210   2.333  1.00  0.00     0.031 A 
HETATM   11  C   UNL     1      61.963  11.669   4.201  1.00  0.00     0.105 A 
HETATM   12  C   UNL     1      62.697  10.990   5.152  1.00  0.00     0.105 A 
ENDROOT
BRANCH   8  13
HETATM   13  N   UNL     1      61.701   7.231   0.203  1.00  0.00    -0.399 N 
HETATM   14  H   UNL     1      62.108   6.375  -0.062  1.00  0.00     0.156 HD
HETATM   15  H   UNL     1      60.972   7.616  -0.334  1.00  0.00     0.156 HD
ENDBRANCH   8  13
TORSDOF 1
ENDMDL
MODEL 6
REMARK VINA RESULT:      -4.1      2.148      4.067
REMARK  1 active torsions:
REMARK  status: ('A' for Active; 'I' for Inactive)
REMARK    1  A    between atoms: C_8  and  N_10 
ROOT
HETATM    1  C   UNL     1      64.389   8.523   4.982  1.00  0.00     0.061 A 
HETATM    2  C   UNL     1      63.330   9.393   4.744  1.00  0.00     0.060 A 
HETATM    3  N   UNL     1      65.217   8.745   6.024  1.00  0.00    -0.363 N 
ATOM      4  HN  UNL     1      65.096   9.546   6.645  1.00  0.00     0.165 HD
HETATM    5  N   UNL     1      65.576   6.532   4.313  1.00  0.00    -0.363 N 
ATOM      6  HN  UNL     1      65.715   5.732   3.695  1.00  0.00     0.165 HD
HETATM    7  C   UNL     1      64.570   7.411   4.124  1.00  0.00     0.059 A 
HETATM    8  C   UNL     1      62.459   9.223   3.664  1.00  0.00     0.028 A 
HETATM    9  C   UNL     1      63.677   7.215   3.081  1.00  0.00     0.034 A 
HETATM   10  C   UNL     1      62.614   8.096   2.863  1.00  0.00     0.031 A 
HETATM   11  C   UNL     1      66.213   7.851   6.202  1.00  0.00     0.105 A 
HETATM   12  C   UNL     1      66.389   6.769   5.364  1.00  0.00     0.105 A 
ENDROOT
BRANCH   8  13
HETATM   13  N   UNL     1      61.322  10.027   3.538  1.00  0.00    -0.399 N 
HETATM   14  H   UNL     1      60.496   9.789   4.015  1.00  0.00     0.156 HD
HETATM   15  H   UNL     1      61.349  10.830   2.969  1.00  0.00     0.156 HD
ENDBRANCH   8  13
TORSDOF 1
ENDMDL
MODEL 7
REMARK VINA RESULT:      -4.0      1.760      3.835
REMARK  1 active torsions:
REMARK  status: ('A' for Active; 'I' for Inactive)
REMARK    1  A    between atoms: C_8  and  N_10 
ROOT
HETATM    1  C   UNL     1      63.247   8.778   3.866  1.00  0.00     0.061 A 
HETATM    2  C   UNL     1      63.499   7.620   3.138  1.00  0.00     0.060 A 
HETATM    3  N   UNL     1      62.256   9.609   3.481  1.00  0.00    -0.363 N 
ATOM      4  HN  UNL     1      61.685   9.419   2.657  1.00  0.00     0.165 HD
HETATM    5  N   UNL     1      63.831  10.161   5.755  1.00  0.00    -0.363 N 
ATOM      6  HN  UNL     1      64.399  10.369   6.576  1.00  0.00     0.165 HD
HETATM    7  C   UNL     1      64.037   9.056   5.009  1.00  0.00     0.059 A 
HETATM    8  C   UNL     1      64.529   6.739   3.478  1.00  0.00     0.028 A 
HETATM    9  C   UNL     1      65.027   8.157   5.375  1.00  0.00     0.034 A 
HETATM   10  C   UNL     1      65.259   6.995   4.635  1.00  0.00     0.031 A 
HETATM   11  C   UNL     1      62.060  10.705   4.244  1.00  0.00     0.105 A 
HETATM   12  C   UNL     1      62.831  10.975   5.357  1.00  0.00     0.105 A 
ENDROOT
BRANCH   8  13
HETATM   13  N   UNL     1      64.663   5.515   2.816  1.00  0.00    -0.399 N 
HETATM   14  H   UNL     1      65.038   5.485   1.907  1.00  0.00     0.156 HD
HETATM   15  H   UNL     1      64.380   4.683   3.260  1.00  0.00     0.156 HD
ENDBRANCH   8  13
TORSDOF 1
ENDMDL
MODEL 8
REMARK VINA RESULT:      -3.9      5.610      7.860
REMARK  1 active torsions:
REMARK  status: ('A' for Active; 'I' for Inactive)
REMARK    1  A    between atoms: C_8  and  N_10 
ROOT
HETATM    1  C   UNL     1      67.607   5.384   6.760  1.00  0.00     0.061 A 
HETATM    2  C   UNL     1      67.573   4.933   5.445  1.00  0.00     0.060 A 
HETATM    3  N   UNL     1      67.940   4.531   7.752  1.00  0.00    -0.363 N 
ATOM      4  HN  UNL     1      68.159   3.552   7.568  1.00  0.00     0.165 HD
HETATM    5  N   UNL     1      67.326   7.232   8.286  1.00  0.00    -0.363 N 
ATOM      6  HN  UNL     1      67.100   8.206   8.487  1.00  0.00     0.165 HD
HETATM    7  C   UNL     1      67.300   6.740   7.030  1.00  0.00     0.059 A 
HETATM    8  C   UNL     1      67.209   5.768   4.385  1.00  0.00     0.028 A 
HETATM    9  C   UNL     1      66.988   7.581   5.972  1.00  0.00     0.034 A 
HETATM   10  C   UNL     1      66.965   7.111   4.656  1.00  0.00     0.031 A 
HETATM   11  C   UNL     1      67.968   5.042   9.001  1.00  0.00     0.105 A 
HETATM   12  C   UNL     1      67.667   6.364   9.262  1.00  0.00     0.105 A 
ENDROOT
BRANCH   8  13
HETATM   13  N   UNL     1      67.325   5.326   3.063  1.00  0.00    -0.399 N 
HETATM   14  H   UNL     1      66.808   5.765   2.350  1.00  0.00     0.156 HD
HETATM   15  H   UNL     1      67.923   4.575   2.847  1.00  0.00     0.156 HD
ENDBRANCH   8  13
TORSDOF 1
ENDMDL
MODEL 9
REMARK VINA RESULT:      -3.8      1.861      2.748
REMARK  1 active torsions:
REMARK  status: ('A' for Active; 'I' for Inactive)
REMARK    1  A    between atoms: C_8  and  N_10 
ROOT
HETATM    1  C   UNL     1      62.220   8.228   2.227  1.00  0.00     0.061 A 
HETATM    2  C   UNL     1      61.984   9.483   1.674  1.00  0.00     0.060 A 
HETATM    3  N   UNL     1      62.252   7.141   1.429  1.00  0.00    -0.363 N 
ATOM      4  HN  UNL     1      62.096   7.207   0.423  1.00  0.00     0.165 HD
HETATM    5  N   UNL     1      62.672   6.931   4.210  1.00  0.00    -0.363 N 
ATOM      6  HN  UNL     1      62.820   6.847   5.216  1.00  0.00     0.165 HD
HETATM    7  C   UNL     1      62.431   8.122   3.624  1.00  0.00     0.059 A 
HETATM    8  C   UNL     1      61.914  10.637   2.459  1.00  0.00     0.028 A 
HETATM    9  C   UNL     1      62.412   9.274   4.395  1.00  0.00     0.034 A 
HETATM   10  C   UNL     1      62.181  10.526   3.820  1.00  0.00     0.031 A 
HETATM   11  C   UNL     1      62.501   5.960   2.033  1.00  0.00     0.105 A 
HETATM   12  C   UNL     1      62.706   5.857   3.394  1.00  0.00     0.105 A 
ENDROOT
BRANCH   8  13
HETATM   13  N   UNL     1      61.821  11.897   1.859  1.00  0.00    -0.399 N 
HETATM   14  H   UNL     1      61.689  12.698   2.415  1.00  0.00     0.156 HD
HETATM   15  H   UNL     1      61.887  11.981   0.881  1.00  0.00     0.156 HD
ENDBRANCH   8  13
TORSDOF 1
ENDMDL
