MODEL 1
REMARK VINA RESULT:      -4.9      0.000      0.000
REMARK  2 active torsions:
REMARK  status: ('A' for Active; 'I' for Inactive)
REMARK    1  A    between atoms: C_1  and  C_8 
REMARK    2  A    between atoms: C_4  and  C_7 
ROOT
HETATM    1  C   UNK     1      63.327   9.727   4.888  1.00  0.00     0.117 A 
HETATM    2  N   UNK     1      64.448   9.133   5.475  1.00  0.00    -0.344 N 
ATOM      3  HN  UNK     1      64.984   9.539   6.243  1.00  0.00     0.167 HD
HETATM    4  C   UNK     1      64.721   7.976   4.902  1.00  0.00     0.091 A 
HETATM    5  S   UNK     1      63.644   7.536   3.631  1.00  0.00    -0.080 SA
HETATM    6  C   UNK     1      62.767   8.981   3.867  1.00  0.00     0.088 A 
ENDROOT
BRANCH   4   7
HETATM    7  C   UNK     1      65.838   7.162   5.332  1.00  0.00     0.038 A 
HETATM    8  S   UNK     1      66.634   7.359   6.843  1.00  0.00    -0.099 SA
HETATM    9  C   UNK     1      67.726   6.087   6.529  1.00  0.00     0.050 A 
HETATM   10  C   UNK     1      67.504   5.510   5.299  1.00  0.00     0.008 A 
HETATM   11  C   UNK     1      66.416   6.129   4.613  1.00  0.00     0.022 A 
ENDBRANCH   4   7
BRANCH   1  12
HETATM   12  C   UNK     1      62.794  11.018   5.311  1.00  0.00     0.227 C 
HETATM   13  O   UNK     1      62.049  11.726   4.646  1.00  0.00    -0.643 OA
HETATM   14  O   UNK     1      63.186  11.423   6.541  1.00  0.00    -0.643 OA
ENDBRANCH   1  12
TORSDOF 2
ENDMDL
MODEL 2
REMARK VINA RESULT:      -4.7      3.245      5.467
REMARK  2 active torsions:
REMARK  status: ('A' for Active; 'I' for Inactive)
REMARK    1  A    between atoms: C_1  and  C_8 
REMARK    2  A    between atoms: C_4  and  C_7 
ROOT
HETATM    1  C   UNK     1      66.234   6.771   7.324  1.00  0.00     0.117 A 
HETATM    2  N   UNK     1      65.041   7.289   6.810  1.00  0.00    -0.344 N 
ATOM      3  HN  UNK     1      64.150   7.294   7.307  1.00  0.00     0.167 HD
HETATM    4  C   UNK     1      65.224   7.771   5.595  1.00  0.00     0.091 A 
HETATM    5  S   UNK     1      66.837   7.632   5.005  1.00  0.00    -0.080 SA
HETATM    6  C   UNK     1      67.312   6.884   6.464  1.00  0.00     0.088 A 
ENDROOT
BRANCH   4   7
HETATM    7  C   UNK     1      64.139   8.366   4.845  1.00  0.00     0.038 A 
HETATM    8  S   UNK     1      63.457   7.659   3.434  1.00  0.00    -0.099 SA
HETATM    9  C   UNK     1      62.337   8.931   3.237  1.00  0.00     0.050 A 
HETATM   10  C   UNK     1      62.466   9.886   4.218  1.00  0.00     0.008 A 
HETATM   11  C   UNK     1      63.501   9.559   5.143  1.00  0.00     0.022 A 
ENDBRANCH   4   7
BRANCH   1  12
HETATM   12  C   UNK     1      66.336   6.163   8.647  1.00  0.00     0.227 C 
HETATM   13  O   UNK     1      66.622   6.758   9.676  1.00  0.00    -0.643 OA
HETATM   14  O   UNK     1      66.087   4.833   8.684  1.00  0.00    -0.643 OA
ENDBRANCH   1  12
TORSDOF 2
ENDMDL
MODEL 3
REMARK VINA RESULT:      -4.5      1.403      1.552
REMARK  2 active torsions:
REMARK  status: ('A' for Active; 'I' for Inactive)
REMARK    1  A    between atoms: C_1  and  C_8 
REMARK    2  A    between atoms: C_4  and  C_7 
ROOT
HETATM    1  C   UNK     1      62.497   9.642   4.039  1.00  0.00     0.117 A 
HETATM    2  N   UNK     1      63.743   9.398   4.625  1.00  0.00    -0.344 N 
ATOM      3  HN  UNK     1      64.441  10.116   4.824  1.00  0.00     0.167 HD
HETATM    4  C   UNK     1      63.896   8.114   4.886  1.00  0.00     0.091 A 
HETATM    5  S   UNK     1      62.552   7.129   4.447  1.00  0.00    -0.080 SA
HETATM    6  C   UNK     1      61.723   8.508   3.875  1.00  0.00     0.088 A 
ENDROOT
BRANCH   4   7
HETATM    7  C   UNK     1      65.105   7.603   5.497  1.00  0.00     0.038 A 
HETATM    8  S   UNK     1      65.116   6.608   6.899  1.00  0.00    -0.099 SA
HETATM    9  C   UNK     1      66.818   6.492   6.905  1.00  0.00     0.050 A 
HETATM   10  C   UNK     1      67.385   7.192   5.865  1.00  0.00     0.008 A 
HETATM   11  C   UNK     1      66.399   7.829   5.055  1.00  0.00     0.022 A 
ENDBRANCH   4   7
BRANCH   1  12
HETATM   12  C   UNK     1      62.052  10.971   3.634  1.00  0.00     0.227 C 
HETATM   13  O   UNK     1      61.749  11.297   2.494  1.00  0.00    -0.643 OA
HETATM   14  O   UNK     1      61.988  11.881   4.633  1.00  0.00    -0.643 OA
ENDBRANCH   1  12
TORSDOF 2
ENDMDL
MODEL 4
REMARK VINA RESULT:      -4.3      3.503      6.089
REMARK  2 active torsions:
REMARK  status: ('A' for Active; 'I' for Inactive)
REMARK    1  A    between atoms: C_1  and  C_8 
REMARK    2  A    between atoms: C_4  and  C_7 
ROOT
HETATM    1  C   UNK     1      62.165   9.742   4.043  1.00  0.00     0.117 A 
HETATM    2  N   UNK     1      60.883   9.436   3.575  1.00  0.00    -0.344 N 
ATOM      3  HN  UNK     1      60.074  10.052   3.656  1.00  0.00     0.167 HD
HETATM    4  C   UNK     1      60.862   8.242   3.014  1.00  0.00     0.091 A 
HETATM    5  S   UNK     1      62.378   7.423   3.014  1.00  0.00    -0.080 SA
HETATM    6  C   UNK     1      63.099   8.749   3.812  1.00  0.00     0.088 A 
ENDROOT
BRANCH   4   7
HETATM    7  C   UNK     1      59.648   7.692   2.448  1.00  0.00     0.038 A 
HETATM    8  S   UNK     1      59.375   7.525   0.759  1.00  0.00    -0.099 SA
HETATM    9  C   UNK     1      57.827   6.848   0.991  1.00  0.00     0.050 A 
HETATM   10  C   UNK     1      57.506   6.743   2.325  1.00  0.00     0.008 A 
HETATM   11  C   UNK     1      58.555   7.227   3.162  1.00  0.00     0.022 A 
ENDBRANCH   4   7
BRANCH   1  12
HETATM   12  C   UNK     1      62.491  10.994   4.718  1.00  0.00     0.227 C 
HETATM   13  O   UNK     1      62.064  12.097   4.403  1.00  0.00    -0.643 OA
HETATM   14  O   UNK     1      63.337  10.875   5.767  1.00  0.00    -0.643 OA
ENDBRANCH   1  12
TORSDOF 2
ENDMDL
MODEL 5
REMARK VINA RESULT:      -4.1     10.282     10.433
REMARK  2 active torsions:
REMARK  status: ('A' for Active; 'I' for Inactive)
REMARK    1  A    between atoms: C_1  and  C_8 
REMARK    2  A    between atoms: C_4  and  C_7 
ROOT
HETATM    1  C   UNK     1      58.413   4.390   9.316  1.00  0.00     0.117 A 
HETATM    2  N   UNK     1      58.580   3.907  10.617  1.00  0.00    -0.344 N 
ATOM      3  HN  UNK     1      59.103   4.387  11.350  1.00  0.00     0.167 HD
HETATM    4  C   UNK     1      57.969   2.747  10.769  1.00  0.00     0.091 A 
HETATM    5  S   UNK     1      57.158   2.176   9.361  1.00  0.00    -0.080 SA
HETATM    6  C   UNK     1      57.657   3.565   8.503  1.00  0.00     0.088 A 
ENDROOT
BRANCH   4   7
HETATM    7  C   UNK     1      57.993   2.038  12.031  1.00  0.00     0.038 A 
HETATM    8  S   UNK     1      56.668   1.124  12.633  1.00  0.00    -0.099 SA
HETATM    9  C   UNK     1      57.511   0.678  14.048  1.00  0.00     0.050 A 
HETATM   10  C   UNK     1      58.781   1.206  14.078  1.00  0.00     0.008 A 
HETATM   11  C   UNK     1      59.057   1.987  12.916  1.00  0.00     0.022 A 
ENDBRANCH   4   7
BRANCH   1  12
HETATM   12  C   UNK     1      58.984   5.651   8.852  1.00  0.00     0.227 C 
HETATM   13  O   UNK     1      59.919   5.757   8.071  1.00  0.00    -0.643 OA
HETATM   14  O   UNK     1      58.400   6.762   9.358  1.00  0.00    -0.643 OA
ENDBRANCH   1  12
TORSDOF 2
ENDMDL
MODEL 6
REMARK VINA RESULT:      -4.1      3.684      5.531
REMARK  2 active torsions:
REMARK  status: ('A' for Active; 'I' for Inactive)
REMARK    1  A    between atoms: C_1  and  C_8 
REMARK    2  A    between atoms: C_4  and  C_7 
ROOT
HETATM    1  C   UNK     1      65.548   6.041   6.965  1.00  0.00     0.117 A 
HETATM    2  N   UNK     1      64.475   6.518   6.205  1.00  0.00    -0.344 N 
ATOM      3  HN  UNK     1      63.572   6.050   6.119  1.00  0.00     0.167 HD
HETATM    4  C   UNK     1      64.788   7.656   5.614  1.00  0.00     0.091 A 
HETATM    5  S   UNK     1      66.384   8.217   5.941  1.00  0.00    -0.080 SA
HETATM    6  C   UNK     1      66.665   6.855   6.931  1.00  0.00     0.088 A 
ENDROOT
BRANCH   4   7
HETATM    7  C   UNK     1      63.844   8.354   4.768  1.00  0.00     0.038 A 
HETATM    8  S   UNK     1      63.100   9.843   5.200  1.00  0.00    -0.099 SA
HETATM    9  C   UNK     1      62.222   9.924   3.740  1.00  0.00     0.050 A 
HETATM   10  C   UNK     1      62.478   8.845   2.925  1.00  0.00     0.008 A 
HETATM   11  C   UNK     1      63.413   7.945   3.517  1.00  0.00     0.022 A 
ENDBRANCH   4   7
BRANCH   1  12
HETATM   12  C   UNK     1      65.496   4.797   7.726  1.00  0.00     0.227 C 
HETATM   13  O   UNK     1      64.739   3.863   7.501  1.00  0.00    -0.643 OA
HETATM   14  O   UNK     1      66.373   4.719   8.753  1.00  0.00    -0.643 OA
ENDBRANCH   1  12
TORSDOF 2
ENDMDL
MODEL 7
REMARK VINA RESULT:      -4.0      2.717      5.266
REMARK  2 active torsions:
REMARK  status: ('A' for Active; 'I' for Inactive)
REMARK    1  A    between atoms: C_1  and  C_8 
REMARK    2  A    between atoms: C_4  and  C_7 
ROOT
HETATM    1  C   UNK     1      65.345   7.262   5.316  1.00  0.00     0.117 A 
HETATM    2  N   UNK     1      64.531   8.079   4.525  1.00  0.00    -0.344 N 
ATOM      3  HN  UNK     1      64.440   9.089   4.636  1.00  0.00     0.167 HD
HETATM    4  C   UNK     1      63.895   7.366   3.614  1.00  0.00     0.091 A 
HETATM    5  S   UNK     1      64.243   5.679   3.655  1.00  0.00    -0.080 SA
HETATM    6  C   UNK     1      65.306   5.925   4.968  1.00  0.00     0.088 A 
ENDROOT
BRANCH   4   7
HETATM    7  C   UNK     1      62.988   7.980   2.668  1.00  0.00     0.038 A 
HETATM    8  S   UNK     1      62.392   7.184   1.266  1.00  0.00    -0.099 SA
HETATM    9  C   UNK     1      61.472   8.538   0.786  1.00  0.00     0.050 A 
HETATM   10  C   UNK     1      61.604   9.588   1.666  1.00  0.00     0.008 A 
HETATM   11  C   UNK     1      62.474   9.264   2.749  1.00  0.00     0.022 A 
ENDBRANCH   4   7
BRANCH   1  12
HETATM   12  C   UNK     1      66.163   7.773   6.411  1.00  0.00     0.227 C 
HETATM   13  O   UNK     1      66.810   7.085   7.189  1.00  0.00    -0.643 OA
HETATM   14  O   UNK     1      66.173   9.120   6.537  1.00  0.00    -0.643 OA
ENDBRANCH   1  12
TORSDOF 2
ENDMDL
MODEL 8
REMARK VINA RESULT:      -3.9     13.433     13.532
REMARK  2 active torsions:
REMARK  status: ('A' for Active; 'I' for Inactive)
REMARK    1  A    between atoms: C_1  and  C_8 
REMARK    2  A    between atoms: C_4  and  C_7 
ROOT
HETATM    1  C   UNK     1      54.827   3.006  13.776  1.00  0.00     0.117 A 
HETATM    2  N   UNK     1      56.146   2.687  13.438  1.00  0.00    -0.344 N 
ATOM      3  HN  UNK     1      56.813   3.341  13.027  1.00  0.00     0.167 HD
HETATM    4  C   UNK     1      56.411   1.426  13.722  1.00  0.00     0.091 A 
HETATM    5  S   UNK     1      55.095   0.556  14.413  1.00  0.00    -0.080 SA
HETATM    6  C   UNK     1      54.118   1.953  14.324  1.00  0.00     0.088 A 
ENDROOT
BRANCH   4   7
HETATM    7  C   UNK     1      57.714   0.850  13.466  1.00  0.00     0.038 A 
HETATM    8  S   UNK     1      59.023   1.725  12.777  1.00  0.00    -0.099 SA
HETATM    9  C   UNK     1      60.067   0.377  12.839  1.00  0.00     0.050 A 
HETATM   10  C   UNK     1      59.446  -0.730  13.371  1.00  0.00     0.008 A 
HETATM   11  C   UNK     1      58.094  -0.455  13.734  1.00  0.00     0.022 A 
ENDBRANCH   4   7
BRANCH   1  12
HETATM   12  C   UNK     1      54.247   4.329  13.568  1.00  0.00     0.227 C 
HETATM   13  O   UNK     1      54.291   5.253  14.369  1.00  0.00    -0.643 OA
HETATM   14  O   UNK     1      53.621   4.498  12.380  1.00  0.00    -0.643 OA
ENDBRANCH   1  12
TORSDOF 2
ENDMDL
MODEL 9
REMARK VINA RESULT:      -3.8      3.366      5.921
REMARK  2 active torsions:
REMARK  status: ('A' for Active; 'I' for Inactive)
REMARK    1  A    between atoms: C_1  and  C_8 
REMARK    2  A    between atoms: C_4  and  C_7 
ROOT
HETATM    1  C   UNK     1      63.402   8.310   5.049  1.00  0.00     0.117 A 
HETATM    2  N   UNK     1      62.493   7.683   4.191  1.00  0.00    -0.344 N 
ATOM      3  HN  UNK     1      62.423   6.674   4.057  1.00  0.00     0.167 HD
HETATM    4  C   UNK     1      61.738   8.574   3.576  1.00  0.00     0.091 A 
HETATM    5  S   UNK     1      62.075  10.210   3.998  1.00  0.00    -0.080 SA
HETATM    6  C   UNK     1      63.302   9.688   5.064  1.00  0.00     0.088 A 
ENDROOT
BRANCH   4   7
HETATM    7  C   UNK     1      60.715   8.178   2.632  1.00  0.00     0.038 A 
HETATM    8  S   UNK     1      60.839   8.424   0.935  1.00  0.00    -0.099 SA
HETATM    9  C   UNK     1      59.318   7.711   0.637  1.00  0.00     0.050 A 
HETATM   10  C   UNK     1      58.712   7.287   1.797  1.00  0.00     0.008 A 
HETATM   11  C   UNK     1      59.518   7.555   2.943  1.00  0.00     0.022 A 
ENDBRANCH   4   7
BRANCH   1  12
HETATM   12  C   UNK     1      64.372   7.577   5.857  1.00  0.00     0.227 C 
HETATM   13  O   UNK     1      65.526   7.338   5.529  1.00  0.00    -0.643 OA
HETATM   14  O   UNK     1      63.909   7.146   7.053  1.00  0.00    -0.643 OA
ENDBRANCH   1  12
TORSDOF 2
ENDMDL
