MODEL 1
REMARK VINA RESULT:      -4.8      0.000      0.000
REMARK  0 active torsions:
REMARK  status: ('A' for Active; 'I' for Inactive)
ROOT
HETATM    1  C   UNL     1      63.210   6.129   1.009  1.00  0.00    -0.078 C 
HETATM    2  C   UNL     1      63.505   5.056   0.552  1.00  0.00     0.018 C 
HETATM    3  C   UNL     1      62.821   8.948   3.419  1.00  0.00     0.060 A 
HETATM    4  N   UNL     1      63.185   9.239   4.684  1.00  0.00    -0.363 N 
ATOM      5  HN  UNL     1      63.697   8.573   5.262  1.00  0.00     0.165 HD
HETATM    6  N   UNL     1      61.741  11.085   3.113  1.00  0.00    -0.363 N 
ATOM      7  HN  UNL     1      61.207  11.752   2.556  1.00  0.00     0.165 HD
HETATM    8  C   UNL     1      62.102   9.881   2.628  1.00  0.00     0.059 A 
HETATM    9  C   UNL     1      63.165   7.718   2.872  1.00  0.00     0.052 A 
HETATM   10  C   UNL     1      62.843   7.398   1.552  1.00  0.00     0.019 A 
HETATM   11  C   UNL     1      61.780   9.548   1.319  1.00  0.00     0.033 A 
HETATM   12  C   UNL     1      62.157   8.322   0.769  1.00  0.00     0.023 A 
HETATM   13  C   UNL     1      62.837  10.460   5.145  1.00  0.00     0.105 A 
HETATM   14  C   UNL     1      62.124  11.359   4.379  1.00  0.00     0.105 A 
ENDROOT
TORSDOF 0
ENDMDL
MODEL 2
REMARK VINA RESULT:      -4.7      2.583      3.350
REMARK  0 active torsions:
REMARK  status: ('A' for Active; 'I' for Inactive)
ROOT
HETATM    1  C   UNL     1      66.443   6.106   5.103  1.00  0.00    -0.078 C 
HETATM    2  C   UNL     1      67.327   5.380   5.475  1.00  0.00     0.018 C 
HETATM    3  C   UNL     1      64.036   8.952   4.975  1.00  0.00     0.060 A 
HETATM    4  N   UNL     1      63.783  10.079   5.670  1.00  0.00    -0.363 N 
ATOM      5  HN  UNL     1      64.316  10.327   6.503  1.00  0.00     0.165 HD
HETATM    6  N   UNL     1      62.272   9.394   3.387  1.00  0.00    -0.363 N 
ATOM      7  HN  UNL     1      61.713   9.146   2.570  1.00  0.00     0.165 HD
HETATM    8  C   UNL     1      63.280   8.613   3.822  1.00  0.00     0.059 A 
HETATM    9  C   UNL     1      65.062   8.109   5.385  1.00  0.00     0.052 A 
HETATM   10  C   UNL     1      65.381   6.956   4.666  1.00  0.00     0.019 A 
HETATM   11  C   UNL     1      63.602   7.459   3.120  1.00  0.00     0.033 A 
HETATM   12  C   UNL     1      64.655   6.636   3.522  1.00  0.00     0.023 A 
HETATM   13  C   UNL     1      62.785  10.861   5.204  1.00  0.00     0.105 A 
HETATM   14  C   UNL     1      62.042  10.522   4.093  1.00  0.00     0.105 A 
ENDROOT
TORSDOF 0
ENDMDL
MODEL 3
REMARK VINA RESULT:      -4.7      2.198      4.140
REMARK  0 active torsions:
REMARK  status: ('A' for Active; 'I' for Inactive)
ROOT
HETATM    1  C   UNL     1      62.039  10.709   2.508  1.00  0.00    -0.078 C 
HETATM    2  C   UNL     1      61.700  11.779   2.075  1.00  0.00     0.018 C 
HETATM    3  C   UNL     1      63.295   8.090   4.846  1.00  0.00     0.060 A 
HETATM    4  N   UNL     1      63.666   7.998   6.139  1.00  0.00    -0.363 N 
ATOM      5  HN  UNL     1      63.671   8.810   6.755  1.00  0.00     0.165 HD
HETATM    6  N   UNL     1      63.690   5.742   4.444  1.00  0.00    -0.363 N 
ATOM      7  HN  UNL     1      63.714   4.925   3.834  1.00  0.00     0.165 HD
HETATM    8  C   UNL     1      63.300   6.952   3.997  1.00  0.00     0.059 A 
HETATM    9  C   UNL     1      62.889   9.315   4.334  1.00  0.00     0.052 A 
HETATM   10  C   UNL     1      62.457   9.440   3.012  1.00  0.00     0.019 A 
HETATM   11  C   UNL     1      62.876   7.090   2.682  1.00  0.00     0.033 A 
HETATM   12  C   UNL     1      62.440   8.319   2.186  1.00  0.00     0.023 A 
HETATM   13  C   UNL     1      64.029   6.773   6.575  1.00  0.00     0.105 A 
HETATM   14  C   UNL     1      64.049   5.672   5.744  1.00  0.00     0.105 A 
ENDROOT
TORSDOF 0
ENDMDL
MODEL 4
REMARK VINA RESULT:      -4.7      3.244      4.969
REMARK  0 active torsions:
REMARK  status: ('A' for Active; 'I' for Inactive)
ROOT
HETATM    1  C   UNL     1      62.564   9.683   3.628  1.00  0.00    -0.078 C 
HETATM    2  C   UNL     1      61.782  10.531   3.290  1.00  0.00     0.018 C 
HETATM    3  C   UNL     1      65.266   7.924   5.503  1.00  0.00     0.060 A 
HETATM    4  N   UNL     1      66.037   8.144   6.587  1.00  0.00    -0.363 N 
ATOM      5  HN  UNL     1      65.977   9.010   7.121  1.00  0.00     0.165 HD
HETATM    6  N   UNL     1      66.242   5.753   5.103  1.00  0.00    -0.363 N 
ATOM      7  HN  UNL     1      66.331   4.891   4.564  1.00  0.00     0.165 HD
HETATM    8  C   UNL     1      65.365   6.717   4.763  1.00  0.00     0.059 A 
HETATM    9  C   UNL     1      64.348   8.889   5.107  1.00  0.00     0.052 A 
HETATM   10  C   UNL     1      63.504   8.678   4.015  1.00  0.00     0.019 A 
HETATM   11  C   UNL     1      64.525   6.523   3.674  1.00  0.00     0.033 A 
HETATM   12  C   UNL     1      63.585   7.485   3.303  1.00  0.00     0.023 A 
HETATM   13  C   UNL     1      66.892   7.155   6.927  1.00  0.00     0.105 A 
HETATM   14  C   UNL     1      66.997   5.990   6.197  1.00  0.00     0.105 A 
ENDROOT
TORSDOF 0
ENDMDL
MODEL 5
REMARK VINA RESULT:      -4.6      2.440      3.914
REMARK  0 active torsions:
REMARK  status: ('A' for Active; 'I' for Inactive)
ROOT
HETATM    1  C   UNL     1      61.723   8.625   1.906  1.00  0.00    -0.078 C 
HETATM    2  C   UNL     1      60.935   8.648   0.997  1.00  0.00     0.018 C 
HETATM    3  C   UNL     1      64.476   7.502   4.157  1.00  0.00     0.060 A 
HETATM    4  N   UNL     1      65.379   6.503   4.210  1.00  0.00    -0.363 N 
ATOM      5  HN  UNL     1      65.407   5.766   3.505  1.00  0.00     0.165 HD
HETATM    6  N   UNL     1      65.299   8.512   6.188  1.00  0.00    -0.363 N 
ATOM      7  HN  UNL     1      65.268   9.228   6.915  1.00  0.00     0.165 HD
HETATM    8  C   UNL     1      64.443   8.517   5.148  1.00  0.00     0.059 A 
HETATM    9  C   UNL     1      63.567   7.550   3.107  1.00  0.00     0.052 A 
HETATM   10  C   UNL     1      62.646   8.593   2.996  1.00  0.00     0.019 A 
HETATM   11  C   UNL     1      63.517   9.545   5.031  1.00  0.00     0.033 A 
HETATM   12  C   UNL     1      62.628   9.601   3.956  1.00  0.00     0.023 A 
HETATM   13  C   UNL     1      66.245   6.529   5.245  1.00  0.00     0.105 A 
HETATM   14  C   UNL     1      66.201   7.507   6.216  1.00  0.00     0.105 A 
ENDROOT
TORSDOF 0
ENDMDL
MODEL 6
REMARK VINA RESULT:      -4.4      2.226      3.954
REMARK  0 active torsions:
REMARK  status: ('A' for Active; 'I' for Inactive)
ROOT
HETATM    1  C   UNL     1      65.301   8.103   5.599  1.00  0.00    -0.078 C 
HETATM    2  C   UNL     1      66.218   7.820   6.323  1.00  0.00     0.018 C 
HETATM    3  C   UNL     1      62.921   8.025   2.729  1.00  0.00     0.060 A 
HETATM    4  N   UNL     1      62.682   7.255   1.648  1.00  0.00    -0.363 N 
ATOM      5  HN  UNL     1      63.261   6.445   1.428  1.00  0.00     0.165 HD
HETATM    6  N   UNL     1      61.087   9.510   2.221  1.00  0.00    -0.363 N 
ATOM      7  HN  UNL     1      60.513  10.332   2.414  1.00  0.00     0.165 HD
HETATM    8  C   UNL     1      62.112   9.154   3.020  1.00  0.00     0.059 A 
HETATM    9  C   UNL     1      63.969   7.704   3.582  1.00  0.00     0.052 A 
HETATM   10  C   UNL     1      64.219   8.454   4.733  1.00  0.00     0.019 A 
HETATM   11  C   UNL     1      62.376   9.896   4.163  1.00  0.00     0.033 A 
HETATM   12  C   UNL     1      63.412   9.547   5.030  1.00  0.00     0.023 A 
HETATM   13  C   UNL     1      61.635   7.612   0.874  1.00  0.00     0.105 A 
HETATM   14  C   UNL     1      60.860   8.719   1.150  1.00  0.00     0.105 A 
ENDROOT
TORSDOF 0
ENDMDL
MODEL 7
REMARK VINA RESULT:      -4.4      2.988      4.704
REMARK  0 active torsions:
REMARK  status: ('A' for Active; 'I' for Inactive)
ROOT
HETATM    1  C   UNL     1      61.885  10.808   2.772  1.00  0.00    -0.078 C 
HETATM    2  C   UNL     1      61.764  11.775   2.066  1.00  0.00     0.018 C 
HETATM    3  C   UNL     1      61.289   7.452   4.286  1.00  0.00     0.060 A 
HETATM    4  N   UNL     1      60.480   6.394   4.084  1.00  0.00    -0.363 N 
ATOM      5  HN  UNL     1      59.768   6.394   3.354  1.00  0.00     0.165 HD
HETATM    6  N   UNL     1      62.422   6.384   6.131  1.00  0.00    -0.363 N 
ATOM      7  HN  UNL     1      63.113   6.378   6.881  1.00  0.00     0.165 HD
HETATM    8  C   UNL     1      62.271   7.442   5.311  1.00  0.00     0.059 A 
HETATM    9  C   UNL     1      61.172   8.572   3.471  1.00  0.00     0.052 A 
HETATM   10  C   UNL     1      62.021   9.669   3.624  1.00  0.00     0.019 A 
HETATM   11  C   UNL     1      63.105   8.543   5.457  1.00  0.00     0.033 A 
HETATM   12  C   UNL     1      62.999   9.650   4.614  1.00  0.00     0.023 A 
HETATM   13  C   UNL     1      60.663   5.332   4.898  1.00  0.00     0.105 A 
HETATM   14  C   UNL     1      61.607   5.330   5.904  1.00  0.00     0.105 A 
ENDROOT
TORSDOF 0
ENDMDL
MODEL 8
REMARK VINA RESULT:      -4.4      2.077      3.082
REMARK  0 active torsions:
REMARK  status: ('A' for Active; 'I' for Inactive)
ROOT
HETATM    1  C   UNL     1      65.211   5.418   2.956  1.00  0.00    -0.078 C 
HETATM    2  C   UNL     1      65.525   4.414   2.372  1.00  0.00     0.018 C 
HETATM    3  C   UNL     1      63.413   8.560   3.852  1.00  0.00     0.060 A 
HETATM    4  N   UNL     1      62.346   9.260   3.416  1.00  0.00    -0.363 N 
ATOM      5  HN  UNL     1      61.806   8.965   2.604  1.00  0.00     0.165 HD
HETATM    6  N   UNL     1      63.849  10.114   5.646  1.00  0.00    -0.363 N 
ATOM      7  HN  UNL     1      64.395  10.436   6.446  1.00  0.00     0.165 HD
HETATM    8  C   UNL     1      64.162   8.986   4.979  1.00  0.00     0.059 A 
HETATM    9  C   UNL     1      63.781   7.392   3.196  1.00  0.00     0.052 A 
HETATM   10  C   UNL     1      64.853   6.618   3.644  1.00  0.00     0.019 A 
HETATM   11  C   UNL     1      65.231   8.212   5.411  1.00  0.00     0.033 A 
HETATM   12  C   UNL     1      65.573   7.024   4.763  1.00  0.00     0.023 A 
HETATM   13  C   UNL     1      62.033  10.373   4.113  1.00  0.00     0.105 A 
HETATM   14  C   UNL     1      62.772  10.795   5.198  1.00  0.00     0.105 A 
ENDROOT
TORSDOF 0
ENDMDL
MODEL 9
REMARK VINA RESULT:      -4.3      4.983      6.304
REMARK  0 active torsions:
REMARK  status: ('A' for Active; 'I' for Inactive)
ROOT
HETATM    1  C   UNL     1      63.772   7.637   4.216  1.00  0.00    -0.078 C 
HETATM    2  C   UNL     1      62.935   7.789   3.365  1.00  0.00     0.018 C 
HETATM    3  C   UNL     1      65.734   6.116   6.999  1.00  0.00     0.060 A 
HETATM    4  N   UNL     1      65.753   4.961   7.694  1.00  0.00    -0.363 N 
ATOM      5  HN  UNL     1      65.076   4.219   7.521  1.00  0.00     0.165 HD
HETATM    6  N   UNL     1      67.618   7.015   8.212  1.00  0.00    -0.363 N 
ATOM      7  HN  UNL     1      68.287   7.758   8.414  1.00  0.00     0.165 HD
HETATM    8  C   UNL     1      66.678   7.145   7.255  1.00  0.00     0.059 A 
HETATM    9  C   UNL     1      64.781   6.303   6.005  1.00  0.00     0.052 A 
HETATM   10  C   UNL     1      64.758   7.468   5.236  1.00  0.00     0.019 A 
HETATM   11  C   UNL     1      66.638   8.302   6.489  1.00  0.00     0.033 A 
HETATM   12  C   UNL     1      65.697   8.467   5.472  1.00  0.00     0.023 A 
HETATM   13  C   UNL     1      66.718   4.839   8.630  1.00  0.00     0.105 A 
HETATM   14  C   UNL     1      67.625   5.846   8.889  1.00  0.00     0.105 A 
ENDROOT
TORSDOF 0
ENDMDL
