MODEL 1
REMARK VINA RESULT:      -4.4      0.000      0.000
REMARK  3 active torsions:
REMARK  status: ('A' for Active; 'I' for Inactive)
REMARK    1  A    between atoms: C_1  and  C_5 
REMARK    2  A    between atoms: C_6  and  C_12 
REMARK    3  A    between atoms: C_12  and  N_13 
ROOT
HETATM    1  C   UNL     1      64.869   7.874   5.328  1.00  0.00     0.091 A 
HETATM    2  N   UNL     1      64.477   9.047   5.795  1.00  0.00    -0.351 N 
ATOM      3  HN  UNL     1      64.867   9.504   6.619  1.00  0.00     0.166 HD
HETATM    4  S   UNL     1      64.029   7.347   3.916  1.00  0.00    -0.081 SA
HETATM    5  C   UNL     1      63.455   9.570   5.004  1.00  0.00     0.042 A 
HETATM    6  C   UNL     1      63.089   8.771   3.937  1.00  0.00     0.078 A 
ENDROOT
BRANCH   1   7
HETATM    7  C   UNL     1      65.913   7.106   5.973  1.00  0.00     0.038 A 
HETATM    8  S   UNL     1      65.814   6.547   7.597  1.00  0.00    -0.099 SA
HETATM    9  C   UNL     1      67.353   5.814   7.526  1.00  0.00     0.050 A 
HETATM   10  C   UNL     1      67.945   5.977   6.296  1.00  0.00     0.008 A 
HETATM   11  C   UNL     1      67.114   6.719   5.402  1.00  0.00     0.022 A 
ENDBRANCH   1   7
BRANCH   5  12
HETATM   12  C   UNL     1      62.867  10.900   5.347  1.00  0.00     0.286 C 
BRANCH  12  13
HETATM   13  N   UNL     1      63.717  11.546   6.342  1.00  0.00    -0.074 N 
HETATM   14  H   UNL     1      63.352  12.475   6.551  1.00  0.00     0.274 HD
HETATM   15  H   UNL     1      64.666  11.628   5.977  1.00  0.00     0.274 HD
HETATM   16  H   UNL     1      63.729  10.986   7.195  1.00  0.00     0.274 HD
ENDBRANCH  12  13
ENDBRANCH   5  12
TORSDOF 3
ENDMDL
MODEL 2
REMARK VINA RESULT:      -4.4      1.995      5.282
REMARK  3 active torsions:
REMARK  status: ('A' for Active; 'I' for Inactive)
REMARK    1  A    between atoms: C_1  and  C_5 
REMARK    2  A    between atoms: C_6  and  C_12 
REMARK    3  A    between atoms: C_12  and  N_13 
ROOT
HETATM    1  C   UNL     1      63.459   8.362   4.877  1.00  0.00     0.091 A 
HETATM    2  N   UNL     1      64.758   8.419   5.111  1.00  0.00    -0.351 N 
ATOM      3  HN  UNL     1      65.403   9.066   4.657  1.00  0.00     0.166 HD
HETATM    4  S   UNL     1      62.617   7.166   5.793  1.00  0.00    -0.081 SA
HETATM    5  C   UNL     1      65.124   7.470   6.064  1.00  0.00     0.042 A 
HETATM    6  C   UNL     1      64.079   6.702   6.540  1.00  0.00     0.078 A 
ENDROOT
BRANCH   1   7
HETATM    7  C   UNL     1      62.817   9.235   3.917  1.00  0.00     0.038 A 
HETATM    8  S   UNL     1      62.470   8.770   2.296  1.00  0.00    -0.099 SA
HETATM    9  C   UNL     1      61.787  10.287   1.920  1.00  0.00     0.050 A 
HETATM   10  C   UNL     1      61.810  11.144   2.995  1.00  0.00     0.008 A 
HETATM   11  C   UNL     1      62.400  10.535   4.145  1.00  0.00     0.022 A 
ENDBRANCH   1   7
BRANCH   5  12
HETATM   12  C   UNL     1      66.554   7.366   6.487  1.00  0.00     0.286 C 
BRANCH  12  13
HETATM   13  N   UNL     1      66.946   8.619   7.125  1.00  0.00    -0.074 N 
HETATM   14  H   UNL     1      66.296   8.834   7.881  1.00  0.00     0.274 HD
HETATM   15  H   UNL     1      66.927   9.372   6.437  1.00  0.00     0.274 HD
HETATM   16  H   UNL     1      67.889   8.527   7.503  1.00  0.00     0.274 HD
ENDBRANCH  12  13
ENDBRANCH   5  12
TORSDOF 3
ENDMDL
MODEL 3
REMARK VINA RESULT:      -4.3      1.962      5.003
REMARK  3 active torsions:
REMARK  status: ('A' for Active; 'I' for Inactive)
REMARK    1  A    between atoms: C_1  and  C_5 
REMARK    2  A    between atoms: C_6  and  C_12 
REMARK    3  A    between atoms: C_12  and  N_13 
ROOT
HETATM    1  C   UNL     1      64.320   7.873   4.922  1.00  0.00     0.091 A 
HETATM    2  N   UNL     1      64.620   7.858   6.209  1.00  0.00    -0.351 N 
ATOM      3  HN  UNL     1      64.257   8.516   6.898  1.00  0.00     0.166 HD
HETATM    4  S   UNL     1      65.084   6.636   3.993  1.00  0.00    -0.081 SA
HETATM    5  C   UNL     1      65.503   6.817   6.492  1.00  0.00     0.042 A 
HETATM    6  C   UNL     1      65.859   6.053   5.397  1.00  0.00     0.078 A 
ENDROOT
BRANCH   1   7
HETATM    7  C   UNL     1      63.428   8.864   4.357  1.00  0.00     0.038 A 
HETATM    8  S   UNL     1      62.988  10.316   5.169  1.00  0.00    -0.099 SA
HETATM    9  C   UNL     1      61.987  10.828   3.886  1.00  0.00     0.050 A 
HETATM   10  C   UNL     1      61.978   9.925   2.848  1.00  0.00     0.008 A 
HETATM   11  C   UNL     1      62.811   8.797   3.120  1.00  0.00     0.022 A 
ENDBRANCH   1   7
BRANCH   5  12
HETATM   12  C   UNL     1      65.969   6.610   7.897  1.00  0.00     0.286 C 
BRANCH  12  13
HETATM   13  N   UNL     1      67.201   7.365   8.098  1.00  0.00    -0.074 N 
HETATM   14  H   UNL     1      67.890   7.085   7.400  1.00  0.00     0.274 HD
HETATM   15  H   UNL     1      67.568   7.175   9.032  1.00  0.00     0.274 HD
HETATM   16  H   UNL     1      67.009   8.362   8.005  1.00  0.00     0.274 HD
ENDBRANCH  12  13
ENDBRANCH   5  12
TORSDOF 3
ENDMDL
MODEL 4
REMARK VINA RESULT:      -4.2      2.063      5.086
REMARK  3 active torsions:
REMARK  status: ('A' for Active; 'I' for Inactive)
REMARK    1  A    between atoms: C_1  and  C_5 
REMARK    2  A    between atoms: C_6  and  C_12 
REMARK    3  A    between atoms: C_12  and  N_13 
ROOT
HETATM    1  C   UNL     1      65.275   7.804   5.481  1.00  0.00     0.091 A 
HETATM    2  N   UNL     1      65.198   7.479   6.760  1.00  0.00    -0.351 N 
ATOM      3  HN  UNL     1      64.368   7.600   7.340  1.00  0.00     0.166 HD
HETATM    4  S   UNL     1      66.807   7.487   4.752  1.00  0.00    -0.081 SA
HETATM    5  C   UNL     1      66.409   6.950   7.203  1.00  0.00     0.042 A 
HETATM    6  C   UNL     1      67.394   6.883   6.237  1.00  0.00     0.078 A 
ENDROOT
BRANCH   1   7
HETATM    7  C   UNL     1      64.156   8.388   4.772  1.00  0.00     0.038 A 
HETATM    8  S   UNL     1      63.437   7.673   3.381  1.00  0.00    -0.099 SA
HETATM    9  C   UNL     1      62.303   8.936   3.216  1.00  0.00     0.050 A 
HETATM   10  C   UNL     1      62.450   9.892   4.194  1.00  0.00     0.008 A 
HETATM   11  C   UNL     1      63.516   9.573   5.090  1.00  0.00     0.022 A 
ENDBRANCH   1   7
BRANCH   5  12
HETATM   12  C   UNL     1      66.541   6.506   8.624  1.00  0.00     0.286 C 
BRANCH  12  13
HETATM   13  N   UNL     1      67.957   6.465   8.973  1.00  0.00    -0.074 N 
HETATM   14  H   UNL     1      68.091   6.869   9.900  1.00  0.00     0.274 HD
HETATM   15  H   UNL     1      68.492   7.001   8.289  1.00  0.00     0.274 HD
HETATM   16  H   UNL     1      68.280   5.498   8.973  1.00  0.00     0.274 HD
ENDBRANCH  12  13
ENDBRANCH   5  12
TORSDOF 3
ENDMDL
MODEL 5
REMARK VINA RESULT:      -3.7      2.329      2.774
REMARK  3 active torsions:
REMARK  status: ('A' for Active; 'I' for Inactive)
REMARK    1  A    between atoms: C_1  and  C_5 
REMARK    2  A    between atoms: C_6  and  C_12 
REMARK    3  A    between atoms: C_12  and  N_13 
ROOT
HETATM    1  C   UNL     1      64.040   8.396   4.617  1.00  0.00     0.091 A 
HETATM    2  N   UNL     1      63.617   7.928   3.456  1.00  0.00    -0.351 N 
ATOM      3  HN  UNL     1      64.006   7.113   2.982  1.00  0.00     0.166 HD
HETATM    4  S   UNL     1      63.193   9.790   5.179  1.00  0.00    -0.081 SA
HETATM    5  C   UNL     1      62.566   8.704   2.970  1.00  0.00     0.042 A 
HETATM    6  C   UNL     1      62.208   9.760   3.786  1.00  0.00     0.078 A 
ENDROOT
BRANCH   1   7
HETATM    7  C   UNL     1      65.135   7.780   5.336  1.00  0.00     0.038 A 
HETATM    8  S   UNL     1      64.915   6.725   6.678  1.00  0.00    -0.099 SA
HETATM    9  C   UNL     1      66.594   6.506   6.887  1.00  0.00     0.050 A 
HETATM   10  C   UNL     1      67.325   7.212   5.961  1.00  0.00     0.008 A 
HETATM   11  C   UNL     1      66.483   7.942   5.067  1.00  0.00     0.022 A 
ENDBRANCH   1   7
BRANCH   5  12
HETATM   12  C   UNL     1      61.928   8.344   1.668  1.00  0.00     0.286 C 
BRANCH  12  13
HETATM   13  N   UNL     1      60.747   9.181   1.478  1.00  0.00    -0.074 N 
HETATM   14  H   UNL     1      61.035  10.123   1.214  1.00  0.00     0.274 HD
HETATM   15  H   UNL     1      60.214   9.220   2.347  1.00  0.00     0.274 HD
HETATM   16  H   UNL     1      60.164   8.785   0.740  1.00  0.00     0.274 HD
ENDBRANCH  12  13
ENDBRANCH   5  12
TORSDOF 3
ENDMDL
MODEL 6
REMARK VINA RESULT:      -3.6      3.108      6.050
REMARK  3 active torsions:
REMARK  status: ('A' for Active; 'I' for Inactive)
REMARK    1  A    between atoms: C_1  and  C_5 
REMARK    2  A    between atoms: C_6  and  C_12 
REMARK    3  A    between atoms: C_12  and  N_13 
ROOT
HETATM    1  C   UNL     1      62.001   8.783   3.455  1.00  0.00     0.091 A 
HETATM    2  N   UNL     1      62.916   7.955   3.927  1.00  0.00    -0.351 N 
ATOM      3  HN  UNL     1      63.007   6.975   3.659  1.00  0.00     0.166 HD
HETATM    4  S   UNL     1      62.088  10.386   4.089  1.00  0.00    -0.081 SA
HETATM    5  C   UNL     1      63.739   8.608   4.843  1.00  0.00     0.042 A 
HETATM    6  C   UNL     1      63.426   9.938   5.049  1.00  0.00     0.078 A 
ENDROOT
BRANCH   1   7
HETATM    7  C   UNL     1      61.008   8.356   2.492  1.00  0.00     0.038 A 
HETATM    8  S   UNL     1      59.644   7.389   2.902  1.00  0.00    -0.099 SA
HETATM    9  C   UNL     1      59.076   7.361   1.294  1.00  0.00     0.050 A 
HETATM   10  C   UNL     1      59.894   8.070   0.446  1.00  0.00     0.008 A 
HETATM   11  C   UNL     1      61.004   8.645   1.138  1.00  0.00     0.022 A 
ENDBRANCH   1   7
BRANCH   5  12
HETATM   12  C   UNL     1      64.854   7.857   5.496  1.00  0.00     0.286 C 
BRANCH  12  13
HETATM   13  N   UNL     1      64.369   7.298   6.754  1.00  0.00    -0.074 N 
HETATM   14  H   UNL     1      63.581   7.851   7.091  1.00  0.00     0.274 HD
HETATM   15  H   UNL     1      65.119   7.317   7.446  1.00  0.00     0.274 HD
HETATM   16  H   UNL     1      64.069   6.334   6.604  1.00  0.00     0.274 HD
ENDBRANCH  12  13
ENDBRANCH   5  12
TORSDOF 3
ENDMDL
MODEL 7
REMARK VINA RESULT:      -3.5      4.449      6.628
REMARK  3 active torsions:
REMARK  status: ('A' for Active; 'I' for Inactive)
REMARK    1  A    between atoms: C_1  and  C_5 
REMARK    2  A    between atoms: C_6  and  C_12 
REMARK    3  A    between atoms: C_12  and  N_13 
ROOT
HETATM    1  C   UNL     1      60.374   7.721   3.685  1.00  0.00     0.091 A 
HETATM    2  N   UNL     1      60.406   8.700   2.797  1.00  0.00    -0.351 N 
ATOM      3  HN  UNL     1      59.588   9.077   2.319  1.00  0.00     0.166 HD
HETATM    4  S   UNL     1      61.914   7.289   4.332  1.00  0.00    -0.081 SA
HETATM    5  C   UNL     1      61.714   9.143   2.606  1.00  0.00     0.042 A 
HETATM    6  C   UNL     1      62.660   8.481   3.365  1.00  0.00     0.078 A 
ENDROOT
BRANCH   1   7
HETATM    7  C   UNL     1      59.137   7.071   4.060  1.00  0.00     0.038 A 
HETATM    8  S   UNL     1      59.045   5.431   4.576  1.00  0.00    -0.099 SA
HETATM    9  C   UNL     1      57.353   5.503   4.780  1.00  0.00     0.050 A 
HETATM   10  C   UNL     1      56.849   6.744   4.470  1.00  0.00     0.008 A 
HETATM   11  C   UNL     1      57.878   7.646   4.059  1.00  0.00     0.022 A 
ENDBRANCH   1   7
BRANCH   5  12
HETATM   12  C   UNL     1      61.980  10.257   1.646  1.00  0.00     0.286 C 
BRANCH  12  13
HETATM   13  N   UNL     1      61.591  11.517   2.272  1.00  0.00    -0.074 N 
HETATM   14  H   UNL     1      62.247  11.743   3.019  1.00  0.00     0.274 HD
HETATM   15  H   UNL     1      60.652  11.429   2.659  1.00  0.00     0.274 HD
HETATM   16  H   UNL     1      61.602  12.261   1.573  1.00  0.00     0.274 HD
ENDBRANCH  12  13
ENDBRANCH   5  12
TORSDOF 3
ENDMDL
MODEL 8
REMARK VINA RESULT:      -3.5      9.805     10.243
REMARK  3 active torsions:
REMARK  status: ('A' for Active; 'I' for Inactive)
REMARK    1  A    between atoms: C_1  and  C_5 
REMARK    2  A    between atoms: C_6  and  C_12 
REMARK    3  A    between atoms: C_12  and  N_13 
ROOT
HETATM    1  C   UNL     1      58.574   2.532  10.765  1.00  0.00     0.091 A 
HETATM    2  N   UNL     1      58.520   3.839  10.578  1.00  0.00    -0.351 N 
ATOM      3  HN  UNL     1      58.295   4.521  11.303  1.00  0.00     0.166 HD
HETATM    4  S   UNL     1      58.981   1.623   9.356  1.00  0.00    -0.081 SA
HETATM    5  C   UNL     1      58.813   4.155   9.253  1.00  0.00     0.042 A 
HETATM    6  C   UNL     1      59.088   3.065   8.450  1.00  0.00     0.078 A 
ENDROOT
BRANCH   1   7
HETATM    7  C   UNL     1      58.299   1.932  12.053  1.00  0.00     0.038 A 
HETATM    8  S   UNL     1      56.786   1.223  12.466  1.00  0.00    -0.099 SA
HETATM    9  C   UNL     1      57.310   0.819  14.038  1.00  0.00     0.050 A 
HETATM   10  C   UNL     1      58.610   1.205  14.263  1.00  0.00     0.008 A 
HETATM   11  C   UNL     1      59.179   1.843  13.118  1.00  0.00     0.022 A 
ENDBRANCH   1   7
BRANCH   5  12
HETATM   12  C   UNL     1      58.818   5.586   8.822  1.00  0.00     0.286 C 
BRANCH  12  13
HETATM   13  N   UNL     1      59.877   5.775   7.835  1.00  0.00    -0.074 N 
HETATM   14  H   UNL     1      59.475   6.130   6.968  1.00  0.00     0.274 HD
HETATM   15  H   UNL     1      60.338   4.883   7.656  1.00  0.00     0.274 HD
HETATM   16  H   UNL     1      60.559   6.444   8.192  1.00  0.00     0.274 HD
ENDBRANCH  12  13
ENDBRANCH   5  12
TORSDOF 3
ENDMDL
MODEL 9
REMARK VINA RESULT:      -3.5      2.821      5.626
REMARK  3 active torsions:
REMARK  status: ('A' for Active; 'I' for Inactive)
REMARK    1  A    between atoms: C_1  and  C_5 
REMARK    2  A    between atoms: C_6  and  C_12 
REMARK    3  A    between atoms: C_12  and  N_13 
ROOT
HETATM    1  C   UNL     1      63.335   7.807   4.238  1.00  0.00     0.091 A 
HETATM    2  N   UNL     1      64.395   7.141   3.814  1.00  0.00    -0.351 N 
ATOM      3  HN  UNL     1      64.895   7.336   2.947  1.00  0.00     0.166 HD
HETATM    4  S   UNL     1      62.696   7.257   5.743  1.00  0.00    -0.081 SA
HETATM    5  C   UNL     1      64.732   6.135   4.719  1.00  0.00     0.042 A 
HETATM    6  C   UNL     1      63.909   6.059   5.826  1.00  0.00     0.078 A 
ENDROOT
BRANCH   1   7
HETATM    7  C   UNL     1      62.766   8.900   3.478  1.00  0.00     0.038 A 
HETATM    8  S   UNL     1      62.332  10.414   4.172  1.00  0.00    -0.099 SA
HETATM    9  C   UNL     1      61.781  11.034   2.682  1.00  0.00     0.050 A 
HETATM   10  C   UNL     1      61.919  10.122   1.662  1.00  0.00     0.008 A 
HETATM   11  C   UNL     1      62.490   8.896   2.121  1.00  0.00     0.022 A 
ENDBRANCH   1   7
BRANCH   5  12
HETATM   12  C   UNL     1      65.912   5.262   4.440  1.00  0.00     0.286 C 
BRANCH  12  13
HETATM   13  N   UNL     1      67.128   5.991   4.785  1.00  0.00    -0.074 N 
HETATM   14  H   UNL     1      66.923   6.989   4.836  1.00  0.00     0.274 HD
HETATM   15  H   UNL     1      67.838   5.826   4.072  1.00  0.00     0.274 HD
HETATM   16  H   UNL     1      67.473   5.669   5.690  1.00  0.00     0.274 HD
ENDBRANCH  12  13
ENDBRANCH   5  12
TORSDOF 3
ENDMDL
