MODEL 1
REMARK VINA RESULT:      -4.9      0.000      0.000
REMARK  3 active torsions:
REMARK  status: ('A' for Active; 'I' for Inactive)
REMARK    1  A    between atoms: C_1  and  C_3 
REMARK    2  A    between atoms: C_11  and  C_13 
REMARK    3  A    between atoms: O_12  and  C_13 
ROOT
HETATM    1  C   UNL     1      62.723   8.307   3.042  1.00  0.00    -0.019 A 
HETATM    2  C   UNL     1      61.933   9.464   2.968  1.00  0.00     0.013 A 
HETATM    3  C   UNL     1      63.616   8.191   4.119  1.00  0.00     0.013 A 
HETATM    4  C   UNL     1      63.729   9.204   5.079  1.00  0.00     0.010 A 
HETATM    5  C   UNL     1      62.040  10.476   3.927  1.00  0.00     0.010 A 
HETATM    6  C   UNL     1      62.947  10.359   4.988  1.00  0.00    -0.035 A 
ENDROOT
BRANCH   1   7
HETATM    7  C   UNL     1      62.593   7.249   2.020  1.00  0.00     0.015 A 
HETATM    8  S   UNL     1      61.169   7.115   1.061  1.00  0.00    -0.101 SA
HETATM    9  C   UNL     1      61.775   5.773   0.200  1.00  0.00     0.050 A 
HETATM   10  C   UNL     1      63.023   5.401   0.640  1.00  0.00     0.008 A 
HETATM   11  C   UNL     1      63.490   6.245   1.691  1.00  0.00     0.020 A 
ENDBRANCH   1   7
BRANCH   6  12
HETATM   12  C   UNL     1      63.070  11.457   6.009  1.00  0.00     0.202 C 
BRANCH  12  13
HETATM   13  O   UNL     1      64.418  11.579   6.446  1.00  0.00    -0.396 OA
HETATM   14  H   UNL     1      65.014  11.458   5.691  1.00  0.00     0.209 HD
ENDBRANCH  12  13
ENDBRANCH   6  12
TORSDOF 3
ENDMDL
MODEL 2
REMARK VINA RESULT:      -4.8      3.153      4.629
REMARK  3 active torsions:
REMARK  status: ('A' for Active; 'I' for Inactive)
REMARK    1  A    between atoms: C_1  and  C_3 
REMARK    2  A    between atoms: C_11  and  C_13 
REMARK    3  A    between atoms: O_12  and  C_13 
ROOT
HETATM    1  C   UNL     1      63.712   8.557   4.834  1.00  0.00    -0.019 A 
HETATM    2  C   UNL     1      63.406   8.132   3.533  1.00  0.00     0.013 A 
HETATM    3  C   UNL     1      63.215   9.802   5.251  1.00  0.00     0.013 A 
HETATM    4  C   UNL     1      62.453  10.603   4.392  1.00  0.00     0.010 A 
HETATM    5  C   UNL     1      62.642   8.928   2.673  1.00  0.00     0.010 A 
HETATM    6  C   UNL     1      62.165  10.176   3.092  1.00  0.00    -0.035 A 
ENDROOT
BRANCH   1   7
HETATM    7  C   UNL     1      64.518   7.702   5.728  1.00  0.00     0.015 A 
HETATM    8  S   UNL     1      66.196   8.007   5.968  1.00  0.00    -0.101 SA
HETATM    9  C   UNL     1      66.364   6.700   7.050  1.00  0.00     0.050 A 
HETATM   10  C   UNL     1      65.185   6.014   7.214  1.00  0.00     0.008 A 
HETATM   11  C   UNL     1      64.125   6.586   6.449  1.00  0.00     0.020 A 
ENDBRANCH   1   7
BRANCH   6  12
HETATM   12  C   UNL     1      61.357  11.036   2.159  1.00  0.00     0.202 C 
BRANCH  12  13
HETATM   13  O   UNL     1      62.082  12.209   1.812  1.00  0.00    -0.396 OA
HETATM   14  H   UNL     1      62.135  12.795   2.583  1.00  0.00     0.209 HD
ENDBRANCH  12  13
ENDBRANCH   6  12
TORSDOF 3
ENDMDL
MODEL 3
REMARK VINA RESULT:      -4.6      3.582      4.880
REMARK  3 active torsions:
REMARK  status: ('A' for Active; 'I' for Inactive)
REMARK    1  A    between atoms: C_1  and  C_3 
REMARK    2  A    between atoms: C_11  and  C_13 
REMARK    3  A    between atoms: O_12  and  C_13 
ROOT
HETATM    1  C   UNL     1      64.758   7.552   4.871  1.00  0.00    -0.019 A 
HETATM    2  C   UNL     1      64.308   8.796   5.335  1.00  0.00     0.013 A 
HETATM    3  C   UNL     1      64.209   7.059   3.677  1.00  0.00     0.013 A 
HETATM    4  C   UNL     1      63.231   7.778   2.978  1.00  0.00     0.010 A 
HETATM    5  C   UNL     1      63.334   9.519   4.638  1.00  0.00     0.010 A 
HETATM    6  C   UNL     1      62.779   9.011   3.456  1.00  0.00    -0.035 A 
ENDROOT
BRANCH   1   7
HETATM    7  C   UNL     1      65.789   6.805   5.620  1.00  0.00     0.015 A 
HETATM    8  S   UNL     1      65.636   6.544   7.315  1.00  0.00    -0.101 SA
HETATM    9  C   UNL     1      67.098   5.671   7.397  1.00  0.00     0.050 A 
HETATM   10  C   UNL     1      67.721   5.595   6.174  1.00  0.00     0.008 A 
HETATM   11  C   UNL     1      66.971   6.253   5.154  1.00  0.00     0.020 A 
ENDBRANCH   1   7
BRANCH   6  12
HETATM   12  C   UNL     1      61.719   9.784   2.718  1.00  0.00     0.202 C 
BRANCH  12  13
HETATM   13  O   UNL     1      61.317  10.919   3.474  1.00  0.00    -0.396 OA
HETATM   14  H   UNL     1      62.008  11.598   3.429  1.00  0.00     0.209 HD
ENDBRANCH  12  13
ENDBRANCH   6  12
TORSDOF 3
ENDMDL
MODEL 4
REMARK VINA RESULT:      -4.5      3.081      4.717
REMARK  3 active torsions:
REMARK  status: ('A' for Active; 'I' for Inactive)
REMARK    1  A    between atoms: C_1  and  C_3 
REMARK    2  A    between atoms: C_11  and  C_13 
REMARK    3  A    between atoms: O_12  and  C_13 
ROOT
HETATM    1  C   UNL     1      64.246   8.191   5.327  1.00  0.00    -0.019 A 
HETATM    2  C   UNL     1      65.581   8.599   5.461  1.00  0.00     0.013 A 
HETATM    3  C   UNL     1      63.825   7.071   6.060  1.00  0.00     0.013 A 
HETATM    4  C   UNL     1      64.713   6.369   6.884  1.00  0.00     0.010 A 
HETATM    5  C   UNL     1      66.470   7.904   6.287  1.00  0.00     0.010 A 
HETATM    6  C   UNL     1      66.046   6.775   7.000  1.00  0.00    -0.035 A 
ENDROOT
BRANCH   1   7
HETATM    7  C   UNL     1      63.322   8.940   4.452  1.00  0.00     0.015 A 
HETATM    8  S   UNL     1      62.823   8.297   2.934  1.00  0.00    -0.101 SA
HETATM    9  C   UNL     1      61.841   9.648   2.590  1.00  0.00     0.050 A 
HETATM   10  C   UNL     1      61.902  10.594   3.584  1.00  0.00     0.008 A 
HETATM   11  C   UNL     1      62.758  10.191   4.651  1.00  0.00     0.020 A 
ENDBRANCH   1   7
BRANCH   6  12
HETATM   12  C   UNL     1      67.009   6.020   7.876  1.00  0.00     0.202 C 
BRANCH  12  13
HETATM   13  O   UNL     1      67.676   6.911   8.762  1.00  0.00    -0.396 OA
HETATM   14  H   UNL     1      67.100   7.105   9.518  1.00  0.00     0.209 HD
ENDBRANCH  12  13
ENDBRANCH   6  12
TORSDOF 3
ENDMDL
MODEL 5
REMARK VINA RESULT:      -4.4      2.172      3.103
REMARK  3 active torsions:
REMARK  status: ('A' for Active; 'I' for Inactive)
REMARK    1  A    between atoms: C_1  and  C_3 
REMARK    2  A    between atoms: C_11  and  C_13 
REMARK    3  A    between atoms: O_12  and  C_13 
ROOT
HETATM    1  C   UNL     1      63.372   7.849   3.348  1.00  0.00    -0.019 A 
HETATM    2  C   UNL     1      64.313   6.812   3.279  1.00  0.00     0.013 A 
HETATM    3  C   UNL     1      63.562   8.843   4.321  1.00  0.00     0.013 A 
HETATM    4  C   UNL     1      64.645   8.793   5.206  1.00  0.00     0.010 A 
HETATM    5  C   UNL     1      65.399   6.761   4.159  1.00  0.00     0.010 A 
HETATM    6  C   UNL     1      65.570   7.748   5.138  1.00  0.00    -0.035 A 
ENDROOT
BRANCH   1   7
HETATM    7  C   UNL     1      62.233   7.886   2.408  1.00  0.00     0.015 A 
HETATM    8  S   UNL     1      60.612   7.782   2.979  1.00  0.00    -0.101 SA
HETATM    9  C   UNL     1      59.963   7.903   1.406  1.00  0.00     0.050 A 
HETATM   10  C   UNL     1      60.946   7.992   0.450  1.00  0.00     0.008 A 
HETATM   11  C   UNL     1      62.251   7.975   1.026  1.00  0.00     0.020 A 
ENDBRANCH   1   7
BRANCH   6  12
HETATM   12  C   UNL     1      66.731   7.681   6.093  1.00  0.00     0.202 C 
BRANCH  12  13
HETATM   13  O   UNL     1      66.795   8.864   6.880  1.00  0.00    -0.396 OA
HETATM   14  H   UNL     1      66.062   9.452   6.638  1.00  0.00     0.209 HD
ENDBRANCH  12  13
ENDBRANCH   6  12
TORSDOF 3
ENDMDL
MODEL 6
REMARK VINA RESULT:      -4.1      2.653      3.197
REMARK  3 active torsions:
REMARK  status: ('A' for Active; 'I' for Inactive)
REMARK    1  A    between atoms: C_1  and  C_3 
REMARK    2  A    between atoms: C_11  and  C_13 
REMARK    3  A    between atoms: O_12  and  C_13 
ROOT
HETATM    1  C   UNL     1      64.915   6.968   3.841  1.00  0.00    -0.019 A 
HETATM    2  C   UNL     1      63.708   7.375   3.253  1.00  0.00     0.013 A 
HETATM    3  C   UNL     1      65.422   7.739   4.898  1.00  0.00     0.013 A 
HETATM    4  C   UNL     1      64.757   8.889   5.341  1.00  0.00     0.010 A 
HETATM    5  C   UNL     1      63.038   8.520   3.695  1.00  0.00     0.010 A 
HETATM    6  C   UNL     1      63.562   9.294   4.739  1.00  0.00    -0.035 A 
ENDROOT
BRANCH   1   7
HETATM    7  C   UNL     1      65.606   5.754   3.361  1.00  0.00     0.015 A 
HETATM    8  S   UNL     1      64.726   4.464   2.634  1.00  0.00    -0.101 SA
HETATM    9  C   UNL     1      66.135   3.541   2.372  1.00  0.00     0.050 A 
HETATM   10  C   UNL     1      67.260   4.171   2.849  1.00  0.00     0.008 A 
HETATM   11  C   UNL     1      66.954   5.441   3.424  1.00  0.00     0.020 A 
ENDBRANCH   1   7
BRANCH   6  12
HETATM   12  C   UNL     1      62.846  10.534   5.202  1.00  0.00     0.202 C 
BRANCH  12  13
HETATM   13  O   UNL     1      63.665  11.273   6.099  1.00  0.00    -0.396 OA
HETATM   14  H   UNL     1      63.515  10.961   7.005  1.00  0.00     0.209 HD
ENDBRANCH  12  13
ENDBRANCH   6  12
TORSDOF 3
ENDMDL
MODEL 7
REMARK VINA RESULT:      -4.0      3.271      5.015
REMARK  3 active torsions:
REMARK  status: ('A' for Active; 'I' for Inactive)
REMARK    1  A    between atoms: C_1  and  C_3 
REMARK    2  A    between atoms: C_11  and  C_13 
REMARK    3  A    between atoms: O_12  and  C_13 
ROOT
HETATM    1  C   UNL     1      63.187   7.826   3.757  1.00  0.00    -0.019 A 
HETATM    2  C   UNL     1      62.576   9.072   3.550  1.00  0.00     0.013 A 
HETATM    3  C   UNL     1      62.835   6.773   2.898  1.00  0.00     0.013 A 
HETATM    4  C   UNL     1      61.892   6.953   1.879  1.00  0.00     0.010 A 
HETATM    5  C   UNL     1      61.637   9.257   2.531  1.00  0.00     0.010 A 
HETATM    6  C   UNL     1      61.279   8.195   1.690  1.00  0.00    -0.035 A 
ENDROOT
BRANCH   1   7
HETATM    7  C   UNL     1      64.178   7.651   4.837  1.00  0.00     0.015 A 
HETATM    8  S   UNL     1      63.874   6.583   6.153  1.00  0.00    -0.101 SA
HETATM    9  C   UNL     1      65.379   6.919   6.882  1.00  0.00     0.050 A 
HETATM   10  C   UNL     1      66.100   7.846   6.169  1.00  0.00     0.008 A 
HETATM   11  C   UNL     1      65.407   8.273   4.997  1.00  0.00     0.020 A 
ENDBRANCH   1   7
BRANCH   6  12
HETATM   12  C   UNL     1      60.256   8.394   0.605  1.00  0.00     0.202 C 
BRANCH  12  13
HETATM   13  O   UNL     1      58.975   8.642   1.170  1.00  0.00    -0.396 OA
HETATM   14  H   UNL     1      59.017   9.431   1.731  1.00  0.00     0.209 HD
ENDBRANCH  12  13
ENDBRANCH   6  12
TORSDOF 3
ENDMDL
MODEL 8
REMARK VINA RESULT:      -4.0      4.288      5.864
REMARK  3 active torsions:
REMARK  status: ('A' for Active; 'I' for Inactive)
REMARK    1  A    between atoms: C_1  and  C_3 
REMARK    2  A    between atoms: C_11  and  C_13 
REMARK    3  A    between atoms: O_12  and  C_13 
ROOT
HETATM    1  C   UNL     1      64.867   7.154   6.132  1.00  0.00    -0.019 A 
HETATM    2  C   UNL     1      63.648   6.465   6.044  1.00  0.00     0.013 A 
HETATM    3  C   UNL     1      64.990   8.362   5.428  1.00  0.00     0.013 A 
HETATM    4  C   UNL     1      63.938   8.856   4.648  1.00  0.00     0.010 A 
HETATM    5  C   UNL     1      62.593   6.958   5.269  1.00  0.00     0.010 A 
HETATM    6  C   UNL     1      62.732   8.155   4.555  1.00  0.00    -0.035 A 
ENDROOT
BRANCH   1   7
HETATM    7  C   UNL     1      65.968   6.618   6.958  1.00  0.00     0.015 A 
HETATM    8  S   UNL     1      67.329   5.854   6.230  1.00  0.00    -0.101 SA
HETATM    9  C   UNL     1      68.075   5.563   7.735  1.00  0.00     0.050 A 
HETATM   10  C   UNL     1      67.305   6.004   8.785  1.00  0.00     0.008 A 
HETATM   11  C   UNL     1      66.090   6.605   8.338  1.00  0.00     0.020 A 
ENDBRANCH   1   7
BRANCH   6  12
HETATM   12  C   UNL     1      61.600   8.674   3.710  1.00  0.00     0.202 C 
BRANCH  12  13
HETATM   13  O   UNL     1      60.455   7.842   3.850  1.00  0.00    -0.396 OA
HETATM   14  H   UNL     1      60.081   7.657   2.975  1.00  0.00     0.209 HD
ENDBRANCH  12  13
ENDBRANCH   6  12
TORSDOF 3
ENDMDL
MODEL 9
REMARK VINA RESULT:      -3.9      3.011      3.919
REMARK  3 active torsions:
REMARK  status: ('A' for Active; 'I' for Inactive)
REMARK    1  A    between atoms: C_1  and  C_3 
REMARK    2  A    between atoms: C_11  and  C_13 
REMARK    3  A    between atoms: O_12  and  C_13 
ROOT
HETATM    1  C   UNL     1      62.681   7.292   5.091  1.00  0.00    -0.019 A 
HETATM    2  C   UNL     1      63.203   6.536   6.151  1.00  0.00     0.013 A 
HETATM    3  C   UNL     1      63.537   8.202   4.452  1.00  0.00     0.013 A 
HETATM    4  C   UNL     1      64.863   8.366   4.869  1.00  0.00     0.010 A 
HETATM    5  C   UNL     1      64.528   6.693   6.568  1.00  0.00     0.010 A 
HETATM    6  C   UNL     1      65.369   7.618   5.936  1.00  0.00    -0.035 A 
ENDROOT
BRANCH   1   7
HETATM    7  C   UNL     1      61.279   7.109   4.664  1.00  0.00     0.015 A 
HETATM    8  S   UNL     1      60.637   7.995   3.334  1.00  0.00    -0.101 SA
HETATM    9  C   UNL     1      59.106   7.257   3.474  1.00  0.00     0.050 A 
HETATM   10  C   UNL     1      59.056   6.372   4.525  1.00  0.00     0.008 A 
HETATM   11  C   UNL     1      60.303   6.293   5.213  1.00  0.00     0.020 A 
ENDBRANCH   1   7
BRANCH   6  12
HETATM   12  C   UNL     1      66.790   7.796   6.398  1.00  0.00     0.202 C 
BRANCH  12  13
HETATM   13  O   UNL     1      66.917   8.987   7.166  1.00  0.00    -0.396 OA
HETATM   14  H   UNL     1      66.659   9.749   6.625  1.00  0.00     0.209 HD
ENDBRANCH  12  13
ENDBRANCH   6  12
TORSDOF 3
ENDMDL
