MODEL 1
REMARK VINA RESULT:      -5.4      0.000      0.000
REMARK  1 active torsions:
REMARK  status: ('A' for Active; 'I' for Inactive)
REMARK    1  A    between atoms: CA_1  and  C_4 
ROOT
HETATM    1  CA  UNL     1      63.401   7.839   5.348  1.00  0.00     0.111 A 
HETATM    2  N   UNL     1      63.062   9.158   5.555  1.00  0.00    -0.350 N 
HETATM    3  C   UNL     1      63.212   7.592   4.000  1.00  0.00     0.050 A 
HETATM    4  C   UNL     1      62.635   9.745   4.387  1.00  0.00     0.043 A 
HETATM    5  C   UNL     1      62.723   8.776   3.389  1.00  0.00    -0.007 A 
HETATM    6  C   UNL     1      62.177  11.046   4.136  1.00  0.00     0.030 A 
HETATM    7  C   UNL     1      62.339   9.113   2.078  1.00  0.00     0.014 A 
HETATM    8  C   UNL     1      61.794  11.355   2.826  1.00  0.00     0.002 A 
HETATM    9  C   UNL     1      61.872  10.405   1.811  1.00  0.00     0.001 A 
HETATM   10  H   UNL     1      63.118   9.618   6.424  1.00  0.00     0.166 HD
ENDROOT
BRANCH   1  11
HETATM   11  C   UNL     1      63.851   6.936   6.364  1.00  0.00     0.226 C 
HETATM   12  O   UNL     1      64.577   7.171   7.316  1.00  0.00    -0.643 OA
HETATM   13  OXT UNL     1      63.368   5.692   6.157  1.00  0.00    -0.643 OA
ENDBRANCH   1  11
TORSDOF 1
ENDMDL
MODEL 2
REMARK VINA RESULT:      -5.1      0.888      1.737
REMARK  1 active torsions:
REMARK  status: ('A' for Active; 'I' for Inactive)
REMARK    1  A    between atoms: CA_1  and  C_4 
ROOT
HETATM    1  CA  UNL     1      63.572   7.934   5.151  1.00  0.00     0.111 A 
HETATM    2  N   UNL     1      63.306   7.661   3.827  1.00  0.00    -0.350 N 
HETATM    3  C   UNL     1      63.155   9.233   5.375  1.00  0.00     0.050 A 
HETATM    4  C   UNL     1      62.762   8.757   3.199  1.00  0.00     0.043 A 
HETATM    5  C   UNL     1      62.654   9.763   4.158  1.00  0.00    -0.007 A 
HETATM    6  C   UNL     1      62.362   8.938   1.868  1.00  0.00     0.030 A 
HETATM    7  C   UNL     1      62.124  11.011   3.779  1.00  0.00     0.014 A 
HETATM    8  C   UNL     1      61.846  10.190   1.513  1.00  0.00     0.002 A 
HETATM    9  C   UNL     1      61.728  11.212   2.452  1.00  0.00     0.001 A 
HETATM   10  H   UNL     1      63.481   6.797   3.390  1.00  0.00     0.166 HD
ENDROOT
BRANCH   1  11
HETATM   11  C   UNL     1      64.172   7.019   6.075  1.00  0.00     0.226 C 
HETATM   12  O   UNL     1      64.422   7.194   7.256  1.00  0.00    -0.643 OA
HETATM   13  OXT UNL     1      64.471   5.847   5.474  1.00  0.00    -0.643 OA
ENDBRANCH   1  11
TORSDOF 1
ENDMDL
MODEL 3
REMARK VINA RESULT:      -5.1      2.780      3.812
REMARK  1 active torsions:
REMARK  status: ('A' for Active; 'I' for Inactive)
REMARK    1  A    between atoms: CA_1  and  C_4 
ROOT
HETATM    1  CA  UNL     1      62.488  10.081   3.947  1.00  0.00     0.111 A 
HETATM    2  N   UNL     1      61.733  10.155   2.797  1.00  0.00    -0.350 N 
HETATM    3  C   UNL     1      63.175   8.881   3.889  1.00  0.00     0.050 A 
HETATM    4  C   UNL     1      61.897   9.027   2.028  1.00  0.00     0.043 A 
HETATM    5  C   UNL     1      62.806   8.208   2.696  1.00  0.00    -0.007 A 
HETATM    6  C   UNL     1      61.316   8.667   0.804  1.00  0.00     0.030 A 
HETATM    7  C   UNL     1      63.156   6.971   2.123  1.00  0.00     0.014 A 
HETATM    8  C   UNL     1      61.673   7.428   0.259  1.00  0.00     0.002 A 
HETATM    9  C   UNL     1      62.579   6.591   0.906  1.00  0.00     0.001 A 
HETATM   10  H   UNL     1      61.154  10.914   2.559  1.00  0.00     0.166 HD
ENDROOT
BRANCH   1  11
HETATM   11  C   UNL     1      62.517  11.075   4.978  1.00  0.00     0.226 C 
HETATM   12  O   UNL     1      63.020  10.997   6.087  1.00  0.00    -0.643 OA
HETATM   13  OXT UNL     1      61.879  12.199   4.588  1.00  0.00    -0.643 OA
ENDBRANCH   1  11
TORSDOF 1
ENDMDL
MODEL 4
REMARK VINA RESULT:      -4.9      2.650      4.238
REMARK  1 active torsions:
REMARK  status: ('A' for Active; 'I' for Inactive)
REMARK    1  A    between atoms: CA_1  and  C_4 
ROOT
HETATM    1  CA  UNL     1      63.291   9.826   4.866  1.00  0.00     0.111 A 
HETATM    2  N   UNL     1      64.380   9.166   5.391  1.00  0.00    -0.350 N 
HETATM    3  C   UNL     1      62.822   9.044   3.825  1.00  0.00     0.050 A 
HETATM    4  C   UNL     1      64.634   8.006   4.696  1.00  0.00     0.043 A 
HETATM    5  C   UNL     1      63.661   7.906   3.703  1.00  0.00    -0.007 A 
HETATM    6  C   UNL     1      65.642   7.048   4.863  1.00  0.00     0.030 A 
HETATM    7  C   UNL     1      63.688   6.801   2.832  1.00  0.00     0.014 A 
HETATM    8  C   UNL     1      65.653   5.961   3.981  1.00  0.00     0.002 A 
HETATM    9  C   UNL     1      64.693   5.837   2.980  1.00  0.00     0.001 A 
HETATM   10  H   UNL     1      64.905   9.483   6.160  1.00  0.00     0.166 HD
ENDROOT
BRANCH   1  11
HETATM   11  C   UNL     1      62.783  11.080   5.336  1.00  0.00     0.226 C 
HETATM   12  O   UNL     1      62.032  11.853   4.764  1.00  0.00    -0.643 OA
HETATM   13  OXT UNL     1      63.253  11.363   6.569  1.00  0.00    -0.643 OA
ENDBRANCH   1  11
TORSDOF 1
ENDMDL
MODEL 5
REMARK VINA RESULT:      -4.7      2.835      3.935
REMARK  1 active torsions:
REMARK  status: ('A' for Active; 'I' for Inactive)
REMARK    1  A    between atoms: CA_1  and  C_4 
ROOT
HETATM    1  CA  UNL     1      62.095  10.055   3.807  1.00  0.00     0.111 A 
HETATM    2  N   UNL     1      61.646   8.777   4.057  1.00  0.00    -0.350 N 
HETATM    3  C   UNL     1      62.115  10.202   2.432  1.00  0.00     0.050 A 
HETATM    4  C   UNL     1      61.411   8.100   2.883  1.00  0.00     0.043 A 
HETATM    5  C   UNL     1      61.698   8.981   1.842  1.00  0.00    -0.007 A 
HETATM    6  C   UNL     1      60.974   6.787   2.661  1.00  0.00     0.030 A 
HETATM    7  C   UNL     1      61.544   8.539   0.514  1.00  0.00     0.014 A 
HETATM    8  C   UNL     1      60.836   6.368   1.333  1.00  0.00     0.002 A 
HETATM    9  C   UNL     1      61.116   7.228   0.274  1.00  0.00     0.001 A 
HETATM   10  H   UNL     1      61.512   8.399   4.956  1.00  0.00     0.166 HD
ENDROOT
BRANCH   1  11
HETATM   11  C   UNL     1      62.464  11.008   4.810  1.00  0.00     0.226 C 
HETATM   12  O   UNL     1      63.199  10.848   5.771  1.00  0.00    -0.643 OA
HETATM   13  OXT UNL     1      61.871  12.201   4.588  1.00  0.00    -0.643 OA
ENDBRANCH   1  11
TORSDOF 1
ENDMDL
MODEL 6
REMARK VINA RESULT:      -4.4      3.106      5.757
REMARK  1 active torsions:
REMARK  status: ('A' for Active; 'I' for Inactive)
REMARK    1  A    between atoms: CA_1  and  C_4 
ROOT
HETATM    1  CA  UNL     1      64.659   8.285   5.446  1.00  0.00     0.111 A 
HETATM    2  N   UNL     1      64.430   7.504   6.557  1.00  0.00    -0.350 N 
HETATM    3  C   UNL     1      65.961   8.033   5.050  1.00  0.00     0.050 A 
HETATM    4  C   UNL     1      65.555   6.789   6.896  1.00  0.00     0.043 A 
HETATM    5  C   UNL     1      66.535   7.104   5.957  1.00  0.00    -0.007 A 
HETATM    6  C   UNL     1      65.782   5.897   7.953  1.00  0.00     0.030 A 
HETATM    7  C   UNL     1      67.804   6.506   6.070  1.00  0.00     0.014 A 
HETATM    8  C   UNL     1      67.054   5.321   8.050  1.00  0.00     0.002 A 
HETATM    9  C   UNL     1      68.051   5.619   7.124  1.00  0.00     0.001 A 
HETATM   10  H   UNL     1      63.575   7.464   7.043  1.00  0.00     0.166 HD
ENDROOT
BRANCH   1  11
HETATM   11  C   UNL     1      63.706   9.176   4.855  1.00  0.00     0.226 C 
HETATM   12  O   UNL     1      63.112   9.051   3.797  1.00  0.00    -0.643 OA
HETATM   13  OXT UNL     1      63.511  10.264   5.631  1.00  0.00    -0.643 OA
ENDBRANCH   1  11
TORSDOF 1
ENDMDL
MODEL 7
REMARK VINA RESULT:      -4.3      3.494      6.505
REMARK  1 active torsions:
REMARK  status: ('A' for Active; 'I' for Inactive)
REMARK    1  A    between atoms: CA_1  and  C_4 
ROOT
HETATM    1  CA  UNL     1      64.380   6.446   6.597  1.00  0.00     0.111 A 
HETATM    2  N   UNL     1      65.151   7.047   7.568  1.00  0.00    -0.350 N 
HETATM    3  C   UNL     1      64.891   5.173   6.421  1.00  0.00     0.050 A 
HETATM    4  C   UNL     1      66.153   6.205   7.990  1.00  0.00     0.043 A 
HETATM    5  C   UNL     1      66.009   5.014   7.281  1.00  0.00    -0.007 A 
HETATM    6  C   UNL     1      67.172   6.403   8.932  1.00  0.00     0.030 A 
HETATM    7  C   UNL     1      66.917   3.965   7.519  1.00  0.00     0.014 A 
HETATM    8  C   UNL     1      68.068   5.349   9.146  1.00  0.00     0.002 A 
HETATM    9  C   UNL     1      67.945   4.148   8.451  1.00  0.00     0.001 A 
HETATM   10  H   UNL     1      65.003   7.957   7.913  1.00  0.00     0.166 HD
ENDROOT
BRANCH   1  11
HETATM   11  C   UNL     1      63.276   7.063   5.924  1.00  0.00     0.226 C 
HETATM   12  O   UNL     1      62.881   6.868   4.786  1.00  0.00    -0.643 OA
HETATM   13  OXT UNL     1      62.662   7.963   6.721  1.00  0.00    -0.643 OA
ENDBRANCH   1  11
TORSDOF 1
ENDMDL
MODEL 8
REMARK VINA RESULT:      -4.2      1.774      2.476
REMARK  1 active torsions:
REMARK  status: ('A' for Active; 'I' for Inactive)
REMARK    1  A    between atoms: CA_1  and  C_4 
ROOT
HETATM    1  CA  UNL     1      63.178   7.989   4.788  1.00  0.00     0.111 A 
HETATM    2  N   UNL     1      63.454   8.537   3.555  1.00  0.00    -0.350 N 
HETATM    3  C   UNL     1      61.903   7.458   4.706  1.00  0.00     0.050 A 
HETATM    4  C   UNL     1      62.382   8.398   2.704  1.00  0.00     0.043 A 
HETATM    5  C   UNL     1      61.391   7.716   3.407  1.00  0.00    -0.007 A 
HETATM    6  C   UNL     1      62.211   8.820   1.378  1.00  0.00     0.030 A 
HETATM    7  C   UNL     1      60.169   7.439   2.766  1.00  0.00     0.014 A 
HETATM    8  C   UNL     1      60.985   8.540   0.764  1.00  0.00     0.002 A 
HETATM    9  C   UNL     1      59.978   7.860   1.445  1.00  0.00     0.001 A 
HETATM   10  H   UNL     1      64.304   8.971   3.316  1.00  0.00     0.166 HD
ENDROOT
BRANCH   1  11
HETATM   11  C   UNL     1      64.068   7.997   5.910  1.00  0.00     0.226 C 
HETATM   12  O   UNL     1      64.011   7.321   6.924  1.00  0.00    -0.643 OA
HETATM   13  OXT UNL     1      65.056   8.901   5.740  1.00  0.00    -0.643 OA
ENDBRANCH   1  11
TORSDOF 1
ENDMDL
MODEL 9
REMARK VINA RESULT:      -4.2      2.656      4.848
REMARK  1 active torsions:
REMARK  status: ('A' for Active; 'I' for Inactive)
REMARK    1  A    between atoms: CA_1  and  C_4 
ROOT
HETATM    1  CA  UNL     1      63.059   9.218   4.993  1.00  0.00     0.111 A 
HETATM    2  N   UNL     1      64.395   9.341   5.308  1.00  0.00    -0.350 N 
HETATM    3  C   UNL     1      62.689   7.932   5.346  1.00  0.00     0.050 A 
HETATM    4  C   UNL     1      64.890   8.164   5.819  1.00  0.00     0.043 A 
HETATM    5  C   UNL     1      63.830   7.259   5.856  1.00  0.00    -0.007 A 
HETATM    6  C   UNL     1      66.182   7.829   6.247  1.00  0.00     0.030 A 
HETATM    7  C   UNL     1      64.062   5.958   6.340  1.00  0.00     0.014 A 
HETATM    8  C   UNL     1      66.390   6.528   6.716  1.00  0.00     0.002 A 
HETATM    9  C   UNL     1      65.349   5.604   6.763  1.00  0.00     0.001 A 
HETATM   10  H   UNL     1      64.923  10.161   5.182  1.00  0.00     0.166 HD
ENDROOT
BRANCH   1  11
HETATM   11  C   UNL     1      62.252  10.247   4.409  1.00  0.00     0.226 C 
HETATM   12  O   UNL     1      62.227  11.435   4.688  1.00  0.00    -0.643 OA
HETATM   13  OXT UNL     1      61.448   9.747   3.448  1.00  0.00    -0.643 OA
ENDBRANCH   1  11
TORSDOF 1
ENDMDL
