MODEL 1
REMARK VINA RESULT:      -5.1      0.000      0.000
REMARK  4 active torsions:
REMARK  status: ('A' for Active; 'I' for Inactive)
REMARK    1  A    between atoms: N_1  and  C_5 
REMARK    2  A    between atoms: C_4  and  C_10 
REMARK    3  A    between atoms: C_5  and  C_8 
REMARK    4  A    between atoms: O_9  and  C_10 
ROOT
HETATM    1  N   UNL     1      64.786   7.742   6.100  1.00  0.00    -0.063 N 
HETATM    2  O   UNL     1      66.626   5.680   7.110  1.00  0.00    -0.380 OA
HETATM    3  C   UNL     1      66.209   7.998   6.400  1.00  0.00     0.269 C 
HETATM    4  C   UNL     1      67.164   6.781   6.355  1.00  0.00     0.170 C 
HETATM    5  C   UNL     1      65.290   5.343   6.724  1.00  0.00     0.196 C 
HETATM    6  C   UNL     1      64.340   6.544   6.827  1.00  0.00     0.261 C 
HETATM    7  H   UNL     1      64.266   8.549   6.439  1.00  0.00     0.280 HD
ENDROOT
BRANCH   1   8
HETATM    8  C   UNL     1      64.431   7.732   4.677  1.00  0.00     0.273 C 
BRANCH   8   9
HETATM    9  C   UNL     1      63.479   8.857   4.317  1.00  0.00    -0.033 A 
HETATM   10  C   UNL     1      62.760   8.844   3.114  1.00  0.00     0.009 A 
HETATM   11  C   UNL     1      61.974   9.939   2.748  1.00  0.00     0.001 A 
HETATM   12  C   UNL     1      61.876  11.044   3.595  1.00  0.00     0.000 A 
HETATM   13  C   UNL     1      62.542  11.046   4.817  1.00  0.00     0.001 A 
HETATM   14  C   UNL     1      63.334   9.957   5.179  1.00  0.00     0.009 A 
ENDBRANCH   8   9
ENDBRANCH   1   8
BRANCH   4  15
HETATM   15  C   UNL     1      67.614   6.327   4.958  1.00  0.00     0.197 C 
BRANCH  15  16
HETATM   16  O   UNL     1      67.931   7.413   4.095  1.00  0.00    -0.398 OA
HETATM   17  H   UNL     1      68.660   7.157   3.508  1.00  0.00     0.209 HD
ENDBRANCH  15  16
ENDBRANCH   4  15
TORSDOF 4
ENDMDL
MODEL 2
REMARK VINA RESULT:      -4.9      1.196      2.171
REMARK  4 active torsions:
REMARK  status: ('A' for Active; 'I' for Inactive)
REMARK    1  A    between atoms: N_1  and  C_5 
REMARK    2  A    between atoms: C_4  and  C_10 
REMARK    3  A    between atoms: C_5  and  C_8 
REMARK    4  A    between atoms: O_9  and  C_10 
ROOT
HETATM    1  N   UNL     1      65.278   7.035   5.059  1.00  0.00    -0.063 N 
HETATM    2  O   UNL     1      67.605   5.669   6.232  1.00  0.00    -0.380 OA
HETATM    3  C   UNL     1      65.169   5.976   6.082  1.00  0.00     0.269 C 
HETATM    4  C   UNL     1      66.393   5.764   7.003  1.00  0.00     0.170 C 
HETATM    5  C   UNL     1      67.778   6.769   5.335  1.00  0.00     0.196 C 
HETATM    6  C   UNL     1      66.582   6.934   4.386  1.00  0.00     0.261 C 
HETATM    7  H   UNL     1      64.540   6.862   4.378  1.00  0.00     0.280 HD
ENDROOT
BRANCH   1   8
HETATM    8  C   UNL     1      64.954   8.391   5.514  1.00  0.00     0.273 C 
BRANCH   8   9
HETATM    9  C   UNL     1      63.810   9.001   4.728  1.00  0.00    -0.033 A 
HETATM   10  C   UNL     1      63.340   8.407   3.547  1.00  0.00     0.009 A 
HETATM   11  C   UNL     1      62.362   9.039   2.778  1.00  0.00     0.001 A 
HETATM   12  C   UNL     1      61.823  10.257   3.195  1.00  0.00     0.000 A 
HETATM   13  C   UNL     1      62.242  10.830   4.393  1.00  0.00     0.001 A 
HETATM   14  C   UNL     1      63.224  10.204   5.157  1.00  0.00     0.009 A 
ENDBRANCH   8   9
ENDBRANCH   1   8
BRANCH   4  15
HETATM   15  C   UNL     1      66.550   6.765   8.159  1.00  0.00     0.197 C 
BRANCH  15  16
HETATM   16  O   UNL     1      67.830   6.705   8.777  1.00  0.00    -0.398 OA
HETATM   17  H   UNL     1      68.518   6.666   8.094  1.00  0.00     0.209 HD
ENDBRANCH  15  16
ENDBRANCH   4  15
TORSDOF 4
ENDMDL
MODEL 3
REMARK VINA RESULT:      -4.6      1.595      2.420
REMARK  4 active torsions:
REMARK  status: ('A' for Active; 'I' for Inactive)
REMARK    1  A    between atoms: N_1  and  C_5 
REMARK    2  A    between atoms: C_4  and  C_10 
REMARK    3  A    between atoms: C_5  and  C_8 
REMARK    4  A    between atoms: O_9  and  C_10 
ROOT
HETATM    1  N   UNL     1      64.681   7.843   4.394  1.00  0.00    -0.063 N 
HETATM    2  O   UNL     1      66.112   5.830   5.991  1.00  0.00    -0.380 OA
HETATM    3  C   UNL     1      65.196   6.577   3.834  1.00  0.00     0.269 C 
HETATM    4  C   UNL     1      65.389   5.403   4.823  1.00  0.00     0.170 C 
HETATM    5  C   UNL     1      65.532   6.980   6.613  1.00  0.00     0.196 C 
HETATM    6  C   UNL     1      65.399   8.158   5.638  1.00  0.00     0.261 C 
HETATM    7  H   UNL     1      64.877   8.569   3.705  1.00  0.00     0.280 HD
ENDROOT
BRANCH   1   8
HETATM    8  C   UNL     1      63.223   7.933   4.517  1.00  0.00     0.273 C 
BRANCH   8   9
HETATM    9  C   UNL     1      62.645   9.056   3.676  1.00  0.00    -0.033 A 
HETATM   10  C   UNL     1      62.430   8.897   2.300  1.00  0.00     0.009 A 
HETATM   11  C   UNL     1      62.003   9.974   1.522  1.00  0.00     0.001 A 
HETATM   12  C   UNL     1      61.758  11.213   2.116  1.00  0.00     0.000 A 
HETATM   13  C   UNL     1      61.916  11.369   3.491  1.00  0.00     0.001 A 
HETATM   14  C   UNL     1      62.350  10.296   4.266  1.00  0.00     0.009 A 
ENDBRANCH   8   9
ENDBRANCH   1   8
BRANCH   4  15
HETATM   15  C   UNL     1      64.117   4.631   5.210  1.00  0.00     0.197 C 
BRANCH  15  16
HETATM   16  O   UNL     1      64.359   3.252   5.462  1.00  0.00    -0.398 OA
HETATM   17  H   UNL     1      63.811   2.714   4.869  1.00  0.00     0.209 HD
ENDBRANCH  15  16
ENDBRANCH   4  15
TORSDOF 4
ENDMDL
MODEL 4
REMARK VINA RESULT:      -4.6      1.332      2.041
REMARK  4 active torsions:
REMARK  status: ('A' for Active; 'I' for Inactive)
REMARK    1  A    between atoms: N_1  and  C_5 
REMARK    2  A    between atoms: C_4  and  C_10 
REMARK    3  A    between atoms: C_5  and  C_8 
REMARK    4  A    between atoms: O_9  and  C_10 
ROOT
HETATM    1  N   UNL     1      63.934   6.371   5.209  1.00  0.00    -0.063 N 
HETATM    2  O   UNL     1      65.846   5.165   7.092  1.00  0.00    -0.380 OA
HETATM    3  C   UNL     1      64.157   6.878   6.578  1.00  0.00     0.269 C 
HETATM    4  C   UNL     1      65.525   6.561   7.227  1.00  0.00     0.170 C 
HETATM    5  C   UNL     1      65.760   4.704   5.740  1.00  0.00     0.196 C 
HETATM    6  C   UNL     1      64.379   4.971   5.126  1.00  0.00     0.261 C 
HETATM    7  H   UNL     1      62.929   6.409   5.043  1.00  0.00     0.280 HD
ENDROOT
BRANCH   1   8
HETATM    8  C   UNL     1      64.449   7.217   4.128  1.00  0.00     0.273 C 
BRANCH   8   9
HETATM    9  C   UNL     1      63.554   8.413   3.862  1.00  0.00    -0.033 A 
HETATM   10  C   UNL     1      63.422   9.446   4.801  1.00  0.00     0.009 A 
HETATM   11  C   UNL     1      62.511  10.482   4.589  1.00  0.00     0.001 A 
HETATM   12  C   UNL     1      61.744  10.512   3.423  1.00  0.00     0.000 A 
HETATM   13  C   UNL     1      61.906   9.522   2.458  1.00  0.00     0.001 A 
HETATM   14  C   UNL     1      62.809   8.483   2.673  1.00  0.00     0.009 A 
ENDBRANCH   8   9
ENDBRANCH   1   8
BRANCH   4  15
HETATM   15  C   UNL     1      66.703   7.444   6.784  1.00  0.00     0.197 C 
BRANCH  15  16
HETATM   16  O   UNL     1      66.346   8.813   6.632  1.00  0.00    -0.398 OA
HETATM   17  H   UNL     1      65.547   8.881   6.086  1.00  0.00     0.209 HD
ENDBRANCH  15  16
ENDBRANCH   4  15
TORSDOF 4
ENDMDL
MODEL 5
REMARK VINA RESULT:      -4.5      2.908      5.737
REMARK  4 active torsions:
REMARK  status: ('A' for Active; 'I' for Inactive)
REMARK    1  A    between atoms: N_1  and  C_5 
REMARK    2  A    between atoms: C_4  and  C_10 
REMARK    3  A    between atoms: C_5  and  C_8 
REMARK    4  A    between atoms: O_9  and  C_10 
ROOT
HETATM    1  N   UNL     1      63.401   8.826   5.427  1.00  0.00    -0.063 N 
HETATM    2  O   UNL     1      61.313  10.250   3.921  1.00  0.00    -0.380 OA
HETATM    3  C   UNL     1      62.272   8.146   4.759  1.00  0.00     0.269 C 
HETATM    4  C   UNL     1      61.613   8.887   3.572  1.00  0.00     0.170 C 
HETATM    5  C   UNL     1      62.445  10.951   4.444  1.00  0.00     0.196 C 
HETATM    6  C   UNL     1      63.056  10.237   5.658  1.00  0.00     0.261 C 
HETATM    7  H   UNL     1      63.529   8.364   6.326  1.00  0.00     0.280 HD
ENDROOT
BRANCH   1   8
HETATM    8  C   UNL     1      64.713   8.636   4.802  1.00  0.00     0.273 C 
BRANCH   8   9
HETATM    9  C   UNL     1      65.599   7.699   5.603  1.00  0.00    -0.033 A 
HETATM   10  C   UNL     1      65.113   7.030   6.735  1.00  0.00     0.009 A 
HETATM   11  C   UNL     1      65.970   6.260   7.523  1.00  0.00     0.001 A 
HETATM   12  C   UNL     1      67.314   6.128   7.172  1.00  0.00     0.000 A 
HETATM   13  C   UNL     1      67.796   6.743   6.020  1.00  0.00     0.001 A 
HETATM   14  C   UNL     1      66.943   7.519   5.238  1.00  0.00     0.009 A 
ENDBRANCH   8   9
ENDBRANCH   1   8
BRANCH   4  15
HETATM   15  C   UNL     1      62.360   8.811   2.230  1.00  0.00     0.197 C 
BRANCH  15  16
HETATM   16  O   UNL     1      61.747   9.588   1.208  1.00  0.00    -0.398 OA
HETATM   17  H   UNL     1      61.137  10.227   1.608  1.00  0.00     0.209 HD
ENDBRANCH  15  16
ENDBRANCH   4  15
TORSDOF 4
ENDMDL
MODEL 6
REMARK VINA RESULT:      -4.5      1.737      2.646
REMARK  4 active torsions:
REMARK  status: ('A' for Active; 'I' for Inactive)
REMARK    1  A    between atoms: N_1  and  C_5 
REMARK    2  A    between atoms: C_4  and  C_10 
REMARK    3  A    between atoms: C_5  and  C_8 
REMARK    4  A    between atoms: O_9  and  C_10 
ROOT
HETATM    1  N   UNL     1      63.718   7.985   4.830  1.00  0.00    -0.063 N 
HETATM    2  O   UNL     1      65.509   7.400   7.090  1.00  0.00    -0.380 OA
HETATM    3  C   UNL     1      64.908   8.796   5.156  1.00  0.00     0.269 C 
HETATM    4  C   UNL     1      66.038   8.094   5.945  1.00  0.00     0.170 C 
HETATM    5  C   UNL     1      64.442   6.510   6.753  1.00  0.00     0.196 C 
HETATM    6  C   UNL     1      63.300   7.228   6.021  1.00  0.00     0.261 C 
HETATM    7  H   UNL     1      62.978   8.639   4.577  1.00  0.00     0.280 HD
ENDROOT
BRANCH   1   8
HETATM    8  C   UNL     1      63.822   7.165   3.619  1.00  0.00     0.273 C 
BRANCH   8   9
HETATM    9  C   UNL     1      62.845   7.605   2.545  1.00  0.00    -0.033 A 
HETATM   10  C   UNL     1      62.445   8.944   2.429  1.00  0.00     0.009 A 
HETATM   11  C   UNL     1      61.463   9.312   1.508  1.00  0.00     0.001 A 
HETATM   12  C   UNL     1      60.892   8.351   0.673  1.00  0.00     0.000 A 
HETATM   13  C   UNL     1      61.320   7.028   0.740  1.00  0.00     0.001 A 
HETATM   14  C   UNL     1      62.293   6.658   1.666  1.00  0.00     0.009 A 
ENDBRANCH   8   9
ENDBRANCH   1   8
BRANCH   4  15
HETATM   15  C   UNL     1      66.969   7.185   5.128  1.00  0.00     0.197 C 
BRANCH  15  16
HETATM   16  O   UNL     1      68.072   7.883   4.561  1.00  0.00    -0.398 OA
HETATM   17  H   UNL     1      67.792   8.775   4.303  1.00  0.00     0.209 HD
ENDBRANCH  15  16
ENDBRANCH   4  15
TORSDOF 4
ENDMDL
MODEL 7
REMARK VINA RESULT:      -4.3      3.076      4.494
REMARK  4 active torsions:
REMARK  status: ('A' for Active; 'I' for Inactive)
REMARK    1  A    between atoms: N_1  and  C_5 
REMARK    2  A    between atoms: C_4  and  C_10 
REMARK    3  A    between atoms: C_5  and  C_8 
REMARK    4  A    between atoms: O_9  and  C_10 
ROOT
HETATM    1  N   UNL     1      62.408   8.573   3.539  1.00  0.00    -0.063 N 
HETATM    2  O   UNL     1      64.412   9.500   5.484  1.00  0.00    -0.380 OA
HETATM    3  C   UNL     1      63.718   7.918   3.732  1.00  0.00     0.269 C 
HETATM    4  C   UNL     1      64.400   8.111   5.107  1.00  0.00     0.170 C 
HETATM    5  C   UNL     1      63.115  10.101   5.426  1.00  0.00     0.196 C 
HETATM    6  C   UNL     1      62.472   9.954   4.040  1.00  0.00     0.261 C 
HETATM    7  H   UNL     1      62.236   8.592   2.535  1.00  0.00     0.280 HD
ENDROOT
BRANCH   1   8
HETATM    8  C   UNL     1      61.247   7.823   4.028  1.00  0.00     0.273 C 
BRANCH   8   9
HETATM    9  C   UNL     1      60.186   7.648   2.958  1.00  0.00    -0.033 A 
HETATM   10  C   UNL     1      60.469   7.895   1.607  1.00  0.00     0.009 A 
HETATM   11  C   UNL     1      59.453   7.837   0.650  1.00  0.00     0.001 A 
HETATM   12  C   UNL     1      58.152   7.503   1.030  1.00  0.00     0.000 A 
HETATM   13  C   UNL     1      57.871   7.201   2.360  1.00  0.00     0.001 A 
HETATM   14  C   UNL     1      58.882   7.268   3.316  1.00  0.00     0.009 A 
ENDBRANCH   8   9
ENDBRANCH   1   8
BRANCH   4  15
HETATM   15  C   UNL     1      63.871   7.232   6.253  1.00  0.00     0.197 C 
BRANCH  15  16
HETATM   16  O   UNL     1      64.767   7.157   7.355  1.00  0.00    -0.398 OA
HETATM   17  H   UNL     1      64.882   8.040   7.740  1.00  0.00     0.209 HD
ENDBRANCH  15  16
ENDBRANCH   4  15
TORSDOF 4
ENDMDL
MODEL 8
REMARK VINA RESULT:      -4.2      3.612      4.611
REMARK  4 active torsions:
REMARK  status: ('A' for Active; 'I' for Inactive)
REMARK    1  A    between atoms: N_1  and  C_5 
REMARK    2  A    between atoms: C_4  and  C_10 
REMARK    3  A    between atoms: C_5  and  C_8 
REMARK    4  A    between atoms: O_9  and  C_10 
ROOT
HETATM    1  N   UNL     1      62.099   6.584   3.627  1.00  0.00    -0.063 N 
HETATM    2  O   UNL     1      61.474   4.211   5.249  1.00  0.00    -0.380 OA
HETATM    3  C   UNL     1      60.737   6.250   4.088  1.00  0.00     0.269 C 
HETATM    4  C   UNL     1      60.624   5.367   5.353  1.00  0.00     0.170 C 
HETATM    5  C   UNL     1      62.829   4.546   4.933  1.00  0.00     0.196 C 
HETATM    6  C   UNL     1      62.934   5.373   3.645  1.00  0.00     0.261 C 
HETATM    7  H   UNL     1      62.010   6.911   2.665  1.00  0.00     0.280 HD
ENDROOT
BRANCH   1   8
HETATM    8  C   UNL     1      62.723   7.739   4.280  1.00  0.00     0.273 C 
BRANCH   8   9
HETATM    9  C   UNL     1      62.450   9.034   3.537  1.00  0.00    -0.033 A 
HETATM   10  C   UNL     1      62.288  10.245   4.224  1.00  0.00     0.009 A 
HETATM   11  C   UNL     1      61.928  11.405   3.536  1.00  0.00     0.001 A 
HETATM   12  C   UNL     1      61.753  11.372   2.151  1.00  0.00     0.000 A 
HETATM   13  C   UNL     1      61.964  10.187   1.452  1.00  0.00     0.001 A 
HETATM   14  C   UNL     1      62.315   9.027   2.139  1.00  0.00     0.009 A 
ENDBRANCH   8   9
ENDBRANCH   1   8
BRANCH   4  15
HETATM   15  C   UNL     1      60.827   6.084   6.698  1.00  0.00     0.197 C 
BRANCH  15  16
HETATM   16  O   UNL     1      60.074   5.504   7.757  1.00  0.00    -0.398 OA
HETATM   17  H   UNL     1      59.639   4.696   7.440  1.00  0.00     0.209 HD
ENDBRANCH  15  16
ENDBRANCH   4  15
TORSDOF 4
ENDMDL
MODEL 9
REMARK VINA RESULT:      -4.2      3.099      5.661
REMARK  4 active torsions:
REMARK  status: ('A' for Active; 'I' for Inactive)
REMARK    1  A    between atoms: N_1  and  C_5 
REMARK    2  A    between atoms: C_4  and  C_10 
REMARK    3  A    between atoms: C_5  and  C_8 
REMARK    4  A    between atoms: O_9  and  C_10 
ROOT
HETATM    1  N   UNL     1      63.175   6.976   4.192  1.00  0.00    -0.063 N 
HETATM    2  O   UNL     1      60.811   8.214   2.952  1.00  0.00    -0.380 OA
HETATM    3  C   UNL     1      63.254   7.968   3.101  1.00  0.00     0.269 C 
HETATM    4  C   UNL     1      62.057   8.935   2.946  1.00  0.00     0.170 C 
HETATM    5  C   UNL     1      60.676   7.351   4.085  1.00  0.00     0.196 C 
HETATM    6  C   UNL     1      61.840   6.357   4.196  1.00  0.00     0.261 C 
HETATM    7  H   UNL     1      63.871   6.261   3.989  1.00  0.00     0.280 HD
ENDROOT
BRANCH   1   8
HETATM    8  C   UNL     1      63.607   7.450   5.511  1.00  0.00     0.273 C 
BRANCH   8   9
HETATM    9  C   UNL     1      65.066   7.134   5.782  1.00  0.00    -0.033 A 
HETATM   10  C   UNL     1      66.083   8.034   5.430  1.00  0.00     0.009 A 
HETATM   11  C   UNL     1      67.424   7.680   5.585  1.00  0.00     0.001 A 
HETATM   12  C   UNL     1      67.763   6.437   6.120  1.00  0.00     0.000 A 
HETATM   13  C   UNL     1      66.763   5.557   6.524  1.00  0.00     0.001 A 
HETATM   14  C   UNL     1      65.423   5.906   6.362  1.00  0.00     0.009 A 
ENDBRANCH   8   9
ENDBRANCH   1   8
BRANCH   4  15
HETATM   15  C   UNL     1      62.015  10.120   3.924  1.00  0.00     0.197 C 
BRANCH  15  16
HETATM   16  O   UNL     1      61.428  11.287   3.360  1.00  0.00    -0.398 OA
HETATM   17  H   UNL     1      60.661  11.035   2.821  1.00  0.00     0.209 HD
ENDBRANCH  15  16
ENDBRANCH   4  15
TORSDOF 4
ENDMDL
