MODEL 1
REMARK VINA RESULT:      -3.9      0.000      0.000
REMARK  2 active torsions:
REMARK  status: ('A' for Active; 'I' for Inactive)
REMARK    1  A    between atoms: C_6  and  C_8 
REMARK    2  A    between atoms: C_8  and  N_9 
ROOT
HETATM    1  N   UNL     1      63.205   9.183   4.409  1.00  0.00    -0.301 N 
ATOM      2  HN  UNL     1      63.739   8.811   5.194  1.00  0.00     0.187 HD
HETATM    3  N   UNL     1      62.970   8.601   3.218  1.00  0.00    -0.301 N 
HETATM    4  C   UNL     1      62.220   9.374   2.366  1.00  0.00     0.026 A 
HETATM    5  C   UNL     1      61.949  10.528   3.070  1.00  0.00     0.054 A 
HETATM    6  C   UNL     1      62.577  10.367   4.325  1.00  0.00     0.053 A 
HETATM    7  C   UNL     1      63.487   7.275   2.966  1.00  0.00     0.177 C 
HETATM    8  C   UNL     1      61.828   8.988   0.990  1.00  0.00     0.070 C 
ENDROOT
BRANCH   6   9
HETATM    9  C   UNL     1      62.586  11.334   5.467  1.00  0.00     0.287 C 
BRANCH   9  10
HETATM   10  N   UNL     1      63.858  11.236   6.184  1.00  0.00    -0.074 N 
HETATM   11  H   UNL     1      64.580  11.739   5.667  1.00  0.00     0.274 HD
HETATM   12  H   UNL     1      64.124  10.256   6.273  1.00  0.00     0.274 HD
HETATM   13  H   UNL     1      63.757  11.647   7.112  1.00  0.00     0.274 HD
ENDBRANCH   9  10
ENDBRANCH   6   9
TORSDOF 2
ENDMDL
MODEL 2
REMARK VINA RESULT:      -3.8      1.903      2.444
REMARK  2 active torsions:
REMARK  status: ('A' for Active; 'I' for Inactive)
REMARK    1  A    between atoms: C_6  and  C_8 
REMARK    2  A    between atoms: C_8  and  N_9 
ROOT
HETATM    1  N   UNL     1      64.566   9.026   5.650  1.00  0.00    -0.301 N 
ATOM      2  HN  UNL     1      65.047   9.398   6.470  1.00  0.00     0.187 HD
HETATM    3  N   UNL     1      64.841   7.896   4.971  1.00  0.00    -0.301 N 
HETATM    4  C   UNL     1      64.009   7.682   3.900  1.00  0.00     0.026 A 
HETATM    5  C   UNL     1      63.133   8.747   3.905  1.00  0.00     0.054 A 
HETATM    6  C   UNL     1      63.514   9.551   5.002  1.00  0.00     0.053 A 
HETATM    7  C   UNL     1      65.922   7.048   5.420  1.00  0.00     0.177 C 
HETATM    8  C   UNL     1      64.096   6.529   2.973  1.00  0.00     0.070 C 
ENDROOT
BRANCH   6   9
HETATM    9  C   UNL     1      62.883  10.830   5.453  1.00  0.00     0.287 C 
BRANCH   9  10
HETATM   10  N   UNL     1      63.803  11.550   6.334  1.00  0.00    -0.074 N 
HETATM   11  H   UNL     1      64.731  11.575   5.910  1.00  0.00     0.274 HD
HETATM   12  H   UNL     1      63.854  11.074   7.234  1.00  0.00     0.274 HD
HETATM   13  H   UNL     1      63.467  12.503   6.471  1.00  0.00     0.274 HD
ENDBRANCH   9  10
ENDBRANCH   6   9
TORSDOF 2
ENDMDL
MODEL 3
REMARK VINA RESULT:      -3.7      1.108      1.928
REMARK  2 active torsions:
REMARK  status: ('A' for Active; 'I' for Inactive)
REMARK    1  A    between atoms: C_6  and  C_8 
REMARK    2  A    between atoms: C_8  and  N_9 
ROOT
HETATM    1  N   UNL     1      61.799  10.346   3.155  1.00  0.00    -0.301 N 
ATOM      2  HN  UNL     1      61.190  11.116   2.876  1.00  0.00     0.187 HD
HETATM    3  N   UNL     1      62.059   9.210   2.480  1.00  0.00    -0.301 N 
HETATM    4  C   UNL     1      62.918   8.364   3.137  1.00  0.00     0.026 A 
HETATM    5  C   UNL     1      63.237   9.014   4.311  1.00  0.00     0.054 A 
HETATM    6  C   UNL     1      62.523  10.232   4.280  1.00  0.00     0.053 A 
HETATM    7  C   UNL     1      61.454   9.005   1.183  1.00  0.00     0.177 C 
HETATM    8  C   UNL     1      63.361   7.043   2.633  1.00  0.00     0.070 C 
ENDROOT
BRANCH   6   9
HETATM    9  C   UNL     1      62.521  11.310   5.317  1.00  0.00     0.287 C 
BRANCH   9  10
HETATM   10  N   UNL     1      63.752  11.235   6.107  1.00  0.00    -0.074 N 
HETATM   11  H   UNL     1      64.516  11.667   5.587  1.00  0.00     0.274 HD
HETATM   12  H   UNL     1      63.976  10.259   6.294  1.00  0.00     0.274 HD
HETATM   13  H   UNL     1      63.619  11.730   6.989  1.00  0.00     0.274 HD
ENDBRANCH   9  10
ENDBRANCH   6   9
TORSDOF 2
ENDMDL
MODEL 4
REMARK VINA RESULT:      -3.7      1.574      2.293
REMARK  2 active torsions:
REMARK  status: ('A' for Active; 'I' for Inactive)
REMARK    1  A    between atoms: C_6  and  C_8 
REMARK    2  A    between atoms: C_8  and  N_9 
ROOT
HETATM    1  N   UNL     1      62.529   8.284   3.044  1.00  0.00    -0.301 N 
ATOM      2  HN  UNL     1      62.721   7.303   2.840  1.00  0.00     0.187 HD
HETATM    3  N   UNL     1      62.230   9.267   2.173  1.00  0.00    -0.301 N 
HETATM    4  C   UNL     1      62.037  10.489   2.768  1.00  0.00     0.026 A 
HETATM    5  C   UNL     1      62.214  10.266   4.118  1.00  0.00     0.054 A 
HETATM    6  C   UNL     1      62.517   8.892   4.241  1.00  0.00     0.053 A 
HETATM    7  C   UNL     1      62.129   8.956   0.765  1.00  0.00     0.177 C 
HETATM    8  C   UNL     1      61.713  11.744   2.048  1.00  0.00     0.070 C 
ENDROOT
BRANCH   6   9
HETATM    9  C   UNL     1      62.796   8.133   5.500  1.00  0.00     0.287 C 
BRANCH   9  10
HETATM   10  N   UNL     1      64.194   8.322   5.889  1.00  0.00    -0.074 N 
HETATM   11  H   UNL     1      64.466   7.591   6.547  1.00  0.00     0.274 HD
HETATM   12  H   UNL     1      64.304   9.235   6.329  1.00  0.00     0.274 HD
HETATM   13  H   UNL     1      64.787   8.270   5.060  1.00  0.00     0.274 HD
ENDBRANCH   9  10
ENDBRANCH   6   9
TORSDOF 2
ENDMDL
MODEL 5
REMARK VINA RESULT:      -3.6      2.500      3.487
REMARK  2 active torsions:
REMARK  status: ('A' for Active; 'I' for Inactive)
REMARK    1  A    between atoms: C_6  and  C_8 
REMARK    2  A    between atoms: C_8  and  N_9 
ROOT
HETATM    1  N   UNL     1      64.589   9.196   5.774  1.00  0.00    -0.301 N 
ATOM      2  HN  UNL     1      64.820   9.796   6.566  1.00  0.00     0.187 HD
HETATM    3  N   UNL     1      63.592   9.351   4.881  1.00  0.00    -0.301 N 
HETATM    4  C   UNL     1      63.543   8.359   3.934  1.00  0.00     0.026 A 
HETATM    5  C   UNL     1      64.592   7.517   4.238  1.00  0.00     0.054 A 
HETATM    6  C   UNL     1      65.209   8.072   5.381  1.00  0.00     0.053 A 
HETATM    7  C   UNL     1      62.721  10.500   4.989  1.00  0.00     0.177 C 
HETATM    8  C   UNL     1      62.541   8.271   2.845  1.00  0.00     0.070 C 
ENDROOT
BRANCH   6   9
HETATM    9  C   UNL     1      66.401   7.545   6.115  1.00  0.00     0.287 C 
BRANCH   9  10
HETATM   10  N   UNL     1      66.878   8.551   7.065  1.00  0.00    -0.074 N 
HETATM   11  H   UNL     1      67.753   8.235   7.484  1.00  0.00     0.274 HD
HETATM   12  H   UNL     1      66.180   8.687   7.795  1.00  0.00     0.274 HD
HETATM   13  H   UNL     1      67.035   9.432   6.576  1.00  0.00     0.274 HD
ENDBRANCH   9  10
ENDBRANCH   6   9
TORSDOF 2
ENDMDL
MODEL 6
REMARK VINA RESULT:      -3.5      1.991      4.087
REMARK  2 active torsions:
REMARK  status: ('A' for Active; 'I' for Inactive)
REMARK    1  A    between atoms: C_6  and  C_8 
REMARK    2  A    between atoms: C_8  and  N_9 
ROOT
HETATM    1  N   UNL     1      61.452  10.042   2.683  1.00  0.00    -0.301 N 
ATOM      2  HN  UNL     1      60.782  10.769   2.435  1.00  0.00     0.187 HD
HETATM    3  N   UNL     1      62.325  10.036   3.709  1.00  0.00    -0.301 N 
HETATM    4  C   UNL     1      63.102   8.906   3.763  1.00  0.00     0.026 A 
HETATM    5  C   UNL     1      62.687   8.130   2.700  1.00  0.00     0.054 A 
HETATM    6  C   UNL     1      61.668   8.871   2.062  1.00  0.00     0.053 A 
HETATM    7  C   UNL     1      62.349  11.156   4.622  1.00  0.00     0.177 C 
HETATM    8  C   UNL     1      64.153   8.643   4.775  1.00  0.00     0.070 C 
ENDROOT
BRANCH   6   9
HETATM    9  C   UNL     1      60.880   8.476   0.853  1.00  0.00     0.287 C 
BRANCH   9  10
HETATM   10  N   UNL     1      59.449   8.567   1.147  1.00  0.00    -0.074 N 
HETATM   11  H   UNL     1      59.300   8.456   2.150  1.00  0.00     0.274 HD
HETATM   12  H   UNL     1      58.952   7.832   0.646  1.00  0.00     0.274 HD
HETATM   13  H   UNL     1      59.099   9.478   0.851  1.00  0.00     0.274 HD
ENDBRANCH   9  10
ENDBRANCH   6   9
TORSDOF 2
ENDMDL
MODEL 7
REMARK VINA RESULT:      -3.4      5.103      6.145
REMARK  2 active torsions:
REMARK  status: ('A' for Active; 'I' for Inactive)
REMARK    1  A    between atoms: C_6  and  C_8 
REMARK    2  A    between atoms: C_8  and  N_9 
ROOT
HETATM    1  N   UNL     1      65.244   7.215   7.142  1.00  0.00    -0.301 N 
ATOM      2  HN  UNL     1      64.311   7.283   7.549  1.00  0.00     0.187 HD
HETATM    3  N   UNL     1      65.685   7.757   5.991  1.00  0.00    -0.301 N 
HETATM    4  C   UNL     1      66.999   7.469   5.716  1.00  0.00     0.026 A 
HETATM    5  C   UNL     1      67.429   6.696   6.776  1.00  0.00     0.054 A 
HETATM    6  C   UNL     1      66.312   6.565   7.630  1.00  0.00     0.053 A 
HETATM    7  C   UNL     1      64.785   8.566   5.200  1.00  0.00     0.177 C 
HETATM    8  C   UNL     1      67.736   7.921   4.512  1.00  0.00     0.070 C 
ENDROOT
BRANCH   6   9
HETATM    9  C   UNL     1      66.244   5.823   8.927  1.00  0.00     0.287 C 
BRANCH   9  10
HETATM   10  N   UNL     1      66.668   4.437   8.724  1.00  0.00    -0.074 N 
HETATM   11  H   UNL     1      67.287   4.386   7.914  1.00  0.00     0.274 HD
HETATM   12  H   UNL     1      65.850   3.851   8.564  1.00  0.00     0.274 HD
HETATM   13  H   UNL     1      67.166   4.109   9.552  1.00  0.00     0.274 HD
ENDBRANCH   9  10
ENDBRANCH   6   9
TORSDOF 2
ENDMDL
MODEL 8
REMARK VINA RESULT:      -3.3      3.600      4.647
REMARK  2 active torsions:
REMARK  status: ('A' for Active; 'I' for Inactive)
REMARK    1  A    between atoms: C_6  and  C_8 
REMARK    2  A    between atoms: C_8  and  N_9 
ROOT
HETATM    1  N   UNL     1      64.371   7.612   6.630  1.00  0.00    -0.301 N 
ATOM      2  HN  UNL     1      63.608   7.599   7.307  1.00  0.00     0.187 HD
HETATM    3  N   UNL     1      65.570   7.007   6.723  1.00  0.00    -0.301 N 
HETATM    4  C   UNL     1      66.384   7.230   5.640  1.00  0.00     0.026 A 
HETATM    5  C   UNL     1      65.644   8.026   4.790  1.00  0.00     0.054 A 
HETATM    6  C   UNL     1      64.409   8.237   5.442  1.00  0.00     0.053 A 
HETATM    7  C   UNL     1      65.868   6.205   7.888  1.00  0.00     0.177 C 
HETATM    8  C   UNL     1      67.759   6.700   5.486  1.00  0.00     0.070 C 
ENDROOT
BRANCH   6   9
HETATM    9  C   UNL     1      63.244   9.032   4.944  1.00  0.00     0.287 C 
BRANCH   9  10
HETATM   10  N   UNL     1      63.150  10.287   5.693  1.00  0.00    -0.074 N 
HETATM   11  H   UNL     1      64.040  10.781   5.641  1.00  0.00     0.274 HD
HETATM   12  H   UNL     1      62.927  10.085   6.667  1.00  0.00     0.274 HD
HETATM   13  H   UNL     1      62.415  10.868   5.289  1.00  0.00     0.274 HD
ENDBRANCH   9  10
ENDBRANCH   6   9
TORSDOF 2
ENDMDL
MODEL 9
REMARK VINA RESULT:      -3.2      2.057      2.967
REMARK  2 active torsions:
REMARK  status: ('A' for Active; 'I' for Inactive)
REMARK    1  A    between atoms: C_6  and  C_8 
REMARK    2  A    between atoms: C_8  and  N_9 
ROOT
HETATM    1  N   UNL     1      62.690   8.722   3.106  1.00  0.00    -0.301 N 
ATOM      2  HN  UNL     1      62.103   8.626   2.277  1.00  0.00     0.187 HD
HETATM    3  N   UNL     1      63.620   7.863   3.566  1.00  0.00    -0.301 N 
HETATM    4  C   UNL     1      64.232   8.282   4.721  1.00  0.00     0.026 A 
HETATM    5  C   UNL     1      63.658   9.503   5.012  1.00  0.00     0.054 A 
HETATM    6  C   UNL     1      62.712   9.734   3.989  1.00  0.00     0.053 A 
HETATM    7  C   UNL     1      63.886   6.650   2.828  1.00  0.00     0.177 C 
HETATM    8  C   UNL     1      65.278   7.528   5.451  1.00  0.00     0.070 C 
ENDROOT
BRANCH   6   9
HETATM    9  C   UNL     1      61.816  10.921   3.833  1.00  0.00     0.287 C 
BRANCH   9  10
HETATM   10  N   UNL     1      61.676  11.249   2.414  1.00  0.00    -0.074 N 
HETATM   11  H   UNL     1      62.546  11.658   2.072  1.00  0.00     0.274 HD
HETATM   12  H   UNL     1      60.915  11.916   2.292  1.00  0.00     0.274 HD
HETATM   13  H   UNL     1      61.471  10.399   1.888  1.00  0.00     0.274 HD
ENDBRANCH   9  10
ENDBRANCH   6   9
TORSDOF 2
ENDMDL
