MODEL 1
REMARK VINA RESULT:      -5.4      0.000      0.000
REMARK  1 active torsions:
REMARK  status: ('A' for Active; 'I' for Inactive)
REMARK    1  A    between atoms: C_1  and  C_5 
ROOT
HETATM    1  C   UNL     1      63.161   8.012   4.491  1.00  0.00     0.068 A 
HETATM    2  C   UNL     1      63.307   7.034   3.522  1.00  0.00     0.107 A 
HETATM    3  C   UNL     1      62.666   9.179   3.821  1.00  0.00     0.009 A 
HETATM    4  N   UNL     1      62.917   7.549   2.318  1.00  0.00    -0.364 N 
HETATM    5  C   UNL     1      62.529   8.860   2.468  1.00  0.00     0.043 A 
HETATM    6  C   UNL     1      62.325  10.485   4.235  1.00  0.00     0.015 A 
HETATM    7  C   UNL     1      62.075   9.777   1.512  1.00  0.00     0.030 A 
HETATM    8  C   UNL     1      61.875  11.416   3.290  1.00  0.00     0.001 A 
HETATM    9  C   UNL     1      61.753  11.065   1.949  1.00  0.00     0.002 A 
HETATM   10  H   UNL     1      62.914   7.055   1.467  1.00  0.00     0.165 HD
ENDROOT
BRANCH   1  11
HETATM   11  C   UNL     1      63.467   7.858   5.901  1.00  0.00     0.211 C 
HETATM   12  O   UNL     1      62.660   7.653   6.797  1.00  0.00    -0.644 OA
HETATM   13  O   UNL     1      64.784   7.962   6.201  1.00  0.00    -0.644 OA
ENDBRANCH   1  11
TORSDOF 1
ENDMDL
MODEL 2
REMARK VINA RESULT:      -5.3      2.120      2.904
REMARK  1 active torsions:
REMARK  status: ('A' for Active; 'I' for Inactive)
REMARK    1  A    between atoms: C_1  and  C_5 
ROOT
HETATM    1  C   UNL     1      62.833   9.698   4.499  1.00  0.00     0.068 A 
HETATM    2  C   UNL     1      63.390   8.633   5.187  1.00  0.00     0.107 A 
HETATM    3  C   UNL     1      62.561   9.228   3.172  1.00  0.00     0.009 A 
HETATM    4  N   UNL     1      63.453   7.557   4.349  1.00  0.00    -0.364 N 
HETATM    5  C   UNL     1      62.963   7.892   3.108  1.00  0.00     0.043 A 
HETATM    6  C   UNL     1      62.014   9.814   2.009  1.00  0.00     0.015 A 
HETATM    7  C   UNL     1      62.851   7.117   1.948  1.00  0.00     0.030 A 
HETATM    8  C   UNL     1      61.901   9.055   0.838  1.00  0.00     0.001 A 
HETATM    9  C   UNL     1      62.315   7.727   0.810  1.00  0.00     0.002 A 
HETATM   10  H   UNL     1      63.800   6.669   4.596  1.00  0.00     0.165 HD
ENDROOT
BRANCH   1  11
HETATM   11  C   UNL     1      62.592  11.022   5.041  1.00  0.00     0.211 C 
HETATM   12  O   UNL     1      61.949  11.915   4.507  1.00  0.00    -0.644 OA
HETATM   13  O   UNL     1      63.156  11.240   6.253  1.00  0.00    -0.644 OA
ENDBRANCH   1  11
TORSDOF 1
ENDMDL
MODEL 3
REMARK VINA RESULT:      -5.3      1.656      2.884
REMARK  1 active torsions:
REMARK  status: ('A' for Active; 'I' for Inactive)
REMARK    1  A    between atoms: C_1  and  C_5 
ROOT
HETATM    1  C   UNL     1      62.794   9.617   4.156  1.00  0.00     0.068 A 
HETATM    2  C   UNL     1      62.073  10.763   3.867  1.00  0.00     0.107 A 
HETATM    3  C   UNL     1      62.687   8.767   3.006  1.00  0.00     0.009 A 
HETATM    4  N   UNL     1      61.554  10.647   2.608  1.00  0.00    -0.364 N 
HETATM    5  C   UNL     1      61.905   9.436   2.061  1.00  0.00     0.043 A 
HETATM    6  C   UNL     1      63.177   7.485   2.676  1.00  0.00     0.015 A 
HETATM    7  C   UNL     1      61.586   8.889   0.812  1.00  0.00     0.030 A 
HETATM    8  C   UNL     1      62.862   6.920   1.434  1.00  0.00     0.001 A 
HETATM    9  C   UNL     1      62.077   7.614   0.517  1.00  0.00     0.002 A 
HETATM   10  H   UNL     1      61.009  11.332   2.158  1.00  0.00     0.165 HD
ENDROOT
BRANCH   1  11
HETATM   11  C   UNL     1      63.501   9.352   5.395  1.00  0.00     0.211 C 
HETATM   12  O   UNL     1      64.549   9.870   5.753  1.00  0.00    -0.644 OA
HETATM   13  O   UNL     1      62.902   8.437   6.194  1.00  0.00    -0.644 OA
ENDBRANCH   1  11
TORSDOF 1
ENDMDL
MODEL 4
REMARK VINA RESULT:      -5.0      2.185      3.691
REMARK  1 active torsions:
REMARK  status: ('A' for Active; 'I' for Inactive)
REMARK    1  A    between atoms: C_1  and  C_5 
ROOT
HETATM    1  C   UNL     1      62.671   9.832   4.279  1.00  0.00     0.068 A 
HETATM    2  C   UNL     1      61.744   9.485   3.310  1.00  0.00     0.107 A 
HETATM    3  C   UNL     1      63.661   8.794   4.285  1.00  0.00     0.009 A 
HETATM    4  N   UNL     1      62.133   8.309   2.735  1.00  0.00    -0.364 N 
HETATM    5  C   UNL     1      63.295   7.857   3.315  1.00  0.00     0.043 A 
HETATM    6  C   UNL     1      64.837   8.555   5.030  1.00  0.00     0.015 A 
HETATM    7  C   UNL     1      64.037   6.699   3.056  1.00  0.00     0.030 A 
HETATM    8  C   UNL     1      65.587   7.398   4.788  1.00  0.00     0.001 A 
HETATM    9  C   UNL     1      65.191   6.484   3.816  1.00  0.00     0.002 A 
HETATM   10  H   UNL     1      61.651   7.849   2.009  1.00  0.00     0.165 HD
ENDROOT
BRANCH   1  11
HETATM   11  C   UNL     1      62.619  11.016   5.114  1.00  0.00     0.211 C 
HETATM   12  O   UNL     1      63.117  11.139   6.225  1.00  0.00    -0.644 OA
HETATM   13  O   UNL     1      61.943  12.055   4.568  1.00  0.00    -0.644 OA
ENDBRANCH   1  11
TORSDOF 1
ENDMDL
MODEL 5
REMARK VINA RESULT:      -4.7      1.965      2.586
REMARK  1 active torsions:
REMARK  status: ('A' for Active; 'I' for Inactive)
REMARK    1  A    between atoms: C_1  and  C_5 
ROOT
HETATM    1  C   UNL     1      63.206   7.738   4.110  1.00  0.00     0.068 A 
HETATM    2  C   UNL     1      63.383   8.044   5.449  1.00  0.00     0.107 A 
HETATM    3  C   UNL     1      62.721   8.932   3.481  1.00  0.00     0.009 A 
HETATM    4  N   UNL     1      63.043   9.352   5.648  1.00  0.00    -0.364 N 
HETATM    5  C   UNL     1      62.626   9.918   4.466  1.00  0.00     0.043 A 
HETATM    6  C   UNL     1      62.347   9.271   2.162  1.00  0.00     0.015 A 
HETATM    7  C   UNL     1      62.174  11.217   4.203  1.00  0.00     0.030 A 
HETATM    8  C   UNL     1      61.886  10.564   1.883  1.00  0.00     0.001 A 
HETATM    9  C   UNL     1      61.801  11.520   2.890  1.00  0.00     0.002 A 
HETATM   10  H   UNL     1      63.088   9.822   6.511  1.00  0.00     0.165 HD
ENDROOT
BRANCH   1  11
HETATM   11  C   UNL     1      63.461   6.449   3.496  1.00  0.00     0.211 C 
HETATM   12  O   UNL     1      62.642   5.558   3.321  1.00  0.00    -0.644 OA
HETATM   13  O   UNL     1      64.742   6.265   3.096  1.00  0.00    -0.644 OA
ENDBRANCH   1  11
TORSDOF 1
ENDMDL
MODEL 6
REMARK VINA RESULT:      -4.1      3.193      4.370
REMARK  1 active torsions:
REMARK  status: ('A' for Active; 'I' for Inactive)
REMARK    1  A    between atoms: C_1  and  C_5 
ROOT
HETATM    1  C   UNL     1      66.522   6.637   5.282  1.00  0.00     0.068 A 
HETATM    2  C   UNL     1      66.809   7.495   6.330  1.00  0.00     0.107 A 
HETATM    3  C   UNL     1      65.360   7.167   4.628  1.00  0.00     0.009 A 
HETATM    4  N   UNL     1      65.893   8.509   6.329  1.00  0.00    -0.364 N 
HETATM    5  C   UNL     1      64.990   8.331   5.308  1.00  0.00     0.043 A 
HETATM    6  C   UNL     1      64.580   6.766   3.522  1.00  0.00     0.015 A 
HETATM    7  C   UNL     1      63.884   9.107   4.942  1.00  0.00     0.030 A 
HETATM    8  C   UNL     1      63.465   7.527   3.148  1.00  0.00     0.001 A 
HETATM    9  C   UNL     1      63.124   8.679   3.849  1.00  0.00     0.002 A 
HETATM   10  H   UNL     1      65.880   9.258   6.968  1.00  0.00     0.165 HD
ENDROOT
BRANCH   1  11
HETATM   11  C   UNL     1      67.264   5.438   4.942  1.00  0.00     0.211 C 
HETATM   12  O   UNL     1      67.416   4.976   3.819  1.00  0.00    -0.644 OA
HETATM   13  O   UNL     1      67.821   4.807   6.003  1.00  0.00    -0.644 OA
ENDBRANCH   1  11
TORSDOF 1
ENDMDL
MODEL 7
REMARK VINA RESULT:      -4.0      2.103      2.862
REMARK  1 active torsions:
REMARK  status: ('A' for Active; 'I' for Inactive)
REMARK    1  A    between atoms: C_1  and  C_5 
ROOT
HETATM    1  C   UNL     1      64.170   7.673   5.531  1.00  0.00     0.068 A 
HETATM    2  C   UNL     1      63.734   6.656   6.363  1.00  0.00     0.107 A 
HETATM    3  C   UNL     1      63.081   7.972   4.647  1.00  0.00     0.009 A 
HETATM    4  N   UNL     1      62.446   6.342   6.032  1.00  0.00    -0.364 N 
HETATM    5  C   UNL     1      62.023   7.122   4.981  1.00  0.00     0.043 A 
HETATM    6  C   UNL     1      62.892   8.883   3.585  1.00  0.00     0.015 A 
HETATM    7  C   UNL     1      60.795   7.135   4.309  1.00  0.00     0.030 A 
HETATM    8  C   UNL     1      61.672   8.903   2.898  1.00  0.00     0.001 A 
HETATM    9  C   UNL     1      60.641   8.041   3.256  1.00  0.00     0.002 A 
HETATM   10  H   UNL     1      61.899   5.657   6.479  1.00  0.00     0.165 HD
ENDROOT
BRANCH   1  11
HETATM   11  C   UNL     1      65.483   8.289   5.565  1.00  0.00     0.211 C 
HETATM   12  O   UNL     1      65.837   9.195   6.307  1.00  0.00    -0.644 OA
HETATM   13  O   UNL     1      66.362   7.779   4.670  1.00  0.00    -0.644 OA
ENDBRANCH   1  11
TORSDOF 1
ENDMDL
MODEL 8
REMARK VINA RESULT:      -3.9      5.329      6.343
REMARK  1 active torsions:
REMARK  status: ('A' for Active; 'I' for Inactive)
REMARK    1  A    between atoms: C_1  and  C_5 
ROOT
HETATM    1  C   UNL     1      67.016   6.027   7.424  1.00  0.00     0.068 A 
HETATM    2  C   UNL     1      66.663   7.365   7.367  1.00  0.00     0.107 A 
HETATM    3  C   UNL     1      67.058   5.559   6.069  1.00  0.00     0.009 A 
HETATM    4  N   UNL     1      66.505   7.720   6.057  1.00  0.00    -0.364 N 
HETATM    5  C   UNL     1      66.730   6.636   5.242  1.00  0.00     0.043 A 
HETATM    6  C   UNL     1      67.340   4.316   5.462  1.00  0.00     0.015 A 
HETATM    7  C   UNL     1      66.665   6.533   3.847  1.00  0.00     0.030 A 
HETATM    8  C   UNL     1      67.272   4.194   4.069  1.00  0.00     0.001 A 
HETATM    9  C   UNL     1      66.939   5.287   3.275  1.00  0.00     0.002 A 
HETATM   10  H   UNL     1      66.264   8.621   5.742  1.00  0.00     0.165 HD
ENDROOT
BRANCH   1  11
HETATM   11  C   UNL     1      67.277   5.272   8.635  1.00  0.00     0.211 C 
HETATM   12  O   UNL     1      66.861   4.150   8.890  1.00  0.00    -0.644 OA
HETATM   13  O   UNL     1      68.059   5.914   9.535  1.00  0.00    -0.644 OA
ENDBRANCH   1  11
TORSDOF 1
ENDMDL
MODEL 9
REMARK VINA RESULT:      -3.9      5.354      6.654
REMARK  1 active torsions:
REMARK  status: ('A' for Active; 'I' for Inactive)
REMARK    1  A    between atoms: C_1  and  C_5 
ROOT
HETATM    1  C   UNL     1      67.405   5.065   7.954  1.00  0.00     0.068 A 
HETATM    2  C   UNL     1      67.572   6.057   8.906  1.00  0.00     0.107 A 
HETATM    3  C   UNL     1      67.021   5.727   6.740  1.00  0.00     0.009 A 
HETATM    4  N   UNL     1      67.322   7.268   8.325  1.00  0.00    -0.364 N 
HETATM    5  C   UNL     1      66.975   7.098   7.005  1.00  0.00     0.043 A 
HETATM    6  C   UNL     1      66.703   5.289   5.436  1.00  0.00     0.015 A 
HETATM    7  C   UNL     1      66.623   8.048   6.039  1.00  0.00     0.030 A 
HETATM    8  C   UNL     1      66.343   6.227   4.460  1.00  0.00     0.001 A 
HETATM    9  C   UNL     1      66.303   7.585   4.760  1.00  0.00     0.002 A 
HETATM   10  H   UNL     1      67.382   8.137   8.783  1.00  0.00     0.165 HD
ENDROOT
BRANCH   1  11
HETATM   11  C   UNL     1      67.580   3.643   8.175  1.00  0.00     0.211 C 
HETATM   12  O   UNL     1      67.327   3.035   9.206  1.00  0.00    -0.644 OA
HETATM   13  O   UNL     1      68.075   2.970   7.109  1.00  0.00    -0.644 OA
ENDBRANCH   1  11
TORSDOF 1
ENDMDL
