MODEL 1
REMARK VINA RESULT:      -4.8      0.000      0.000
REMARK  2 active torsions:
REMARK  status: ('A' for Active; 'I' for Inactive)
REMARK    1  A    between atoms: C_2  and  C_7 
REMARK    2  A    between atoms: N_6  and  C_7 
ROOT
HETATM    1  S   UNL     1      63.497   7.220   3.598  1.00  0.00    -0.092 SA
HETATM    2  C   UNL     1      63.698   7.735   5.200  1.00  0.00     0.009 A 
HETATM    3  C   UNL     1      63.207   9.033   5.343  1.00  0.00     0.029 A 
HETATM    4  C   UNL     1      62.808   8.660   3.077  1.00  0.00     0.015 A 
HETATM    5  C   UNL     1      62.710   9.547   4.141  1.00  0.00    -0.018 A 
HETATM    6  C   UNL     1      62.385   8.999   1.794  1.00  0.00     0.019 A 
HETATM    7  C   UNL     1      62.169  10.820   3.950  1.00  0.00     0.013 A 
HETATM    8  C   UNL     1      61.735  11.184   2.663  1.00  0.00     0.001 A 
HETATM    9  C   UNL     1      61.845  10.279   1.590  1.00  0.00     0.001 A 
ENDROOT
BRANCH   2  10
HETATM   10  C   UNL     1      64.347   6.928   6.283  1.00  0.00     0.277 C 
BRANCH  10  11
HETATM   11  N   UNL     1      65.528   7.617   6.812  1.00  0.00    -0.075 N 
HETATM   12  C   UNL     1      66.630   7.547   5.853  1.00  0.00     0.267 C 
HETATM   13  H   UNL     1      65.813   7.174   7.686  1.00  0.00     0.277 HD
HETATM   14  H   UNL     1      65.295   8.597   6.979  1.00  0.00     0.277 HD
ENDBRANCH  10  11
ENDBRANCH   2  10
TORSDOF 2
ENDMDL
MODEL 2
REMARK VINA RESULT:      -4.1      2.167      4.793
REMARK  2 active torsions:
REMARK  status: ('A' for Active; 'I' for Inactive)
REMARK    1  A    between atoms: C_2  and  C_7 
REMARK    2  A    between atoms: N_6  and  C_7 
ROOT
HETATM    1  S   UNL     1      63.354   7.335   2.935  1.00  0.00    -0.092 SA
HETATM    2  C   UNL     1      62.816   8.698   3.785  1.00  0.00     0.009 A 
HETATM    3  C   UNL     1      63.741   9.032   4.775  1.00  0.00     0.029 A 
HETATM    4  C   UNL     1      64.754   7.151   3.843  1.00  0.00     0.015 A 
HETATM    5  C   UNL     1      64.828   8.153   4.802  1.00  0.00    -0.018 A 
HETATM    6  C   UNL     1      65.734   6.168   3.727  1.00  0.00     0.019 A 
HETATM    7  C   UNL     1      65.909   8.205   5.684  1.00  0.00     0.013 A 
HETATM    8  C   UNL     1      66.911   7.223   5.586  1.00  0.00     0.001 A 
HETATM    9  C   UNL     1      66.821   6.208   4.614  1.00  0.00     0.001 A 
ENDROOT
BRANCH   2  10
HETATM   10  C   UNL     1      61.519   9.406   3.536  1.00  0.00     0.277 C 
BRANCH  10  11
HETATM   11  N   UNL     1      61.709  10.859   3.520  1.00  0.00    -0.075 N 
HETATM   12  C   UNL     1      61.805  11.343   2.143  1.00  0.00     0.267 C 
HETATM   13  H   UNL     1      62.568  11.092   4.019  1.00  0.00     0.277 HD
HETATM   14  H   UNL     1      60.911  11.305   3.974  1.00  0.00     0.277 HD
ENDBRANCH  10  11
ENDBRANCH   2  10
TORSDOF 2
ENDMDL
MODEL 3
REMARK VINA RESULT:      -4.1      2.316      5.172
REMARK  2 active torsions:
REMARK  status: ('A' for Active; 'I' for Inactive)
REMARK    1  A    between atoms: C_2  and  C_7 
REMARK    2  A    between atoms: N_6  and  C_7 
ROOT
HETATM    1  S   UNL     1      63.784   9.268   4.978  1.00  0.00    -0.092 SA
HETATM    2  C   UNL     1      62.964   8.600   3.655  1.00  0.00     0.009 A 
HETATM    3  C   UNL     1      63.649   7.474   3.196  1.00  0.00     0.029 A 
HETATM    4  C   UNL     1      65.028   8.140   4.953  1.00  0.00     0.015 A 
HETATM    5  C   UNL     1      64.812   7.225   3.932  1.00  0.00    -0.018 A 
HETATM    6  C   UNL     1      66.144   8.069   5.782  1.00  0.00     0.019 A 
HETATM    7  C   UNL     1      65.721   6.188   3.711  1.00  0.00     0.013 A 
HETATM    8  C   UNL     1      66.856   6.096   4.536  1.00  0.00     0.001 A 
HETATM    9  C   UNL     1      67.068   7.034   5.565  1.00  0.00     0.001 A 
ENDROOT
BRANCH   2  10
HETATM   10  C   UNL     1      61.717   9.165   3.047  1.00  0.00     0.277 C 
BRANCH  10  11
HETATM   11  N   UNL     1      61.613  10.604   3.308  1.00  0.00    -0.075 N 
HETATM   12  C   UNL     1      61.801  11.359   2.069  1.00  0.00     0.267 C 
HETATM   13  H   UNL     1      62.330  10.877   3.981  1.00  0.00     0.277 HD
HETATM   14  H   UNL     1      60.686  10.808   3.684  1.00  0.00     0.277 HD
ENDBRANCH  10  11
ENDBRANCH   2  10
TORSDOF 2
ENDMDL
MODEL 4
REMARK VINA RESULT:      -4.1      1.389      1.825
REMARK  2 active torsions:
REMARK  status: ('A' for Active; 'I' for Inactive)
REMARK    1  A    between atoms: C_2  and  C_7 
REMARK    2  A    between atoms: N_6  and  C_7 
ROOT
HETATM    1  S   UNL     1      64.464   6.797   3.553  1.00  0.00    -0.092 SA
HETATM    2  C   UNL     1      65.478   7.183   4.854  1.00  0.00     0.009 A 
HETATM    3  C   UNL     1      65.060   8.380   5.438  1.00  0.00     0.029 A 
HETATM    4  C   UNL     1      63.507   8.168   3.713  1.00  0.00     0.015 A 
HETATM    5  C   UNL     1      63.951   8.928   4.786  1.00  0.00    -0.018 A 
HETATM    6  C   UNL     1      62.426   8.561   2.928  1.00  0.00     0.019 A 
HETATM    7  C   UNL     1      63.310  10.125   5.115  1.00  0.00     0.013 A 
HETATM    8  C   UNL     1      62.216  10.542   4.336  1.00  0.00     0.001 A 
HETATM    9  C   UNL     1      61.779   9.765   3.246  1.00  0.00     0.001 A 
ENDROOT
BRANCH   2  10
HETATM   10  C   UNL     1      66.668   6.379   5.280  1.00  0.00     0.277 C 
BRANCH  10  11
HETATM   11  N   UNL     1      67.116   6.775   6.619  1.00  0.00    -0.075 N 
HETATM   12  C   UNL     1      67.961   5.732   7.200  1.00  0.00     0.267 C 
HETATM   13  H   UNL     1      66.302   6.922   7.216  1.00  0.00     0.277 HD
HETATM   14  H   UNL     1      67.656   7.638   6.547  1.00  0.00     0.277 HD
ENDBRANCH  10  11
ENDBRANCH   2  10
TORSDOF 2
ENDMDL
MODEL 5
REMARK VINA RESULT:      -3.9      2.817      4.069
REMARK  2 active torsions:
REMARK  status: ('A' for Active; 'I' for Inactive)
REMARK    1  A    between atoms: C_2  and  C_7 
REMARK    2  A    between atoms: N_6  and  C_7 
ROOT
HETATM    1  S   UNL     1      63.735   7.150   3.502  1.00  0.00    -0.092 SA
HETATM    2  C   UNL     1      63.001   7.124   1.976  1.00  0.00     0.009 A 
HETATM    3  C   UNL     1      62.344   8.334   1.748  1.00  0.00     0.029 A 
HETATM    4  C   UNL     1      63.196   8.693   3.888  1.00  0.00     0.015 A 
HETATM    5  C   UNL     1      62.458   9.211   2.831  1.00  0.00    -0.018 A 
HETATM    6  C   UNL     1      63.402   9.410   5.064  1.00  0.00     0.019 A 
HETATM    7  C   UNL     1      61.899  10.488   2.921  1.00  0.00     0.013 A 
HETATM    8  C   UNL     1      62.094  11.230   4.099  1.00  0.00     0.001 A 
HETATM    9  C   UNL     1      62.839  10.692   5.166  1.00  0.00     0.001 A 
ENDROOT
BRANCH   2  10
HETATM   10  C   UNL     1      63.020   5.957   1.037  1.00  0.00     0.277 C 
BRANCH  10  11
HETATM   11  N   UNL     1      61.658   5.509   0.731  1.00  0.00    -0.075 N 
HETATM   12  C   UNL     1      61.138   4.682   1.820  1.00  0.00     0.267 C 
HETATM   13  H   UNL     1      61.668   4.963  -0.131  1.00  0.00     0.277 HD
HETATM   14  H   UNL     1      61.056   6.326   0.618  1.00  0.00     0.277 HD
ENDBRANCH  10  11
ENDBRANCH   2  10
TORSDOF 2
ENDMDL
MODEL 6
REMARK VINA RESULT:      -3.8      1.794      2.284
REMARK  2 active torsions:
REMARK  status: ('A' for Active; 'I' for Inactive)
REMARK    1  A    between atoms: C_2  and  C_7 
REMARK    2  A    between atoms: N_6  and  C_7 
ROOT
HETATM    1  S   UNL     1      63.431   6.490   6.045  1.00  0.00    -0.092 SA
HETATM    2  C   UNL     1      64.781   7.506   5.926  1.00  0.00     0.009 A 
HETATM    3  C   UNL     1      64.523   8.527   5.010  1.00  0.00     0.029 A 
HETATM    4  C   UNL     1      62.524   7.333   4.911  1.00  0.00     0.015 A 
HETATM    5  C   UNL     1      63.250   8.420   4.442  1.00  0.00    -0.018 A 
HETATM    6  C   UNL     1      61.242   7.048   4.447  1.00  0.00     0.019 A 
HETATM    7  C   UNL     1      62.700   9.272   3.482  1.00  0.00     0.013 A 
HETATM    8  C   UNL     1      61.408   9.004   3.000  1.00  0.00     0.001 A 
HETATM    9  C   UNL     1      60.683   7.895   3.478  1.00  0.00     0.001 A 
ENDROOT
BRANCH   2  10
HETATM   10  C   UNL     1      66.071   7.306   6.661  1.00  0.00     0.277 C 
BRANCH  10  11
HETATM   11  N   UNL     1      65.825   6.888   8.045  1.00  0.00    -0.075 N 
HETATM   12  C   UNL     1      67.082   6.509   8.692  1.00  0.00     0.267 C 
HETATM   13  H   UNL     1      65.190   6.089   8.048  1.00  0.00     0.277 HD
HETATM   14  H   UNL     1      65.408   7.665   8.559  1.00  0.00     0.277 HD
ENDBRANCH  10  11
ENDBRANCH   2  10
TORSDOF 2
ENDMDL
MODEL 7
REMARK VINA RESULT:      -3.8      1.582      2.114
REMARK  2 active torsions:
REMARK  status: ('A' for Active; 'I' for Inactive)
REMARK    1  A    between atoms: C_2  and  C_7 
REMARK    2  A    between atoms: N_6  and  C_7 
ROOT
HETATM    1  S   UNL     1      61.699   6.942   4.918  1.00  0.00    -0.092 SA
HETATM    2  C   UNL     1      63.270   7.576   4.933  1.00  0.00     0.009 A 
HETATM    3  C   UNL     1      63.505   8.278   3.750  1.00  0.00     0.029 A 
HETATM    4  C   UNL     1      61.324   7.537   3.394  1.00  0.00     0.015 A 
HETATM    5  C   UNL     1      62.404   8.249   2.889  1.00  0.00    -0.018 A 
HETATM    6  C   UNL     1      60.144   7.379   2.673  1.00  0.00     0.019 A 
HETATM    7  C   UNL     1      62.330   8.839   1.625  1.00  0.00     0.013 A 
HETATM    8  C   UNL     1      61.148   8.692   0.878  1.00  0.00     0.001 A 
HETATM    9  C   UNL     1      60.061   7.963   1.399  1.00  0.00     0.001 A 
ENDROOT
BRANCH   2  10
HETATM   10  C   UNL     1      64.266   7.371   6.033  1.00  0.00     0.277 C 
BRANCH  10  11
HETATM   11  N   UNL     1      65.241   8.465   6.068  1.00  0.00    -0.075 N 
HETATM   12  C   UNL     1      66.565   7.954   6.422  1.00  0.00     0.267 C 
HETATM   13  H   UNL     1      64.949   9.155   6.761  1.00  0.00     0.277 HD
HETATM   14  H   UNL     1      65.289   8.898   5.144  1.00  0.00     0.277 HD
ENDBRANCH  10  11
ENDBRANCH   2  10
TORSDOF 2
ENDMDL
MODEL 8
REMARK VINA RESULT:      -3.7     12.513     14.219
REMARK  2 active torsions:
REMARK  status: ('A' for Active; 'I' for Inactive)
REMARK    1  A    between atoms: C_2  and  C_7 
REMARK    2  A    between atoms: N_6  and  C_7 
ROOT
HETATM    1  S   UNL     1      57.450   2.167  12.722  1.00  0.00    -0.092 SA
HETATM    2  C   UNL     1      56.266   1.382  13.645  1.00  0.00     0.009 A 
HETATM    3  C   UNL     1      56.754   0.153  14.091  1.00  0.00     0.029 A 
HETATM    4  C   UNL     1      58.578   0.931  12.866  1.00  0.00     0.015 A 
HETATM    5  C   UNL     1      58.056  -0.093  13.645  1.00  0.00    -0.018 A 
HETATM    6  C   UNL     1      59.854   0.859  12.312  1.00  0.00     0.019 A 
HETATM    7  C   UNL     1      58.814  -1.238  13.903  1.00  0.00     0.013 A 
HETATM    8  C   UNL     1      60.105  -1.332  13.355  1.00  0.00     0.001 A 
HETATM    9  C   UNL     1      60.621  -0.290  12.561  1.00  0.00     0.001 A 
ENDROOT
BRANCH   2  10
HETATM   10  C   UNL     1      54.889   1.914  13.902  1.00  0.00     0.277 C 
BRANCH  10  11
HETATM   11  N   UNL     1      54.941   3.135  14.711  1.00  0.00    -0.075 N 
HETATM   12  C   UNL     1      54.426   4.272  13.947  1.00  0.00     0.267 C 
HETATM   13  H   UNL     1      55.908   3.320  14.979  1.00  0.00     0.277 HD
HETATM   14  H   UNL     1      54.367   3.007  15.544  1.00  0.00     0.277 HD
ENDBRANCH  10  11
ENDBRANCH   2  10
TORSDOF 2
ENDMDL
MODEL 9
REMARK VINA RESULT:      -3.6      2.133      5.568
REMARK  2 active torsions:
REMARK  status: ('A' for Active; 'I' for Inactive)
REMARK    1  A    between atoms: C_2  and  C_7 
REMARK    2  A    between atoms: N_6  and  C_7 
ROOT
HETATM    1  S   UNL     1      63.389   7.048   6.190  1.00  0.00    -0.092 SA
HETATM    2  C   UNL     1      63.808   8.396   5.253  1.00  0.00     0.009 A 
HETATM    3  C   UNL     1      65.195   8.462   5.116  1.00  0.00     0.029 A 
HETATM    4  C   UNL     1      64.976   6.559   6.445  1.00  0.00     0.015 A 
HETATM    5  C   UNL     1      65.844   7.424   5.793  1.00  0.00    -0.018 A 
HETATM    6  C   UNL     1      65.435   5.476   7.189  1.00  0.00     0.019 A 
HETATM    7  C   UNL     1      67.225   7.222   5.864  1.00  0.00     0.013 A 
HETATM    8  C   UNL     1      67.711   6.135   6.610  1.00  0.00     0.001 A 
HETATM    9  C   UNL     1      66.821   5.268   7.272  1.00  0.00     0.001 A 
ENDROOT
BRANCH   2  10
HETATM   10  C   UNL     1      62.834   9.390   4.699  1.00  0.00     0.277 C 
BRANCH  10  11
HETATM   11  N   UNL     1      62.600   9.153   3.271  1.00  0.00    -0.075 N 
HETATM   12  C   UNL     1      61.327   8.460   3.073  1.00  0.00     0.267 C 
HETATM   13  H   UNL     1      63.357   8.581   2.896  1.00  0.00     0.277 HD
HETATM   14  H   UNL     1      62.569  10.051   2.786  1.00  0.00     0.277 HD
ENDBRANCH  10  11
ENDBRANCH   2  10
TORSDOF 2
ENDMDL
