MODEL 1
REMARK VINA RESULT:      -5.0      0.000      0.000
REMARK  4 active torsions:
REMARK  status: ('A' for Active; 'I' for Inactive)
REMARK    1  A    between atoms: N_1  and  C_5 
REMARK    2  A    between atoms: C_4  and  C_10 
REMARK    3  A    between atoms: C_5  and  C_8 
REMARK    4  A    between atoms: N_9  and  C_10 
ROOT
HETATM    1  N   UNL     1      64.358   7.833   5.738  1.00  0.00    -0.063 N 
HETATM    2  O   UNL     1      66.043   5.786   7.022  1.00  0.00    -0.381 OA
HETATM    3  C   UNL     1      65.787   8.035   6.055  1.00  0.00     0.268 C 
HETATM    4  C   UNL     1      66.672   6.772   6.176  1.00  0.00     0.172 C 
HETATM    5  C   UNL     1      64.702   5.489   6.624  1.00  0.00     0.196 C 
HETATM    6  C   UNL     1      63.822   6.745   6.570  1.00  0.00     0.261 C 
HETATM    7  H   UNL     1      63.875   8.700   5.977  1.00  0.00     0.280 HD
ENDROOT
BRANCH   1   8
HETATM    8  C   UNL     1      64.044   7.694   4.313  1.00  0.00     0.273 C 
BRANCH   8   9
HETATM    9  C   UNL     1      63.169   8.823   3.799  1.00  0.00    -0.033 A 
HETATM   10  C   UNL     1      62.642   8.799   2.502  1.00  0.00     0.009 A 
HETATM   11  C   UNL     1      61.927   9.897   2.012  1.00  0.00     0.001 A 
HETATM   12  C   UNL     1      61.708  11.010   2.818  1.00  0.00     0.000 A 
HETATM   13  C   UNL     1      62.181  11.023   4.126  1.00  0.00     0.001 A 
HETATM   14  C   UNL     1      62.901   9.933   4.618  1.00  0.00     0.009 A 
ENDBRANCH   8   9
ENDBRANCH   1   8
BRANCH   4  15
HETATM   15  C   UNL     1      67.139   6.127   4.851  1.00  0.00     0.263 C 
BRANCH  15  16
HETATM   16  N   UNL     1      67.603   7.071   3.837  1.00  0.00    -0.077 N 
HETATM   17  H   UNL     1      67.131   6.882   2.954  1.00  0.00     0.274 HD
HETATM   18  H   UNL     1      68.611   6.970   3.713  1.00  0.00     0.274 HD
HETATM   19  H   UNL     1      67.393   8.023   4.138  1.00  0.00     0.274 HD
ENDBRANCH  15  16
ENDBRANCH   4  15
TORSDOF 4
ENDMDL
MODEL 2
REMARK VINA RESULT:      -4.9      1.669      2.259
REMARK  4 active torsions:
REMARK  status: ('A' for Active; 'I' for Inactive)
REMARK    1  A    between atoms: N_1  and  C_5 
REMARK    2  A    between atoms: C_4  and  C_10 
REMARK    3  A    between atoms: C_5  and  C_8 
REMARK    4  A    between atoms: N_9  and  C_10 
ROOT
HETATM    1  N   UNL     1      64.974   6.799   5.271  1.00  0.00    -0.063 N 
HETATM    2  O   UNL     1      67.111   5.134   6.427  1.00  0.00    -0.381 OA
HETATM    3  C   UNL     1      64.835   6.065   6.545  1.00  0.00     0.268 C 
HETATM    4  C   UNL     1      66.134   5.723   7.312  1.00  0.00     0.172 C 
HETATM    5  C   UNL     1      67.346   5.922   5.257  1.00  0.00     0.196 C 
HETATM    6  C   UNL     1      66.055   6.198   4.474  1.00  0.00     0.261 C 
HETATM    7  H   UNL     1      64.093   6.689   4.767  1.00  0.00     0.280 HD
ENDROOT
BRANCH   1   8
HETATM    8  C   UNL     1      65.073   8.256   5.393  1.00  0.00     0.273 C 
BRANCH   8   9
HETATM    9  C   UNL     1      63.899   8.973   4.752  1.00  0.00    -0.033 A 
HETATM   10  C   UNL     1      63.284   8.470   3.598  1.00  0.00     0.009 A 
HETATM   11  C   UNL     1      62.274   9.199   2.963  1.00  0.00     0.001 A 
HETATM   12  C   UNL     1      61.851  10.418   3.486  1.00  0.00     0.000 A 
HETATM   13  C   UNL     1      62.417  10.902   4.661  1.00  0.00     0.001 A 
HETATM   14  C   UNL     1      63.429  10.181   5.295  1.00  0.00     0.009 A 
ENDBRANCH   8   9
ENDBRANCH   1   8
BRANCH   4  15
HETATM   15  C   UNL     1      66.773   6.867   8.132  1.00  0.00     0.263 C 
BRANCH  15  16
HETATM   16  N   UNL     1      67.973   6.493   8.878  1.00  0.00    -0.077 N 
HETATM   17  H   UNL     1      67.716   6.235   9.830  1.00  0.00     0.274 HD
HETATM   18  H   UNL     1      68.619   7.283   8.902  1.00  0.00     0.274 HD
HETATM   19  H   UNL     1      68.425   5.701   8.420  1.00  0.00     0.274 HD
ENDBRANCH  15  16
ENDBRANCH   4  15
TORSDOF 4
ENDMDL
MODEL 3
REMARK VINA RESULT:      -4.9      1.186      1.809
REMARK  4 active torsions:
REMARK  status: ('A' for Active; 'I' for Inactive)
REMARK    1  A    between atoms: N_1  and  C_5 
REMARK    2  A    between atoms: C_4  and  C_10 
REMARK    3  A    between atoms: C_5  and  C_8 
REMARK    4  A    between atoms: N_9  and  C_10 
ROOT
HETATM    1  N   UNL     1      65.184   7.834   6.106  1.00  0.00    -0.063 N 
HETATM    2  O   UNL     1      67.477   5.999   5.883  1.00  0.00    -0.381 OA
HETATM    3  C   UNL     1      66.302   8.038   5.163  1.00  0.00     0.268 C 
HETATM    4  C   UNL     1      67.104   6.788   4.733  1.00  0.00     0.172 C 
HETATM    5  C   UNL     1      66.363   5.684   6.723  1.00  0.00     0.196 C 
HETATM    6  C   UNL     1      65.615   6.939   7.191  1.00  0.00     0.261 C 
HETATM    7  H   UNL     1      64.957   8.748   6.502  1.00  0.00     0.280 HD
ENDROOT
BRANCH   1   8
HETATM    8  C   UNL     1      63.909   7.446   5.495  1.00  0.00     0.273 C 
BRANCH   8   9
HETATM    9  C   UNL     1      63.291   8.567   4.680  1.00  0.00    -0.033 A 
HETATM   10  C   UNL     1      63.031   9.820   5.250  1.00  0.00     0.009 A 
HETATM   11  C   UNL     1      62.365  10.805   4.513  1.00  0.00     0.001 A 
HETATM   12  C   UNL     1      61.980  10.560   3.199  1.00  0.00     0.000 A 
HETATM   13  C   UNL     1      62.280   9.338   2.605  1.00  0.00     0.001 A 
HETATM   14  C   UNL     1      62.939   8.350   3.337  1.00  0.00     0.009 A 
ENDBRANCH   8   9
ENDBRANCH   1   8
BRANCH   4  15
HETATM   15  C   UNL     1      66.459   5.892   3.651  1.00  0.00     0.263 C 
BRANCH  15  16
HETATM   16  N   UNL     1      67.392   5.021   2.939  1.00  0.00    -0.077 N 
HETATM   17  H   UNL     1      68.058   5.589   2.417  1.00  0.00     0.274 HD
HETATM   18  H   UNL     1      66.875   4.424   2.292  1.00  0.00     0.274 HD
HETATM   19  H   UNL     1      67.894   4.438   3.610  1.00  0.00     0.274 HD
ENDBRANCH  15  16
ENDBRANCH   4  15
TORSDOF 4
ENDMDL
MODEL 4
REMARK VINA RESULT:      -4.8      1.520      2.539
REMARK  4 active torsions:
REMARK  status: ('A' for Active; 'I' for Inactive)
REMARK    1  A    between atoms: N_1  and  C_5 
REMARK    2  A    between atoms: C_4  and  C_10 
REMARK    3  A    between atoms: C_5  and  C_8 
REMARK    4  A    between atoms: N_9  and  C_10 
ROOT
HETATM    1  N   UNL     1      65.165   7.488   4.831  1.00  0.00    -0.063 N 
HETATM    2  O   UNL     1      66.959   6.014   6.643  1.00  0.00    -0.381 OA
HETATM    3  C   UNL     1      65.510   6.062   4.654  1.00  0.00     0.268 C 
HETATM    4  C   UNL     1      65.955   5.279   5.912  1.00  0.00     0.172 C 
HETATM    5  C   UNL     1      66.561   7.356   6.935  1.00  0.00     0.196 C 
HETATM    6  C   UNL     1      66.183   8.138   5.670  1.00  0.00     0.261 C 
HETATM    7  H   UNL     1      65.179   7.915   3.903  1.00  0.00     0.280 HD
ENDROOT
BRANCH   1   8
HETATM    8  C   UNL     1      63.789   7.752   5.263  1.00  0.00     0.273 C 
BRANCH   8   9
HETATM    9  C   UNL     1      63.173   8.938   4.543  1.00  0.00    -0.033 A 
HETATM   10  C   UNL     1      62.995  10.167   5.191  1.00  0.00     0.009 A 
HETATM   11  C   UNL     1      62.330  11.214   4.545  1.00  0.00     0.001 A 
HETATM   12  C   UNL     1      61.863  11.054   3.244  1.00  0.00     0.000 A 
HETATM   13  C   UNL     1      62.081   9.856   2.571  1.00  0.00     0.001 A 
HETATM   14  C   UNL     1      62.739   8.806   3.213  1.00  0.00     0.009 A 
ENDBRANCH   8   9
ENDBRANCH   1   8
BRANCH   4  15
HETATM   15  C   UNL     1      64.832   4.807   6.865  1.00  0.00     0.263 C 
BRANCH  15  16
HETATM   16  N   UNL     1      65.115   3.565   7.580  1.00  0.00    -0.077 N 
HETATM   17  H   UNL     1      65.964   3.676   8.133  1.00  0.00     0.274 HD
HETATM   18  H   UNL     1      65.244   2.807   6.909  1.00  0.00     0.274 HD
HETATM   19  H   UNL     1      64.333   3.342   8.197  1.00  0.00     0.274 HD
ENDBRANCH  15  16
ENDBRANCH   4  15
TORSDOF 4
ENDMDL
MODEL 5
REMARK VINA RESULT:      -4.7      1.238      1.726
REMARK  4 active torsions:
REMARK  status: ('A' for Active; 'I' for Inactive)
REMARK    1  A    between atoms: N_1  and  C_5 
REMARK    2  A    between atoms: C_4  and  C_10 
REMARK    3  A    between atoms: C_5  and  C_8 
REMARK    4  A    between atoms: N_9  and  C_10 
ROOT
HETATM    1  N   UNL     1      64.031   8.000   5.081  1.00  0.00    -0.063 N 
HETATM    2  O   UNL     1      65.775   7.266   7.338  1.00  0.00    -0.381 OA
HETATM    3  C   UNL     1      65.236   8.765   5.462  1.00  0.00     0.268 C 
HETATM    4  C   UNL     1      66.340   8.010   6.237  1.00  0.00     0.172 C 
HETATM    5  C   UNL     1      64.697   6.417   6.937  1.00  0.00     0.196 C 
HETATM    6  C   UNL     1      63.581   7.193   6.225  1.00  0.00     0.261 C 
HETATM    7  H   UNL     1      63.306   8.681   4.850  1.00  0.00     0.280 HD
ENDROOT
BRANCH   1   8
HETATM    8  C   UNL     1      64.139   7.241   3.831  1.00  0.00     0.273 C 
BRANCH   8   9
HETATM    9  C   UNL     1      63.187   7.745   2.762  1.00  0.00    -0.033 A 
HETATM   10  C   UNL     1      62.945   7.003   1.598  1.00  0.00     0.009 A 
HETATM   11  C   UNL     1      62.147   7.533   0.579  1.00  0.00     0.001 A 
HETATM   12  C   UNL     1      61.564   8.789   0.722  1.00  0.00     0.000 A 
HETATM   13  C   UNL     1      61.755   9.511   1.896  1.00  0.00     0.001 A 
HETATM   14  C   UNL     1      62.554   8.990   2.913  1.00  0.00     0.009 A 
ENDBRANCH   8   9
ENDBRANCH   1   8
BRANCH   4  15
HETATM   15  C   UNL     1      67.276   7.107   5.401  1.00  0.00     0.263 C 
BRANCH  15  16
HETATM   16  N   UNL     1      68.075   7.810   4.399  1.00  0.00    -0.077 N 
HETATM   17  H   UNL     1      67.693   7.629   3.472  1.00  0.00     0.274 HD
HETATM   18  H   UNL     1      69.039   7.480   4.440  1.00  0.00     0.274 HD
HETATM   19  H   UNL     1      68.052   8.812   4.588  1.00  0.00     0.274 HD
ENDBRANCH  15  16
ENDBRANCH   4  15
TORSDOF 4
ENDMDL
MODEL 6
REMARK VINA RESULT:      -4.5      2.591      5.718
REMARK  4 active torsions:
REMARK  status: ('A' for Active; 'I' for Inactive)
REMARK    1  A    between atoms: N_1  and  C_5 
REMARK    2  A    between atoms: C_4  and  C_10 
REMARK    3  A    between atoms: C_5  and  C_8 
REMARK    4  A    between atoms: N_9  and  C_10 
ROOT
HETATM    1  N   UNL     1      63.410   8.847   5.462  1.00  0.00    -0.063 N 
HETATM    2  O   UNL     1      61.315  10.173   3.871  1.00  0.00    -0.381 OA
HETATM    3  C   UNL     1      62.313   8.119   4.791  1.00  0.00     0.268 C 
HETATM    4  C   UNL     1      61.652   8.801   3.570  1.00  0.00     0.172 C 
HETATM    5  C   UNL     1      62.422  10.914   4.391  1.00  0.00     0.196 C 
HETATM    6  C   UNL     1      63.026  10.256   5.638  1.00  0.00     0.261 C 
HETATM    7  H   UNL     1      63.532   8.420   6.381  1.00  0.00     0.280 HD
ENDROOT
BRANCH   1   8
HETATM    8  C   UNL     1      64.738   8.668   4.868  1.00  0.00     0.273 C 
BRANCH   8   9
HETATM    9  C   UNL     1      65.598   7.693   5.652  1.00  0.00    -0.033 A 
HETATM   10  C   UNL     1      65.087   7.004   6.760  1.00  0.00     0.009 A 
HETATM   11  C   UNL     1      65.924   6.192   7.531  1.00  0.00     0.001 A 
HETATM   12  C   UNL     1      67.264   6.038   7.190  1.00  0.00     0.000 A 
HETATM   13  C   UNL     1      67.770   6.675   6.061  1.00  0.00     0.001 A 
HETATM   14  C   UNL     1      66.941   7.492   5.292  1.00  0.00     0.009 A 
ENDBRANCH   8   9
ENDBRANCH   1   8
BRANCH   4  15
HETATM   15  C   UNL     1      62.421   8.717   2.231  1.00  0.00     0.263 C 
BRANCH  15  16
HETATM   16  N   UNL     1      61.806   9.444   1.123  1.00  0.00    -0.077 N 
HETATM   17  H   UNL     1      62.534   9.821   0.517  1.00  0.00     0.274 HD
HETATM   18  H   UNL     1      61.240  10.209   1.490  1.00  0.00     0.274 HD
HETATM   19  H   UNL     1      61.212   8.810   0.588  1.00  0.00     0.274 HD
ENDBRANCH  15  16
ENDBRANCH   4  15
TORSDOF 4
ENDMDL
MODEL 7
REMARK VINA RESULT:      -4.3      2.934      4.061
REMARK  4 active torsions:
REMARK  status: ('A' for Active; 'I' for Inactive)
REMARK    1  A    between atoms: N_1  and  C_5 
REMARK    2  A    between atoms: C_4  and  C_10 
REMARK    3  A    between atoms: C_5  and  C_8 
REMARK    4  A    between atoms: N_9  and  C_10 
ROOT
HETATM    1  N   UNL     1      62.412   8.604   3.540  1.00  0.00    -0.063 N 
HETATM    2  O   UNL     1      64.421   9.583   5.458  1.00  0.00    -0.381 OA
HETATM    3  C   UNL     1      63.757   8.011   3.684  1.00  0.00     0.268 C 
HETATM    4  C   UNL     1      64.474   8.202   5.041  1.00  0.00     0.172 C 
HETATM    5  C   UNL     1      63.093  10.114   5.451  1.00  0.00     0.196 C 
HETATM    6  C   UNL     1      62.419   9.973   4.080  1.00  0.00     0.261 C 
HETATM    7  H   UNL     1      62.210   8.645   2.540  1.00  0.00     0.280 HD
ENDROOT
BRANCH   1   8
HETATM    8  C   UNL     1      61.306   7.781   4.038  1.00  0.00     0.273 C 
BRANCH   8   9
HETATM    9  C   UNL     1      60.192   7.628   3.018  1.00  0.00    -0.033 A 
HETATM   10  C   UNL     1      60.418   7.863   1.656  1.00  0.00     0.009 A 
HETATM   11  C   UNL     1      59.356   7.820   0.747  1.00  0.00     0.001 A 
HETATM   12  C   UNL     1      58.069   7.517   1.183  1.00  0.00     0.000 A 
HETATM   13  C   UNL     1      57.842   7.230   2.526  1.00  0.00     0.001 A 
HETATM   14  C   UNL     1      58.897   7.277   3.437  1.00  0.00     0.009 A 
ENDBRANCH   8   9
ENDBRANCH   1   8
BRANCH   4  15
HETATM   15  C   UNL     1      64.028   7.274   6.195  1.00  0.00     0.263 C 
BRANCH  15  16
HETATM   16  N   UNL     1      65.036   7.053   7.230  1.00  0.00    -0.077 N 
HETATM   17  H   UNL     1      64.941   7.763   7.955  1.00  0.00     0.274 HD
HETATM   18  H   UNL     1      65.967   7.111   6.817  1.00  0.00     0.274 HD
HETATM   19  H   UNL     1      64.905   6.127   7.639  1.00  0.00     0.274 HD
ENDBRANCH  15  16
ENDBRANCH   4  15
TORSDOF 4
ENDMDL
MODEL 8
REMARK VINA RESULT:      -4.2      2.167      3.025
REMARK  4 active torsions:
REMARK  status: ('A' for Active; 'I' for Inactive)
REMARK    1  A    between atoms: N_1  and  C_5 
REMARK    2  A    between atoms: C_4  and  C_10 
REMARK    3  A    between atoms: C_5  and  C_8 
REMARK    4  A    between atoms: N_9  and  C_10 
ROOT
HETATM    1  N   UNL     1      61.758   7.000   4.690  1.00  0.00    -0.063 N 
HETATM    2  O   UNL     1      62.111   4.277   5.756  1.00  0.00    -0.381 OA
HETATM    3  C   UNL     1      62.195   6.716   6.072  1.00  0.00     0.268 C 
HETATM    4  C   UNL     1      62.878   5.354   6.335  1.00  0.00     0.172 C 
HETATM    5  C   UNL     1      61.810   4.491   4.374  1.00  0.00     0.196 C 
HETATM    6  C   UNL     1      61.076   5.819   4.139  1.00  0.00     0.261 C 
HETATM    7  H   UNL     1      61.092   7.772   4.740  1.00  0.00     0.280 HD
ENDROOT
BRANCH   1   8
HETATM    8  C   UNL     1      62.791   7.549   3.806  1.00  0.00     0.273 C 
BRANCH   8   9
HETATM    9  C   UNL     1      62.494   8.977   3.385  1.00  0.00    -0.033 A 
HETATM   10  C   UNL     1      62.410  10.009   4.329  1.00  0.00     0.009 A 
HETATM   11  C   UNL     1      62.032  11.296   3.934  1.00  0.00     0.001 A 
HETATM   12  C   UNL     1      61.763  11.571   2.596  1.00  0.00     0.000 A 
HETATM   13  C   UNL     1      61.896  10.567   1.642  1.00  0.00     0.001 A 
HETATM   14  C   UNL     1      62.267   9.280   2.032  1.00  0.00     0.009 A 
ENDBRANCH   8   9
ENDBRANCH   1   8
BRANCH   4  15
HETATM   15  C   UNL     1      64.365   5.237   5.926  1.00  0.00     0.263 C 
BRANCH  15  16
HETATM   16  N   UNL     1      65.209   6.351   6.352  1.00  0.00    -0.077 N 
HETATM   17  H   UNL     1      64.673   6.972   6.957  1.00  0.00     0.274 HD
HETATM   18  H   UNL     1      65.529   6.867   5.533  1.00  0.00     0.274 HD
HETATM   19  H   UNL     1      66.015   5.990   6.863  1.00  0.00     0.274 HD
ENDBRANCH  15  16
ENDBRANCH   4  15
TORSDOF 4
ENDMDL
MODEL 9
REMARK VINA RESULT:      -4.2      2.833      3.969
REMARK  4 active torsions:
REMARK  status: ('A' for Active; 'I' for Inactive)
REMARK    1  A    between atoms: N_1  and  C_5 
REMARK    2  A    between atoms: C_4  and  C_10 
REMARK    3  A    between atoms: C_5  and  C_8 
REMARK    4  A    between atoms: N_9  and  C_10 
ROOT
HETATM    1  N   UNL     1      62.449   6.576   3.694  1.00  0.00    -0.063 N 
HETATM    2  O   UNL     1      61.790   4.227   5.344  1.00  0.00    -0.381 OA
HETATM    3  C   UNL     1      61.067   6.123   3.952  1.00  0.00     0.268 C 
HETATM    4  C   UNL     1      60.820   5.290   5.231  1.00  0.00     0.172 C 
HETATM    5  C   UNL     1      63.138   4.692   5.234  1.00  0.00     0.196 C 
HETATM    6  C   UNL     1      63.381   5.462   3.929  1.00  0.00     0.261 C 
HETATM    7  H   UNL     1      62.497   6.844   2.710  1.00  0.00     0.280 HD
ENDROOT
BRANCH   1   8
HETATM    8  C   UNL     1      62.838   7.820   4.364  1.00  0.00     0.273 C 
BRANCH   8   9
HETATM    9  C   UNL     1      62.415   9.054   3.587  1.00  0.00    -0.033 A 
HETATM   10  C   UNL     1      62.273   9.020   2.194  1.00  0.00     0.009 A 
HETATM   11  C   UNL     1      61.986  10.192   1.487  1.00  0.00     0.001 A 
HETATM   12  C   UNL     1      61.812  11.397   2.162  1.00  0.00     0.000 A 
HETATM   13  C   UNL     1      61.899  11.432   3.550  1.00  0.00     0.001 A 
HETATM   14  C   UNL     1      62.191  10.267   4.260  1.00  0.00     0.009 A 
ENDBRANCH   8   9
ENDBRANCH   1   8
BRANCH   4  15
HETATM   15  C   UNL     1      60.726   6.076   6.559  1.00  0.00     0.263 C 
BRANCH  15  16
HETATM   16  N   UNL     1      60.156   5.326   7.677  1.00  0.00    -0.077 N 
HETATM   17  H   UNL     1      60.511   4.371   7.663  1.00  0.00     0.274 HD
HETATM   18  H   UNL     1      59.140   5.313   7.595  1.00  0.00     0.274 HD
HETATM   19  H   UNL     1      60.419   5.774   8.556  1.00  0.00     0.274 HD
ENDBRANCH  15  16
ENDBRANCH   4  15
TORSDOF 4
ENDMDL
