MODEL 1
REMARK VINA RESULT:      -4.2      0.000      0.000
REMARK  2 active torsions:
REMARK  status: ('A' for Active; 'I' for Inactive)
REMARK    1  A    between atoms: C_4  and  C_7 
REMARK    2  A    between atoms: C_7  and  O_9 
ROOT
HETATM    1  N   UNL     1      63.263   9.134   4.525  1.00  0.00    -0.298 N 
HETATM    2  N   UNL     1      62.963   8.690   3.286  1.00  0.00    -0.303 N 
ATOM      3  HN  UNL     1      63.222   7.799   2.861  1.00  0.00     0.186 HD
HETATM    4  C   UNL     1      62.754  10.380   4.787  1.00  0.00     0.053 A 
HETATM    5  C   UNL     1      62.092  10.756   3.637  1.00  0.00     0.055 A 
HETATM    6  C   UNL     1      62.250   9.678   2.740  1.00  0.00     0.024 A 
HETATM    7  C   UNL     1      64.033   8.272   5.392  1.00  0.00     0.177 C 
HETATM    8  C   UNL     1      61.735   9.558   1.356  1.00  0.00     0.070 C 
ENDROOT
BRANCH   4   9
HETATM    9  C   UNL     1      62.944  11.111   6.058  1.00  0.00     0.222 C 
BRANCH   9  10
HETATM   10  O   UNL     1      64.318  11.450   6.155  1.00  0.00    -0.395 OA
HETATM   11  H   UNL     1      64.477  11.922   6.986  1.00  0.00     0.209 HD
ENDBRANCH   9  10
ENDBRANCH   4   9
TORSDOF 2
ENDMDL
MODEL 2
REMARK VINA RESULT:      -4.1      1.269      2.355
REMARK  2 active torsions:
REMARK  status: ('A' for Active; 'I' for Inactive)
REMARK    1  A    between atoms: C_4  and  C_7 
REMARK    2  A    between atoms: C_7  and  O_9 
ROOT
HETATM    1  N   UNL     1      62.496  10.150   3.584  1.00  0.00    -0.298 N 
HETATM    2  N   UNL     1      62.688   9.019   2.870  1.00  0.00    -0.303 N 
ATOM      3  HN  UNL     1      62.380   8.821   1.918  1.00  0.00     0.186 HD
HETATM    4  C   UNL     1      63.047  10.093   4.839  1.00  0.00     0.053 A 
HETATM    5  C   UNL     1      63.622   8.843   4.932  1.00  0.00     0.055 A 
HETATM    6  C   UNL     1      63.373   8.219   3.691  1.00  0.00     0.024 A 
HETATM    7  C   UNL     1      61.783  11.239   2.958  1.00  0.00     0.177 C 
HETATM    8  C   UNL     1      63.774   6.861   3.256  1.00  0.00     0.070 C 
ENDROOT
BRANCH   4   9
HETATM    9  C   UNL     1      62.972  11.184   5.834  1.00  0.00     0.222 C 
BRANCH   9  10
HETATM   10  O   UNL     1      64.291  11.441   6.287  1.00  0.00    -0.395 OA
HETATM   11  H   UNL     1      64.893  10.775   5.922  1.00  0.00     0.209 HD
ENDBRANCH   9  10
ENDBRANCH   4   9
TORSDOF 2
ENDMDL
MODEL 3
REMARK VINA RESULT:      -3.9      2.150      2.650
REMARK  2 active torsions:
REMARK  status: ('A' for Active; 'I' for Inactive)
REMARK    1  A    between atoms: C_4  and  C_7 
REMARK    2  A    between atoms: C_7  and  O_9 
ROOT
HETATM    1  N   UNL     1      61.394   8.203   4.083  1.00  0.00    -0.298 N 
HETATM    2  N   UNL     1      61.019   9.182   3.230  1.00  0.00    -0.303 N 
ATOM      3  HN  UNL     1      60.243   9.171   2.569  1.00  0.00     0.186 HD
HETATM    4  C   UNL     1      62.483   8.543   4.845  1.00  0.00     0.053 A 
HETATM    5  C   UNL     1      62.827   9.818   4.447  1.00  0.00     0.055 A 
HETATM    6  C   UNL     1      61.894  10.167   3.449  1.00  0.00     0.024 A 
HETATM    7  C   UNL     1      60.623   6.981   4.101  1.00  0.00     0.177 C 
HETATM    8  C   UNL     1      61.807  11.433   2.683  1.00  0.00     0.070 C 
ENDROOT
BRANCH   4   9
HETATM    9  C   UNL     1      63.112   7.654   5.846  1.00  0.00     0.222 C 
BRANCH   9  10
HETATM   10  O   UNL     1      62.570   7.988   7.113  1.00  0.00    -0.395 OA
HETATM   11  H   UNL     1      63.283   8.028   7.769  1.00  0.00     0.209 HD
ENDBRANCH   9  10
ENDBRANCH   4   9
TORSDOF 2
ENDMDL
MODEL 4
REMARK VINA RESULT:      -3.7      2.110      2.702
REMARK  2 active torsions:
REMARK  status: ('A' for Active; 'I' for Inactive)
REMARK    1  A    between atoms: C_4  and  C_7 
REMARK    2  A    between atoms: C_7  and  O_9 
ROOT
HETATM    1  N   UNL     1      62.819   9.001   3.379  1.00  0.00    -0.298 N 
HETATM    2  N   UNL     1      63.045   7.808   2.787  1.00  0.00    -0.303 N 
ATOM      3  HN  UNL     1      63.507   6.990   3.185  1.00  0.00     0.186 HD
HETATM    4  C   UNL     1      62.163   9.889   2.565  1.00  0.00     0.053 A 
HETATM    5  C   UNL     1      61.965   9.220   1.375  1.00  0.00     0.055 A 
HETATM    6  C   UNL     1      62.527   7.940   1.563  1.00  0.00     0.024 A 
HETATM    7  C   UNL     1      63.258   9.179   4.744  1.00  0.00     0.177 C 
HETATM    8  C   UNL     1      62.587   6.818   0.597  1.00  0.00     0.070 C 
ENDROOT
BRANCH   4   9
HETATM    9  C   UNL     1      61.804  11.270   2.952  1.00  0.00     0.222 C 
BRANCH   9  10
HETATM   10  O   UNL     1      62.080  12.110   1.844  1.00  0.00    -0.395 OA
HETATM   11  H   UNL     1      61.317  12.117   1.246  1.00  0.00     0.209 HD
ENDBRANCH   9  10
ENDBRANCH   4   9
TORSDOF 2
ENDMDL
MODEL 5
REMARK VINA RESULT:      -3.5      1.638      3.148
REMARK  2 active torsions:
REMARK  status: ('A' for Active; 'I' for Inactive)
REMARK    1  A    between atoms: C_4  and  C_7 
REMARK    2  A    between atoms: C_7  and  O_9 
ROOT
HETATM    1  N   UNL     1      61.759   8.616   3.449  1.00  0.00    -0.298 N 
HETATM    2  N   UNL     1      62.152   7.553   4.184  1.00  0.00    -0.303 N 
ATOM      3  HN  UNL     1      61.949   6.567   4.015  1.00  0.00     0.186 HD
HETATM    4  C   UNL     1      62.211   9.811   3.950  1.00  0.00     0.053 A 
HETATM    5  C   UNL     1      62.933   9.487   5.079  1.00  0.00     0.055 A 
HETATM    6  C   UNL     1      62.867   8.081   5.180  1.00  0.00     0.024 A 
HETATM    7  C   UNL     1      60.963   8.373   2.268  1.00  0.00     0.177 C 
HETATM    8  C   UNL     1      63.473   7.211   6.214  1.00  0.00     0.070 C 
ENDROOT
BRANCH   4   9
HETATM    9  C   UNL     1      61.916  11.131   3.353  1.00  0.00     0.222 C 
BRANCH   9  10
HETATM   10  O   UNL     1      62.128  12.110   4.357  1.00  0.00    -0.395 OA
HETATM   11  H   UNL     1      61.841  12.977   4.029  1.00  0.00     0.209 HD
ENDBRANCH   9  10
ENDBRANCH   4   9
TORSDOF 2
ENDMDL
MODEL 6
REMARK VINA RESULT:      -3.4      2.213      3.536
REMARK  2 active torsions:
REMARK  status: ('A' for Active; 'I' for Inactive)
REMARK    1  A    between atoms: C_4  and  C_7 
REMARK    2  A    between atoms: C_7  and  O_9 
ROOT
HETATM    1  N   UNL     1      63.340   9.957   5.117  1.00  0.00    -0.298 N 
HETATM    2  N   UNL     1      64.420   9.275   5.555  1.00  0.00    -0.303 N 
ATOM      3  HN  UNL     1      65.047   9.521   6.321  1.00  0.00     0.186 HD
HETATM    4  C   UNL     1      62.707   9.345   4.065  1.00  0.00     0.053 A 
HETATM    5  C   UNL     1      63.436   8.201   3.814  1.00  0.00     0.055 A 
HETATM    6  C   UNL     1      64.482   8.204   4.760  1.00  0.00     0.024 A 
HETATM    7  C   UNL     1      62.987  11.184   5.794  1.00  0.00     0.177 C 
HETATM    8  C   UNL     1      65.559   7.200   4.933  1.00  0.00     0.070 C 
ENDROOT
BRANCH   4   9
HETATM    9  C   UNL     1      61.511   9.882   3.382  1.00  0.00     0.222 C 
BRANCH   9  10
HETATM   10  O   UNL     1      60.572   8.824   3.270  1.00  0.00    -0.395 OA
HETATM   11  H   UNL     1      59.807   9.010   3.834  1.00  0.00     0.209 HD
ENDBRANCH   9  10
ENDBRANCH   4   9
TORSDOF 2
ENDMDL
MODEL 7
REMARK VINA RESULT:      -3.4      3.325      4.494
REMARK  2 active torsions:
REMARK  status: ('A' for Active; 'I' for Inactive)
REMARK    1  A    between atoms: C_4  and  C_7 
REMARK    2  A    between atoms: C_7  and  O_9 
ROOT
HETATM    1  N   UNL     1      65.565   7.088   6.811  1.00  0.00    -0.298 N 
HETATM    2  N   UNL     1      64.235   7.304   6.704  1.00  0.00    -0.303 N 
ATOM      3  HN  UNL     1      63.505   7.044   7.367  1.00  0.00     0.186 HD
HETATM    4  C   UNL     1      66.275   7.570   5.741  1.00  0.00     0.053 A 
HETATM    5  C   UNL     1      65.336   8.123   4.895  1.00  0.00     0.055 A 
HETATM    6  C   UNL     1      64.093   7.932   5.534  1.00  0.00     0.024 A 
HETATM    7  C   UNL     1      66.055   6.424   7.997  1.00  0.00     0.177 C 
HETATM    8  C   UNL     1      62.750   8.338   5.058  1.00  0.00     0.070 C 
ENDROOT
BRANCH   4   9
HETATM    9  C   UNL     1      67.742   7.456   5.592  1.00  0.00     0.222 C 
BRANCH   9  10
HETATM   10  O   UNL     1      68.074   7.900   4.287  1.00  0.00    -0.395 OA
HETATM   11  H   UNL     1      68.143   7.136   3.694  1.00  0.00     0.209 HD
ENDBRANCH   9  10
ENDBRANCH   4   9
TORSDOF 2
ENDMDL
MODEL 8
REMARK VINA RESULT:      -3.3     11.344     12.479
REMARK  2 active torsions:
REMARK  status: ('A' for Active; 'I' for Inactive)
REMARK    1  A    between atoms: C_4  and  C_7 
REMARK    2  A    between atoms: C_7  and  O_9 
ROOT
HETATM    1  N   UNL     1      56.703   2.348  11.849  1.00  0.00    -0.298 N 
HETATM    2  N   UNL     1      56.732   1.764  13.066  1.00  0.00    -0.303 N 
ATOM      3  HN  UNL     1      55.941   1.456  13.631  1.00  0.00     0.186 HD
HETATM    4  C   UNL     1      57.953   2.633  11.360  1.00  0.00     0.053 A 
HETATM    5  C   UNL     1      58.834   2.207  12.332  1.00  0.00     0.055 A 
HETATM    6  C   UNL     1      58.031   1.679  13.365  1.00  0.00     0.024 A 
HETATM    7  C   UNL     1      55.417   2.573  11.230  1.00  0.00     0.177 C 
HETATM    8  C   UNL     1      58.470   1.085  14.649  1.00  0.00     0.070 C 
ENDROOT
BRANCH   4   9
HETATM    9  C   UNL     1      58.212   3.287  10.059  1.00  0.00     0.222 C 
BRANCH   9  10
HETATM   10  O   UNL     1      58.622   4.618  10.324  1.00  0.00    -0.395 OA
HETATM   11  H   UNL     1      59.186   4.932   9.601  1.00  0.00     0.209 HD
ENDBRANCH   9  10
ENDBRANCH   4   9
TORSDOF 2
ENDMDL
MODEL 9
REMARK VINA RESULT:      -3.3      4.451      6.348
REMARK  2 active torsions:
REMARK  status: ('A' for Active; 'I' for Inactive)
REMARK    1  A    between atoms: C_4  and  C_7 
REMARK    2  A    between atoms: C_7  and  O_9 
ROOT
HETATM    1  N   UNL     1      66.110   7.375   6.565  1.00  0.00    -0.298 N 
HETATM    2  N   UNL     1      67.225   7.360   7.328  1.00  0.00    -0.303 N 
ATOM      3  HN  UNL     1      68.026   7.989   7.276  1.00  0.00     0.186 HD
HETATM    4  C   UNL     1      65.218   6.388   6.900  1.00  0.00     0.053 A 
HETATM    5  C   UNL     1      65.805   5.698   7.939  1.00  0.00     0.055 A 
HETATM    6  C   UNL     1      67.043   6.336   8.165  1.00  0.00     0.024 A 
HETATM    7  C   UNL     1      65.992   8.395   5.549  1.00  0.00     0.177 C 
HETATM    8  C   UNL     1      68.075   5.995   9.172  1.00  0.00     0.070 C 
ENDROOT
BRANCH   4   9
HETATM    9  C   UNL     1      63.925   6.165   6.218  1.00  0.00     0.222 C 
BRANCH   9  10
HETATM   10  O   UNL     1      63.052   7.215   6.602  1.00  0.00    -0.395 OA
HETATM   11  H   UNL     1      62.146   6.995   6.337  1.00  0.00     0.209 HD
ENDBRANCH   9  10
ENDBRANCH   4   9
TORSDOF 2
ENDMDL
