MODEL 1
REMARK VINA RESULT:      -3.9      0.000      0.000
REMARK  2 active torsions:
REMARK  status: ('A' for Active; 'I' for Inactive)
REMARK    1  A    between atoms: C_1  and  C_6 
REMARK    2  A    between atoms: C_6  and  N_9 
ROOT
HETATM    1  C   UNL     1      63.408   8.731   4.445  1.00  0.00     0.089 A 
HETATM    2  N   UNL     1      62.803   9.975   4.487  1.00  0.00    -0.293 N 
HETATM    3  N   UNL     1      62.127  10.286   3.358  1.00  0.00    -0.303 N 
ATOM      4  HN  UNL     1      61.609  11.142   3.158  1.00  0.00     0.186 HD
HETATM    5  C   UNL     1      63.075   8.244   3.186  1.00  0.00     0.060 A 
HETATM    6  C   UNL     1      62.288   9.228   2.564  1.00  0.00     0.024 A 
HETATM    7  C   UNL     1      62.835  11.010   5.496  1.00  0.00     0.178 C 
HETATM    8  C   UNL     1      61.672   9.207   1.218  1.00  0.00     0.070 C 
ENDROOT
BRANCH   1   9
HETATM    9  C   UNL     1      64.212   8.049   5.433  1.00  0.00     0.122 C 
HETATM   10  S   UNL     1      65.870   7.951   5.396  1.00  0.00    -0.059 SA
BRANCH   9  11
HETATM   11  N   UNL     1      63.543   7.517   6.501  1.00  0.00    -0.388 N 
HETATM   12  H   UNL     1      62.626   7.813   6.704  1.00  0.00     0.157 HD
HETATM   13  H   UNL     1      63.979   6.841   7.067  1.00  0.00     0.157 HD
ENDBRANCH   9  11
ENDBRANCH   1   9
TORSDOF 2
ENDMDL
MODEL 2
REMARK VINA RESULT:      -3.7      2.219      3.631
REMARK  2 active torsions:
REMARK  status: ('A' for Active; 'I' for Inactive)
REMARK    1  A    between atoms: C_1  and  C_6 
REMARK    2  A    between atoms: C_6  and  N_9 
ROOT
HETATM    1  C   UNL     1      62.929   8.904   3.840  1.00  0.00     0.089 A 
HETATM    2  N   UNL     1      63.350   9.730   4.869  1.00  0.00    -0.293 N 
HETATM    3  N   UNL     1      64.428   9.258   5.535  1.00  0.00    -0.303 N 
ATOM      4  HN  UNL     1      64.909   9.688   6.325  1.00  0.00     0.186 HD
HETATM    5  C   UNL     1      63.823   7.841   3.883  1.00  0.00     0.060 A 
HETATM    6  C   UNL     1      64.722   8.107   4.931  1.00  0.00     0.024 A 
HETATM    7  C   UNL     1      62.789  10.957   5.387  1.00  0.00     0.178 C 
HETATM    8  C   UNL     1      65.870   7.295   5.395  1.00  0.00     0.070 C 
ENDROOT
BRANCH   1   9
HETATM    9  C   UNL     1      61.829   9.050   2.916  1.00  0.00     0.122 C 
HETATM   10  S   UNL     1      61.995   9.384   1.297  1.00  0.00    -0.059 SA
BRANCH   9  11
HETATM   11  N   UNL     1      60.577   8.822   3.417  1.00  0.00    -0.388 N 
HETATM   12  H   UNL     1      60.263   9.325   4.203  1.00  0.00     0.157 HD
HETATM   13  H   UNL     1      59.990   8.156   2.992  1.00  0.00     0.157 HD
ENDBRANCH   9  11
ENDBRANCH   1   9
TORSDOF 2
ENDMDL
MODEL 3
REMARK VINA RESULT:      -3.6      1.643      2.175
REMARK  2 active torsions:
REMARK  status: ('A' for Active; 'I' for Inactive)
REMARK    1  A    between atoms: C_1  and  C_6 
REMARK    2  A    between atoms: C_6  and  N_9 
ROOT
HETATM    1  C   UNL     1      62.575   8.754   4.394  1.00  0.00     0.089 A 
HETATM    2  N   UNL     1      61.545   8.354   3.559  1.00  0.00    -0.293 N 
HETATM    3  N   UNL     1      61.125   9.323   2.715  1.00  0.00    -0.303 N 
ATOM      4  HN  UNL     1      60.384   9.262   2.018  1.00  0.00     0.186 HD
HETATM    5  C   UNL     1      62.800  10.076   4.029  1.00  0.00     0.060 A 
HETATM    6  C   UNL     1      61.893  10.374   2.997  1.00  0.00     0.024 A 
HETATM    7  C   UNL     1      60.809   7.112   3.494  1.00  0.00     0.178 C 
HETATM    8  C   UNL     1      61.720  11.643   2.254  1.00  0.00     0.070 C 
ENDROOT
BRANCH   1   9
HETATM    9  C   UNL     1      63.282   8.026   5.421  1.00  0.00     0.122 C 
HETATM   10  S   UNL     1      64.859   7.518   5.304  1.00  0.00    -0.059 SA
BRANCH   9  11
HETATM   11  N   UNL     1      62.607   7.814   6.592  1.00  0.00    -0.388 N 
HETATM   12  H   UNL     1      62.153   8.564   7.041  1.00  0.00     0.157 HD
HETATM   13  H   UNL     1      62.577   6.914   6.987  1.00  0.00     0.157 HD
ENDBRANCH   9  11
ENDBRANCH   1   9
TORSDOF 2
ENDMDL
MODEL 4
REMARK VINA RESULT:      -3.6      1.667      2.469
REMARK  2 active torsions:
REMARK  status: ('A' for Active; 'I' for Inactive)
REMARK    1  A    between atoms: C_1  and  C_6 
REMARK    2  A    between atoms: C_6  and  N_9 
ROOT
HETATM    1  C   UNL     1      64.326   8.160   4.925  1.00  0.00     0.089 A 
HETATM    2  N   UNL     1      63.924   7.653   3.701  1.00  0.00    -0.293 N 
HETATM    3  N   UNL     1      63.009   8.423   3.071  1.00  0.00    -0.303 N 
ATOM      4  HN  UNL     1      62.568   8.253   2.167  1.00  0.00     0.186 HD
HETATM    5  C   UNL     1      63.595   9.335   5.052  1.00  0.00     0.060 A 
HETATM    6  C   UNL     1      62.810   9.454   3.892  1.00  0.00     0.024 A 
HETATM    7  C   UNL     1      64.263   6.418   3.031  1.00  0.00     0.178 C 
HETATM    8  C   UNL     1      61.857  10.526   3.524  1.00  0.00     0.070 C 
ENDROOT
BRANCH   1   9
HETATM    9  C   UNL     1      65.267   7.638   5.889  1.00  0.00     0.122 C 
HETATM   10  S   UNL     1      66.918   7.760   5.759  1.00  0.00    -0.059 SA
BRANCH   9  11
HETATM   11  N   UNL     1      64.735   7.072   7.015  1.00  0.00    -0.388 N 
HETATM   12  H   UNL     1      64.939   7.452   7.900  1.00  0.00     0.157 HD
HETATM   13  H   UNL     1      64.150   6.284   6.941  1.00  0.00     0.157 HD
ENDBRANCH   9  11
ENDBRANCH   1   9
TORSDOF 2
ENDMDL
MODEL 5
REMARK VINA RESULT:      -3.4      2.083      3.188
REMARK  2 active torsions:
REMARK  status: ('A' for Active; 'I' for Inactive)
REMARK    1  A    between atoms: C_1  and  C_6 
REMARK    2  A    between atoms: C_6  and  N_9 
ROOT
HETATM    1  C   UNL     1      65.050   7.830   5.645  1.00  0.00     0.089 A 
HETATM    2  N   UNL     1      63.966   6.973   5.727  1.00  0.00    -0.293 N 
HETATM    3  N   UNL     1      62.831   7.486   5.201  1.00  0.00    -0.303 N 
ATOM      4  HN  UNL     1      61.913   7.044   5.151  1.00  0.00     0.186 HD
HETATM    5  C   UNL     1      64.533   8.958   5.018  1.00  0.00     0.060 A 
HETATM    6  C   UNL     1      63.176   8.696   4.762  1.00  0.00     0.024 A 
HETATM    7  C   UNL     1      63.833   5.671   6.340  1.00  0.00     0.178 C 
HETATM    8  C   UNL     1      62.172   9.565   4.108  1.00  0.00     0.070 C 
ENDROOT
BRANCH   1   9
HETATM    9  C   UNL     1      66.413   7.658   6.091  1.00  0.00     0.122 C 
HETATM   10  S   UNL     1      67.487   6.566   5.446  1.00  0.00    -0.059 SA
BRANCH   9  11
HETATM   11  N   UNL     1      66.848   8.514   7.065  1.00  0.00    -0.388 N 
HETATM   12  H   UNL     1      67.759   8.885   7.022  1.00  0.00     0.157 HD
HETATM   13  H   UNL     1      66.252   8.757   7.809  1.00  0.00     0.157 HD
ENDBRANCH   9  11
ENDBRANCH   1   9
TORSDOF 2
ENDMDL
MODEL 6
REMARK VINA RESULT:      -3.3      2.142      2.635
REMARK  2 active torsions:
REMARK  status: ('A' for Active; 'I' for Inactive)
REMARK    1  A    between atoms: C_1  and  C_6 
REMARK    2  A    between atoms: C_6  and  N_9 
ROOT
HETATM    1  C   UNL     1      62.492   8.291   2.882  1.00  0.00     0.089 A 
HETATM    2  N   UNL     1      62.539   9.031   4.051  1.00  0.00    -0.293 N 
HETATM    3  N   UNL     1      62.263  10.343   3.872  1.00  0.00    -0.303 N 
ATOM      4  HN  UNL     1      62.240  11.077   4.580  1.00  0.00     0.186 HD
HETATM    5  C   UNL     1      62.162   9.228   1.910  1.00  0.00     0.060 A 
HETATM    6  C   UNL     1      62.027  10.464   2.566  1.00  0.00     0.024 A 
HETATM    7  C   UNL     1      62.900   8.652   5.398  1.00  0.00     0.178 C 
HETATM    8  C   UNL     1      61.680  11.784   1.992  1.00  0.00     0.070 C 
ENDROOT
BRANCH   1   9
HETATM    9  C   UNL     1      62.728   6.884   2.657  1.00  0.00     0.122 C 
HETATM   10  S   UNL     1      64.205   6.138   2.808  1.00  0.00    -0.059 SA
BRANCH   9  11
HETATM   11  N   UNL     1      61.630   6.120   2.372  1.00  0.00    -0.388 N 
HETATM   12  H   UNL     1      61.185   6.206   1.498  1.00  0.00     0.157 HD
HETATM   13  H   UNL     1      61.285   5.485   3.040  1.00  0.00     0.157 HD
ENDBRANCH   9  11
ENDBRANCH   1   9
TORSDOF 2
ENDMDL
MODEL 7
REMARK VINA RESULT:      -3.3      3.605      6.142
REMARK  2 active torsions:
REMARK  status: ('A' for Active; 'I' for Inactive)
REMARK    1  A    between atoms: C_1  and  C_6 
REMARK    2  A    between atoms: C_6  and  N_9 
ROOT
HETATM    1  C   UNL     1      65.602   6.683   6.603  1.00  0.00     0.089 A 
HETATM    2  N   UNL     1      66.763   6.312   5.947  1.00  0.00    -0.293 N 
HETATM    3  N   UNL     1      67.764   5.953   6.781  1.00  0.00    -0.303 N 
ATOM      4  HN  UNL     1      68.705   5.648   6.530  1.00  0.00     0.186 HD
HETATM    5  C   UNL     1      65.922   6.538   7.948  1.00  0.00     0.060 A 
HETATM    6  C   UNL     1      67.251   6.085   8.004  1.00  0.00     0.024 A 
HETATM    7  C   UNL     1      67.098   6.317   4.541  1.00  0.00     0.178 C 
HETATM    8  C   UNL     1      68.073   5.769   9.194  1.00  0.00     0.070 C 
ENDROOT
BRANCH   1   9
HETATM    9  C   UNL     1      64.333   7.129   6.077  1.00  0.00     0.122 C 
HETATM   10  S   UNL     1      63.009   6.153   5.848  1.00  0.00    -0.059 SA
BRANCH   9  11
HETATM   11  N   UNL     1      64.215   8.469   5.825  1.00  0.00    -0.388 N 
HETATM   12  H   UNL     1      63.588   8.785   5.135  1.00  0.00     0.157 HD
HETATM   13  H   UNL     1      64.758   9.115   6.331  1.00  0.00     0.157 HD
ENDBRANCH   9  11
ENDBRANCH   1   9
TORSDOF 2
ENDMDL
MODEL 8
REMARK VINA RESULT:      -3.2      2.419      4.197
REMARK  2 active torsions:
REMARK  status: ('A' for Active; 'I' for Inactive)
REMARK    1  A    between atoms: C_1  and  C_6 
REMARK    2  A    between atoms: C_6  and  N_9 
ROOT
HETATM    1  C   UNL     1      62.763   7.995   4.567  1.00  0.00     0.089 A 
HETATM    2  N   UNL     1      62.739   7.316   5.774  1.00  0.00    -0.293 N 
HETATM    3  N   UNL     1      63.935   7.291   6.404  1.00  0.00    -0.303 N 
ATOM      4  HN  UNL     1      64.159   6.852   7.297  1.00  0.00     0.186 HD
HETATM    5  C   UNL     1      64.082   8.417   4.452  1.00  0.00     0.060 A 
HETATM    6  C   UNL     1      64.755   7.967   5.601  1.00  0.00     0.024 A 
HETATM    7  C   UNL     1      61.679   6.579   6.424  1.00  0.00     0.178 C 
HETATM    8  C   UNL     1      66.176   8.154   5.975  1.00  0.00     0.070 C 
ENDROOT
BRANCH   1   9
HETATM    9  C   UNL     1      61.709   8.234   3.609  1.00  0.00     0.122 C 
HETATM   10  S   UNL     1      61.018   7.064   2.653  1.00  0.00    -0.059 SA
BRANCH   9  11
HETATM   11  N   UNL     1      61.213   9.508   3.554  1.00  0.00    -0.388 N 
HETATM   12  H   UNL     1      61.829  10.273   3.497  1.00  0.00     0.157 HD
HETATM   13  H   UNL     1      60.241   9.658   3.572  1.00  0.00     0.157 HD
ENDBRANCH   9  11
ENDBRANCH   1   9
TORSDOF 2
ENDMDL
MODEL 9
REMARK VINA RESULT:      -3.1     11.196     12.505
REMARK  2 active torsions:
REMARK  status: ('A' for Active; 'I' for Inactive)
REMARK    1  A    between atoms: C_1  and  C_6 
REMARK    2  A    between atoms: C_6  and  N_9 
ROOT
HETATM    1  C   UNL     1      57.582   2.443  12.003  1.00  0.00     0.089 A 
HETATM    2  N   UNL     1      58.025   1.985  13.232  1.00  0.00    -0.293 N 
HETATM    3  N   UNL     1      57.051   1.914  14.166  1.00  0.00    -0.303 N 
ATOM      4  HN  UNL     1      57.139   1.611  15.136  1.00  0.00     0.186 HD
HETATM    5  C   UNL     1      56.226   2.671  12.205  1.00  0.00     0.060 A 
HETATM    6  C   UNL     1      55.950   2.327  13.540  1.00  0.00     0.024 A 
HETATM    7  C   UNL     1      59.353   1.646  13.693  1.00  0.00     0.178 C 
HETATM    8  C   UNL     1      54.658   2.379  14.261  1.00  0.00     0.070 C 
ENDROOT
BRANCH   1   9
HETATM    9  C   UNL     1      58.304   2.662  10.772  1.00  0.00     0.122 C 
HETATM   10  S   UNL     1      58.749   1.463   9.711  1.00  0.00    -0.059 SA
BRANCH   9  11
HETATM   11  N   UNL     1      58.567   3.963  10.442  1.00  0.00    -0.388 N 
HETATM   12  H   UNL     1      59.398   4.192   9.966  1.00  0.00     0.157 HD
HETATM   13  H   UNL     1      57.926   4.671  10.680  1.00  0.00     0.157 HD
ENDBRANCH   9  11
ENDBRANCH   1   9
TORSDOF 2
ENDMDL
