MODEL 1
REMARK VINA RESULT:      -5.4      0.000      0.000
REMARK  1 active torsions:
REMARK  status: ('A' for Active; 'I' for Inactive)
REMARK    1  A    between atoms: C_1  and  C_5 
ROOT
HETATM    1  C   UNL     1      63.090   7.908   4.499  1.00  0.00     0.058 A 
HETATM    2  C   UNL     1      63.215   6.837   3.632  1.00  0.00     0.069 A 
HETATM    3  C   UNL     1      62.628   9.095   3.800  1.00  0.00    -0.002 A 
HETATM    4  S   UNL     1      62.806   7.219   2.028  1.00  0.00    -0.100 SA
HETATM    5  C   UNL     1      62.438   8.848   2.436  1.00  0.00     0.016 A 
HETATM    6  C   UNL     1      62.354  10.410   4.266  1.00  0.00     0.014 A 
HETATM    7  C   UNL     1      61.996   9.850   1.549  1.00  0.00     0.019 A 
HETATM    8  C   UNL     1      61.914  11.409   3.389  1.00  0.00     0.001 A 
HETATM    9  C   UNL     1      61.738  11.130   2.044  1.00  0.00     0.001 A 
ENDROOT
BRANCH   1  10
HETATM   10  C   UNL     1      63.392   7.811   5.919  1.00  0.00     0.210 C 
HETATM   11  O   UNL     1      62.582   7.650   6.821  1.00  0.00    -0.644 OA
HETATM   12  O   UNL     1      64.710   7.915   6.221  1.00  0.00    -0.644 OA
ENDBRANCH   1  10
TORSDOF 1
ENDMDL
MODEL 2
REMARK VINA RESULT:      -5.2      2.170      2.957
REMARK  1 active torsions:
REMARK  status: ('A' for Active; 'I' for Inactive)
REMARK    1  A    between atoms: C_1  and  C_5 
ROOT
HETATM    1  C   UNL     1      62.856   9.574   4.514  1.00  0.00     0.058 A 
HETATM    2  C   UNL     1      63.380   8.572   5.311  1.00  0.00     0.069 A 
HETATM    3  C   UNL     1      62.602   9.091   3.167  1.00  0.00    -0.002 A 
HETATM    4  S   UNL     1      63.578   7.096   4.494  1.00  0.00    -0.100 SA
HETATM    5  C   UNL     1      62.960   7.746   3.026  1.00  0.00     0.016 A 
HETATM    6  C   UNL     1      62.073   9.746   2.021  1.00  0.00     0.014 A 
HETATM    7  C   UNL     1      62.810   7.056   1.807  1.00  0.00     0.019 A 
HETATM    8  C   UNL     1      61.922   9.065   0.808  1.00  0.00     0.001 A 
HETATM    9  C   UNL     1      62.288   7.733   0.703  1.00  0.00     0.001 A 
ENDROOT
BRANCH   1  10
HETATM   10  C   UNL     1      62.607  10.921   5.004  1.00  0.00     0.210 C 
HETATM   11  O   UNL     1      61.957  11.788   4.437  1.00  0.00    -0.644 OA
HETATM   12  O   UNL     1      63.170  11.194   6.206  1.00  0.00    -0.644 OA
ENDBRANCH   1  10
TORSDOF 1
ENDMDL
MODEL 3
REMARK VINA RESULT:      -5.0      1.685      2.749
REMARK  1 active torsions:
REMARK  status: ('A' for Active; 'I' for Inactive)
REMARK    1  A    between atoms: C_1  and  C_5 
ROOT
HETATM    1  C   UNL     1      63.001   9.368   4.404  1.00  0.00     0.058 A 
HETATM    2  C   UNL     1      62.482  10.651   4.384  1.00  0.00     0.069 A 
HETATM    3  C   UNL     1      62.803   8.703   3.128  1.00  0.00    -0.002 A 
HETATM    4  S   UNL     1      61.769  11.064   2.898  1.00  0.00    -0.100 SA
HETATM    5  C   UNL     1      62.134   9.528   2.216  1.00  0.00     0.016 A 
HETATM    6  C   UNL     1      63.164   7.403   2.683  1.00  0.00     0.014 A 
HETATM    7  C   UNL     1      61.824   9.100   0.910  1.00  0.00     0.019 A 
HETATM    8  C   UNL     1      62.858   6.973   1.386  1.00  0.00     0.001 A 
HETATM    9  C   UNL     1      62.194   7.815   0.510  1.00  0.00     0.001 A 
ENDROOT
BRANCH   1  10
HETATM   10  C   UNL     1      63.654   8.803   5.575  1.00  0.00     0.210 C 
HETATM   11  O   UNL     1      63.148   8.038   6.385  1.00  0.00    -0.644 OA
HETATM   12  O   UNL     1      64.942   9.190   5.743  1.00  0.00    -0.644 OA
ENDBRANCH   1  10
TORSDOF 1
ENDMDL
MODEL 4
REMARK VINA RESULT:      -4.9      2.535      3.966
REMARK  1 active torsions:
REMARK  status: ('A' for Active; 'I' for Inactive)
REMARK    1  A    between atoms: C_1  and  C_5 
ROOT
HETATM    1  C   UNL     1      62.096   9.781   2.533  1.00  0.00     0.058 A 
HETATM    2  C   UNL     1      61.526   9.289   1.373  1.00  0.00     0.069 A 
HETATM    3  C   UNL     1      62.919   8.772   3.179  1.00  0.00    -0.002 A 
HETATM    4  S   UNL     1      61.942   7.674   1.050  1.00  0.00    -0.100 SA
HETATM    5  C   UNL     1      62.914   7.569   2.464  1.00  0.00     0.016 A 
HETATM    6  C   UNL     1      63.692   8.816   4.371  1.00  0.00     0.014 A 
HETATM    7  C   UNL     1      63.638   6.440   2.896  1.00  0.00     0.019 A 
HETATM    8  C   UNL     1      64.413   7.697   4.805  1.00  0.00     0.001 A 
HETATM    9  C   UNL     1      64.384   6.521   4.073  1.00  0.00     0.001 A 
ENDROOT
BRANCH   1  10
HETATM   10  C   UNL     1      61.873  11.138   3.007  1.00  0.00     0.210 C 
HETATM   11  O   UNL     1      61.675  11.476   4.165  1.00  0.00    -0.644 OA
HETATM   12  O   UNL     1      61.895  12.083   2.035  1.00  0.00    -0.644 OA
ENDBRANCH   1  10
TORSDOF 1
ENDMDL
MODEL 5
REMARK VINA RESULT:      -4.2      2.999      4.533
REMARK  1 active torsions:
REMARK  status: ('A' for Active; 'I' for Inactive)
REMARK    1  A    between atoms: C_1  and  C_5 
ROOT
HETATM    1  C   UNL     1      62.126   9.078   3.040  1.00  0.00     0.058 A 
HETATM    2  C   UNL     1      61.875  10.194   3.818  1.00  0.00     0.069 A 
HETATM    3  C   UNL     1      63.264   8.331   3.548  1.00  0.00    -0.002 A 
HETATM    4  S   UNL     1      62.958  10.367   5.115  1.00  0.00    -0.100 SA
HETATM    5  C   UNL     1      63.812   8.938   4.684  1.00  0.00     0.016 A 
HETATM    6  C   UNL     1      63.880   7.135   3.090  1.00  0.00     0.014 A 
HETATM    7  C   UNL     1      64.928   8.399   5.354  1.00  0.00     0.019 A 
HETATM    8  C   UNL     1      64.989   6.596   3.752  1.00  0.00     0.001 A 
HETATM    9  C   UNL     1      65.507   7.223   4.873  1.00  0.00     0.001 A 
ENDROOT
BRANCH   1  10
HETATM   10  C   UNL     1      61.326   8.736   1.874  1.00  0.00     0.210 C 
HETATM   11  O   UNL     1      60.257   8.141   1.880  1.00  0.00    -0.644 OA
HETATM   12  O   UNL     1      61.857   9.133   0.692  1.00  0.00    -0.644 OA
ENDBRANCH   1  10
TORSDOF 1
ENDMDL
MODEL 6
REMARK VINA RESULT:      -4.1      2.170      3.706
REMARK  1 active torsions:
REMARK  status: ('A' for Active; 'I' for Inactive)
REMARK    1  A    between atoms: C_1  and  C_5 
ROOT
HETATM    1  C   UNL     1      63.175   8.562   4.442  1.00  0.00     0.058 A 
HETATM    2  C   UNL     1      62.765   8.972   3.186  1.00  0.00     0.069 A 
HETATM    3  C   UNL     1      62.241   7.607   5.011  1.00  0.00    -0.002 A 
HETATM    4  S   UNL     1      61.308   8.255   2.687  1.00  0.00    -0.100 SA
HETATM    5  C   UNL     1      61.169   7.357   4.147  1.00  0.00     0.016 A 
HETATM    6  C   UNL     1      62.245   6.919   6.255  1.00  0.00     0.014 A 
HETATM    7  C   UNL     1      60.131   6.465   4.482  1.00  0.00     0.019 A 
HETATM    8  C   UNL     1      61.216   6.033   6.593  1.00  0.00     0.001 A 
HETATM    9  C   UNL     1      60.169   5.810   5.714  1.00  0.00     0.001 A 
ENDROOT
BRANCH   1  10
HETATM   10  C   UNL     1      64.393   9.052   5.070  1.00  0.00     0.210 C 
HETATM   11  O   UNL     1      65.503   8.546   4.985  1.00  0.00    -0.644 OA
HETATM   12  O   UNL     1      64.231  10.175   5.811  1.00  0.00    -0.644 OA
ENDBRANCH   1  10
TORSDOF 1
ENDMDL
MODEL 7
REMARK VINA RESULT:      -4.0      2.448      3.139
REMARK  1 active torsions:
REMARK  status: ('A' for Active; 'I' for Inactive)
REMARK    1  A    between atoms: C_1  and  C_5 
ROOT
HETATM    1  C   UNL     1      62.979   7.012   3.364  1.00  0.00     0.058 A 
HETATM    2  C   UNL     1      63.226   6.890   4.720  1.00  0.00     0.069 A 
HETATM    3  C   UNL     1      62.582   8.368   3.025  1.00  0.00    -0.002 A 
HETATM    4  S   UNL     1      62.990   8.336   5.579  1.00  0.00    -0.100 SA
HETATM    5  C   UNL     1      62.545   9.192   4.156  1.00  0.00     0.016 A 
HETATM    6  C   UNL     1      62.237   8.959   1.780  1.00  0.00     0.014 A 
HETATM    7  C   UNL     1      62.184  10.551   4.078  1.00  0.00     0.019 A 
HETATM    8  C   UNL     1      61.876  10.309   1.698  1.00  0.00     0.001 A 
HETATM    9  C   UNL     1      61.850  11.096   2.837  1.00  0.00     0.001 A 
ENDROOT
BRANCH   1  10
HETATM   10  C   UNL     1      63.114   5.899   2.436  1.00  0.00     0.210 C 
HETATM   11  O   UNL     1      63.863   5.850   1.471  1.00  0.00    -0.644 OA
HETATM   12  O   UNL     1      62.311   4.841   2.708  1.00  0.00    -0.644 OA
ENDBRANCH   1  10
TORSDOF 1
ENDMDL
MODEL 8
REMARK VINA RESULT:      -4.0      2.994      4.144
REMARK  1 active torsions:
REMARK  status: ('A' for Active; 'I' for Inactive)
REMARK    1  A    between atoms: C_1  and  C_5 
ROOT
HETATM    1  C   UNL     1      62.375   9.456   4.091  1.00  0.00     0.058 A 
HETATM    2  C   UNL     1      63.551   9.255   4.793  1.00  0.00     0.069 A 
HETATM    3  C   UNL     1      61.582   8.240   4.042  1.00  0.00    -0.002 A 
HETATM    4  S   UNL     1      63.722   7.669   5.377  1.00  0.00    -0.100 SA
HETATM    5  C   UNL     1      62.214   7.185   4.709  1.00  0.00     0.016 A 
HETATM    6  C   UNL     1      60.320   7.969   3.445  1.00  0.00     0.014 A 
HETATM    7  C   UNL     1      61.638   5.902   4.793  1.00  0.00     0.019 A 
HETATM    8  C   UNL     1      59.744   6.696   3.526  1.00  0.00     0.001 A 
HETATM    9  C   UNL     1      60.398   5.673   4.194  1.00  0.00     0.001 A 
ENDROOT
BRANCH   1  10
HETATM   10  C   UNL     1      62.023  10.737   3.497  1.00  0.00     0.210 C 
HETATM   11  O   UNL     1      61.795  11.775   4.102  1.00  0.00    -0.644 OA
HETATM   12  O   UNL     1      61.951  10.728   2.144  1.00  0.00    -0.644 OA
ENDBRANCH   1  10
TORSDOF 1
ENDMDL
MODEL 9
REMARK VINA RESULT:      -4.0      2.606      4.248
REMARK  1 active torsions:
REMARK  status: ('A' for Active; 'I' for Inactive)
REMARK    1  A    between atoms: C_1  and  C_5 
ROOT
HETATM    1  C   UNL     1      63.589   8.343   4.196  1.00  0.00     0.058 A 
HETATM    2  C   UNL     1      62.979   7.588   3.210  1.00  0.00     0.069 A 
HETATM    3  C   UNL     1      64.902   7.814   4.522  1.00  0.00    -0.002 A 
HETATM    4  S   UNL     1      63.926   6.280   2.682  1.00  0.00    -0.100 SA
HETATM    5  C   UNL     1      65.204   6.679   3.762  1.00  0.00     0.016 A 
HETATM    6  C   UNL     1      65.882   8.250   5.454  1.00  0.00     0.014 A 
HETATM    7  C   UNL     1      66.422   5.986   3.904  1.00  0.00     0.019 A 
HETATM    8  C   UNL     1      67.095   7.566   5.599  1.00  0.00     0.001 A 
HETATM    9  C   UNL     1      67.360   6.444   4.831  1.00  0.00     0.001 A 
ENDROOT
BRANCH   1  10
HETATM   10  C   UNL     1      62.958   9.508   4.798  1.00  0.00     0.210 C 
HETATM   11  O   UNL     1      62.493  10.468   4.200  1.00  0.00    -0.644 OA
HETATM   12  O   UNL     1      62.905   9.481   6.152  1.00  0.00    -0.644 OA
ENDBRANCH   1  10
TORSDOF 1
ENDMDL
