MODEL 1
REMARK VINA RESULT:      -3.7      0.000      0.000
REMARK  2 active torsions:
REMARK  status: ('A' for Active; 'I' for Inactive)
REMARK    1  A    between atoms: C_4  and  C_7 
REMARK    2  A    between atoms: C_7  and  N_9 
ROOT
HETATM    1  N   UNL     1      62.128  10.517   2.736  1.00  0.00    -0.299 N 
HETATM    2  N   UNL     1      62.213   9.414   1.964  1.00  0.00    -0.303 N 
ATOM      3  HN  UNL     1      61.997   9.326   0.971  1.00  0.00     0.186 HD
HETATM    4  C   UNL     1      62.489  10.298   4.040  1.00  0.00     0.055 A 
HETATM    5  C   UNL     1      62.828   8.959   4.103  1.00  0.00     0.054 A 
HETATM    6  C   UNL     1      62.646   8.461   2.796  1.00  0.00     0.024 A 
HETATM    7  C   UNL     1      61.700  11.749   2.112  1.00  0.00     0.177 C 
HETATM    8  C   UNL     1      62.872   7.083   2.299  1.00  0.00     0.070 C 
ENDROOT
BRANCH   4   9
HETATM    9  C   UNL     1      62.466  11.326   5.108  1.00  0.00     0.288 C 
BRANCH   9  10
HETATM   10  N   UNL     1      63.609  11.164   5.991  1.00  0.00    -0.074 N 
HETATM   11  H   UNL     1      64.161  10.361   5.689  1.00  0.00     0.274 HD
HETATM   12  H   UNL     1      63.283  11.013   6.946  1.00  0.00     0.274 HD
HETATM   13  H   UNL     1      64.186  12.004   5.958  1.00  0.00     0.274 HD
ENDBRANCH   9  10
ENDBRANCH   4   9
TORSDOF 2
ENDMDL
MODEL 2
REMARK VINA RESULT:      -3.5      1.773      2.567
REMARK  2 active torsions:
REMARK  status: ('A' for Active; 'I' for Inactive)
REMARK    1  A    between atoms: C_4  and  C_7 
REMARK    2  A    between atoms: C_7  and  N_9 
ROOT
HETATM    1  N   UNL     1      62.827   9.991   4.456  1.00  0.00    -0.299 N 
HETATM    2  N   UNL     1      62.028  10.246   3.399  1.00  0.00    -0.303 N 
ATOM      3  HN  UNL     1      61.429  11.058   3.247  1.00  0.00     0.186 HD
HETATM    4  C   UNL     1      63.502   8.802   4.354  1.00  0.00     0.055 A 
HETATM    5  C   UNL     1      63.105   8.262   3.145  1.00  0.00     0.054 A 
HETATM    6  C   UNL     1      62.200   9.193   2.594  1.00  0.00     0.024 A 
HETATM    7  C   UNL     1      62.882  10.973   5.515  1.00  0.00     0.177 C 
HETATM    8  C   UNL     1      61.477   9.115   1.302  1.00  0.00     0.070 C 
ENDROOT
BRANCH   4   9
HETATM    9  C   UNL     1      64.426   8.264   5.381  1.00  0.00     0.288 C 
BRANCH   9  10
HETATM   10  N   UNL     1      63.681   7.554   6.408  1.00  0.00    -0.074 N 
HETATM   11  H   UNL     1      64.193   6.715   6.681  1.00  0.00     0.274 HD
HETATM   12  H   UNL     1      62.766   7.291   6.044  1.00  0.00     0.274 HD
HETATM   13  H   UNL     1      63.563   8.158   7.221  1.00  0.00     0.274 HD
ENDBRANCH   9  10
ENDBRANCH   4   9
TORSDOF 2
ENDMDL
MODEL 3
REMARK VINA RESULT:      -3.5      1.643      3.040
REMARK  2 active torsions:
REMARK  status: ('A' for Active; 'I' for Inactive)
REMARK    1  A    between atoms: C_4  and  C_7 
REMARK    2  A    between atoms: C_7  and  N_9 
ROOT
HETATM    1  N   UNL     1      61.217   8.365   2.979  1.00  0.00    -0.299 N 
HETATM    2  N   UNL     1      61.057   9.416   2.146  1.00  0.00    -0.303 N 
ATOM      3  HN  UNL     1      60.526   9.449   1.275  1.00  0.00     0.186 HD
HETATM    4  C   UNL     1      61.999   8.649   4.068  1.00  0.00     0.055 A 
HETATM    5  C   UNL     1      62.363   9.975   3.919  1.00  0.00     0.054 A 
HETATM    6  C   UNL     1      61.753  10.402   2.721  1.00  0.00     0.024 A 
HETATM    7  C   UNL     1      60.555   7.126   2.640  1.00  0.00     0.177 C 
HETATM    8  C   UNL     1      61.809  11.741   2.089  1.00  0.00     0.070 C 
ENDROOT
BRANCH   4   9
HETATM    9  C   UNL     1      62.358   7.676   5.128  1.00  0.00     0.288 C 
BRANCH   9  10
HETATM   10  N   UNL     1      63.058   8.345   6.212  1.00  0.00    -0.074 N 
HETATM   11  H   UNL     1      63.934   7.858   6.404  1.00  0.00     0.274 HD
HETATM   12  H   UNL     1      62.474   8.338   7.049  1.00  0.00     0.274 HD
HETATM   13  H   UNL     1      63.257   9.309   5.945  1.00  0.00     0.274 HD
ENDBRANCH   9  10
ENDBRANCH   4   9
TORSDOF 2
ENDMDL
MODEL 4
REMARK VINA RESULT:      -3.4      5.415      6.556
REMARK  2 active torsions:
REMARK  status: ('A' for Active; 'I' for Inactive)
REMARK    1  A    between atoms: C_4  and  C_7 
REMARK    2  A    between atoms: C_7  and  N_9 
ROOT
HETATM    1  N   UNL     1      67.160   7.271   6.067  1.00  0.00    -0.299 N 
HETATM    2  N   UNL     1      68.048   6.789   6.961  1.00  0.00    -0.303 N 
ATOM      3  HN  UNL     1      69.062   6.722   6.863  1.00  0.00     0.186 HD
HETATM    4  C   UNL     1      65.862   7.216   6.505  1.00  0.00     0.055 A 
HETATM    5  C   UNL     1      65.929   6.657   7.768  1.00  0.00     0.054 A 
HETATM    6  C   UNL     1      67.299   6.417   8.003  1.00  0.00     0.024 A 
HETATM    7  C   UNL     1      67.669   7.784   4.815  1.00  0.00     0.177 C 
HETATM    8  C   UNL     1      67.935   5.834   9.208  1.00  0.00     0.070 C 
ENDROOT
BRANCH   4   9
HETATM    9  C   UNL     1      64.685   7.655   5.719  1.00  0.00     0.288 C 
BRANCH   9  10
HETATM   10  N   UNL     1      63.475   7.552   6.519  1.00  0.00    -0.074 N 
HETATM   11  H   UNL     1      63.163   8.485   6.786  1.00  0.00     0.274 HD
HETATM   12  H   UNL     1      63.668   7.004   7.358  1.00  0.00     0.274 HD
HETATM   13  H   UNL     1      62.745   7.093   5.975  1.00  0.00     0.274 HD
ENDBRANCH   9  10
ENDBRANCH   4   9
TORSDOF 2
ENDMDL
MODEL 5
REMARK VINA RESULT:      -3.4      1.930      3.274
REMARK  2 active torsions:
REMARK  status: ('A' for Active; 'I' for Inactive)
REMARK    1  A    between atoms: C_4  and  C_7 
REMARK    2  A    between atoms: C_7  and  N_9 
ROOT
HETATM    1  N   UNL     1      63.361   9.840   5.026  1.00  0.00    -0.299 N 
HETATM    2  N   UNL     1      64.418   9.230   5.603  1.00  0.00    -0.303 N 
ATOM      3  HN  UNL     1      64.952   9.537   6.416  1.00  0.00     0.186 HD
HETATM    4  C   UNL     1      62.870   9.165   3.939  1.00  0.00     0.055 A 
HETATM    5  C   UNL     1      63.672   8.046   3.813  1.00  0.00     0.054 A 
HETATM    6  C   UNL     1      64.607   8.131   4.866  1.00  0.00     0.024 A 
HETATM    7  C   UNL     1      62.885  11.070   5.616  1.00  0.00     0.177 C 
HETATM    8  C   UNL     1      65.698   7.185   5.203  1.00  0.00     0.070 C 
ENDROOT
BRANCH   4   9
HETATM    9  C   UNL     1      61.732   9.620   3.105  1.00  0.00     0.288 C 
BRANCH   9  10
HETATM   10  N   UNL     1      60.556   8.807   3.367  1.00  0.00    -0.074 N 
HETATM   11  H   UNL     1      59.723   9.394   3.338  1.00  0.00     0.274 HD
HETATM   12  H   UNL     1      60.638   8.377   4.289  1.00  0.00     0.274 HD
HETATM   13  H   UNL     1      60.482   8.077   2.658  1.00  0.00     0.274 HD
ENDBRANCH   9  10
ENDBRANCH   4   9
TORSDOF 2
ENDMDL
MODEL 6
REMARK VINA RESULT:      -3.3      2.460      3.685
REMARK  2 active torsions:
REMARK  status: ('A' for Active; 'I' for Inactive)
REMARK    1  A    between atoms: C_4  and  C_7 
REMARK    2  A    between atoms: C_7  and  N_9 
ROOT
HETATM    1  N   UNL     1      64.039   7.632   3.783  1.00  0.00    -0.299 N 
HETATM    2  N   UNL     1      63.080   8.319   3.127  1.00  0.00    -0.303 N 
ATOM      3  HN  UNL     1      62.639   8.084   2.237  1.00  0.00     0.186 HD
HETATM    4  C   UNL     1      64.422   8.222   4.960  1.00  0.00     0.055 A 
HETATM    5  C   UNL     1      63.652   9.366   5.060  1.00  0.00     0.054 A 
HETATM    6  C   UNL     1      62.838   9.377   3.908  1.00  0.00     0.024 A 
HETATM    7  C   UNL     1      64.511   6.399   3.196  1.00  0.00     0.177 C 
HETATM    8  C   UNL     1      61.819  10.377   3.513  1.00  0.00     0.070 C 
ENDROOT
BRANCH   4   9
HETATM    9  C   UNL     1      65.470   7.697   5.867  1.00  0.00     0.288 C 
BRANCH   9  10
HETATM   10  N   UNL     1      64.866   7.107   7.050  1.00  0.00    -0.074 N 
HETATM   11  H   UNL     1      65.555   6.530   7.532  1.00  0.00     0.274 HD
HETATM   12  H   UNL     1      64.071   6.530   6.775  1.00  0.00     0.274 HD
HETATM   13  H   UNL     1      64.548   7.848   7.675  1.00  0.00     0.274 HD
ENDBRANCH   9  10
ENDBRANCH   4   9
TORSDOF 2
ENDMDL
MODEL 7
REMARK VINA RESULT:      -3.2      1.610      2.493
REMARK  2 active torsions:
REMARK  status: ('A' for Active; 'I' for Inactive)
REMARK    1  A    between atoms: C_4  and  C_7 
REMARK    2  A    between atoms: C_7  and  N_9 
ROOT
HETATM    1  N   UNL     1      63.407   8.408   4.074  1.00  0.00    -0.299 N 
HETATM    2  N   UNL     1      63.180   8.122   2.774  1.00  0.00    -0.303 N 
ATOM      3  HN  UNL     1      63.540   7.335   2.233  1.00  0.00     0.186 HD
HETATM    4  C   UNL     1      62.775   9.547   4.499  1.00  0.00     0.055 A 
HETATM    5  C   UNL     1      62.097  10.022   3.391  1.00  0.00     0.054 A 
HETATM    6  C   UNL     1      62.376   9.105   2.356  1.00  0.00     0.024 A 
HETATM    7  C   UNL     1      64.240   7.501   4.830  1.00  0.00     0.177 C 
HETATM    8  C   UNL     1      61.896   9.130   0.954  1.00  0.00     0.070 C 
ENDROOT
BRANCH   4   9
HETATM    9  C   UNL     1      62.870  10.106   5.869  1.00  0.00     0.288 C 
BRANCH   9  10
HETATM   10  N   UNL     1      63.662  11.325   5.864  1.00  0.00    -0.074 N 
HETATM   11  H   UNL     1      63.262  11.988   5.199  1.00  0.00     0.274 HD
HETATM   12  H   UNL     1      64.621  11.106   5.592  1.00  0.00     0.274 HD
HETATM   13  H   UNL     1      63.659  11.736   6.797  1.00  0.00     0.274 HD
ENDBRANCH   9  10
ENDBRANCH   4   9
TORSDOF 2
ENDMDL
MODEL 8
REMARK VINA RESULT:      -3.2     12.574     13.442
REMARK  2 active torsions:
REMARK  status: ('A' for Active; 'I' for Inactive)
REMARK    1  A    between atoms: C_4  and  C_7 
REMARK    2  A    between atoms: C_7  and  N_9 
ROOT
HETATM    1  N   UNL     1      57.971   1.969  13.374  1.00  0.00    -0.299 N 
HETATM    2  N   UNL     1      58.790   2.415  12.398  1.00  0.00    -0.303 N 
ATOM      3  HN  UNL     1      59.810   2.433  12.396  1.00  0.00     0.186 HD
HETATM    4  C   UNL     1      56.641   2.088  13.065  1.00  0.00     0.055 A 
HETATM    5  C   UNL     1      56.610   2.651  11.802  1.00  0.00     0.054 A 
HETATM    6  C   UNL     1      57.960   2.828  11.434  1.00  0.00     0.024 A 
HETATM    7  C   UNL     1      58.575   1.425  14.569  1.00  0.00     0.177 C 
HETATM    8  C   UNL     1      58.502   3.388  10.174  1.00  0.00     0.070 C 
ENDROOT
BRANCH   4   9
HETATM    9  C   UNL     1      55.526   1.699  13.962  1.00  0.00     0.288 C 
BRANCH   9  10
HETATM   10  N   UNL     1      55.089   2.841  14.749  1.00  0.00    -0.074 N 
HETATM   11  H   UNL     1      55.783   3.045  15.467  1.00  0.00     0.274 HD
HETATM   12  H   UNL     1      54.194   2.627  15.190  1.00  0.00     0.274 HD
HETATM   13  H   UNL     1      54.982   3.652  14.140  1.00  0.00     0.274 HD
ENDBRANCH   9  10
ENDBRANCH   4   9
TORSDOF 2
ENDMDL
MODEL 9
REMARK VINA RESULT:      -3.2      1.657      3.966
REMARK  2 active torsions:
REMARK  status: ('A' for Active; 'I' for Inactive)
REMARK    1  A    between atoms: C_4  and  C_7 
REMARK    2  A    between atoms: C_7  and  N_9 
ROOT
HETATM    1  N   UNL     1      62.487   8.983   3.814  1.00  0.00    -0.299 N 
HETATM    2  N   UNL     1      62.197  10.300   3.753  1.00  0.00    -0.303 N 
ATOM      3  HN  UNL     1      62.145  10.966   4.525  1.00  0.00     0.186 HD
HETATM    4  C   UNL     1      62.470   8.365   2.590  1.00  0.00     0.055 A 
HETATM    5  C   UNL     1      62.145   9.360   1.686  1.00  0.00     0.054 A 
HETATM    6  C   UNL     1      61.992  10.533   2.453  1.00  0.00     0.024 A 
HETATM    7  C   UNL     1      62.786   8.414   5.108  1.00  0.00     0.177 C 
HETATM    8  C   UNL     1      61.650  11.897   1.985  1.00  0.00     0.070 C 
ENDROOT
BRANCH   4   9
HETATM    9  C   UNL     1      62.728   6.923   2.368  1.00  0.00     0.288 C 
BRANCH   9  10
HETATM   10  N   UNL     1      61.477   6.213   2.153  1.00  0.00    -0.074 N 
HETATM   11  H   UNL     1      61.115   5.882   3.048  1.00  0.00     0.274 HD
HETATM   12  H   UNL     1      61.639   5.417   1.536  1.00  0.00     0.274 HD
HETATM   13  H   UNL     1      60.798   6.842   1.724  1.00  0.00     0.274 HD
ENDBRANCH   9  10
ENDBRANCH   4   9
TORSDOF 2
ENDMDL
