MODEL 1
REMARK VINA RESULT:      -4.8      0.000      0.000
REMARK  3 active torsions:
REMARK  status: ('A' for Active; 'I' for Inactive)
REMARK    1  A    between atoms: C_1  and  C_3 
REMARK    2  A    between atoms: N_11  and  C_13 
REMARK    3  A    between atoms: C_12  and  C_13 
ROOT
HETATM    1  C   UNL     1      64.802   7.389   4.740  1.00  0.00    -0.019 A 
HETATM    2  C   UNL     1      64.322   6.815   3.553  1.00  0.00     0.013 A 
HETATM    3  C   UNL     1      64.243   8.608   5.149  1.00  0.00     0.013 A 
HETATM    4  C   UNL     1      63.333   7.448   2.789  1.00  0.00     0.010 A 
HETATM    5  C   UNL     1      63.252   9.240   4.391  1.00  0.00     0.010 A 
HETATM    6  C   UNL     1      62.793   8.674   3.195  1.00  0.00    -0.033 A 
ENDROOT
BRANCH   1   7
HETATM    7  C   UNL     1      65.849   6.707   5.524  1.00  0.00     0.015 A 
HETATM    8  S   UNL     1      65.883   6.825   7.243  1.00  0.00    -0.101 SA
HETATM    9  C   UNL     1      67.270   5.838   7.364  1.00  0.00     0.050 A 
HETATM   10  C   UNL     1      67.728   5.440   6.130  1.00  0.00     0.008 A 
HETATM   11  C   UNL     1      66.914   5.944   5.074  1.00  0.00     0.020 A 
ENDBRANCH   1   7
BRANCH   6  12
HETATM   12  C   UNL     1      61.737   9.368   2.366  1.00  0.00     0.270 C 
BRANCH  12  13
HETATM   13  N   UNL     1      61.395  10.676   2.926  1.00  0.00    -0.075 N 
HETATM   14  C   UNL     1      61.776  11.751   2.022  1.00  0.00     0.267 C 
HETATM   15  H   UNL     1      61.885  10.798   3.813  1.00  0.00     0.277 HD
HETATM   16  H   UNL     1      60.385  10.715   3.065  1.00  0.00     0.277 HD
ENDBRANCH  12  13
ENDBRANCH   6  12
TORSDOF 3
ENDMDL
MODEL 2
REMARK VINA RESULT:      -4.7      0.876      1.715
REMARK  3 active torsions:
REMARK  status: ('A' for Active; 'I' for Inactive)
REMARK    1  A    between atoms: C_1  and  C_3 
REMARK    2  A    between atoms: N_11  and  C_13 
REMARK    3  A    between atoms: C_12  and  C_13 
ROOT
HETATM    1  C   UNL     1      64.853   7.503   4.997  1.00  0.00    -0.019 A 
HETATM    2  C   UNL     1      64.268   8.733   5.333  1.00  0.00     0.013 A 
HETATM    3  C   UNL     1      64.442   6.887   3.806  1.00  0.00     0.013 A 
HETATM    4  C   UNL     1      63.289   9.318   4.519  1.00  0.00     0.010 A 
HETATM    5  C   UNL     1      63.468   7.471   2.988  1.00  0.00     0.010 A 
HETATM    6  C   UNL     1      62.871   8.688   3.341  1.00  0.00    -0.033 A 
ENDROOT
BRANCH   1   7
HETATM    7  C   UNL     1      65.877   6.903   5.873  1.00  0.00     0.015 A 
HETATM    8  S   UNL     1      67.185   5.998   5.211  1.00  0.00    -0.101 SA
HETATM    9  C   UNL     1      67.855   5.688   6.750  1.00  0.00     0.050 A 
HETATM   10  C   UNL     1      67.097   6.232   7.760  1.00  0.00     0.008 A 
HETATM   11  C   UNL     1      65.959   6.926   7.256  1.00  0.00     0.020 A 
ENDBRANCH   1   7
BRANCH   6  12
HETATM   12  C   UNL     1      61.804   9.308   2.469  1.00  0.00     0.270 C 
BRANCH  12  13
HETATM   13  N   UNL     1      61.431  10.640   2.948  1.00  0.00    -0.075 N 
HETATM   14  C   UNL     1      61.769  11.665   1.972  1.00  0.00     0.267 C 
HETATM   15  H   UNL     1      61.929  10.832   3.818  1.00  0.00     0.277 HD
HETATM   16  H   UNL     1      60.423  10.658   3.100  1.00  0.00     0.277 HD
ENDBRANCH  12  13
ENDBRANCH   6  12
TORSDOF 3
ENDMDL
MODEL 3
REMARK VINA RESULT:      -4.7      3.267      6.284
REMARK  3 active torsions:
REMARK  status: ('A' for Active; 'I' for Inactive)
REMARK    1  A    between atoms: C_1  and  C_3 
REMARK    2  A    between atoms: N_11  and  C_13 
REMARK    3  A    between atoms: C_12  and  C_13 
ROOT
HETATM    1  C   UNL     1      63.982   8.259   5.316  1.00  0.00    -0.019 A 
HETATM    2  C   UNL     1      65.382   8.262   5.218  1.00  0.00     0.013 A 
HETATM    3  C   UNL     1      63.381   7.225   6.048  1.00  0.00     0.013 A 
HETATM    4  C   UNL     1      66.153   7.254   5.810  1.00  0.00     0.010 A 
HETATM    5  C   UNL     1      64.148   6.220   6.645  1.00  0.00     0.010 A 
HETATM    6  C   UNL     1      65.544   6.215   6.523  1.00  0.00    -0.033 A 
ENDROOT
BRANCH   1   7
HETATM    7  C   UNL     1      63.190   9.328   4.679  1.00  0.00     0.015 A 
HETATM    8  S   UNL     1      62.513   9.109   3.110  1.00  0.00    -0.101 SA
HETATM    9  C   UNL     1      61.810  10.665   3.108  1.00  0.00     0.050 A 
HETATM   10  C   UNL     1      62.097  11.360   4.259  1.00  0.00     0.008 A 
HETATM   11  C   UNL     1      62.894  10.594   5.158  1.00  0.00     0.020 A 
ENDBRANCH   1   7
BRANCH   6  12
HETATM   12  C   UNL     1      66.372   5.117   7.151  1.00  0.00     0.270 C 
BRANCH  12  13
HETATM   13  N   UNL     1      66.223   5.105   8.607  1.00  0.00    -0.075 N 
HETATM   14  C   UNL     1      66.892   6.245   9.214  1.00  0.00     0.267 C 
HETATM   15  H   UNL     1      66.629   4.245   8.976  1.00  0.00     0.277 HD
HETATM   16  H   UNL     1      65.229   5.157   8.831  1.00  0.00     0.277 HD
ENDBRANCH  12  13
ENDBRANCH   6  12
TORSDOF 3
ENDMDL
MODEL 4
REMARK VINA RESULT:      -4.6      1.712      2.231
REMARK  3 active torsions:
REMARK  status: ('A' for Active; 'I' for Inactive)
REMARK    1  A    between atoms: C_1  and  C_3 
REMARK    2  A    between atoms: N_11  and  C_13 
REMARK    3  A    between atoms: C_12  and  C_13 
ROOT
HETATM    1  C   UNL     1      65.159   7.020   6.582  1.00  0.00    -0.019 A 
HETATM    2  C   UNL     1      63.819   6.604   6.541  1.00  0.00     0.013 A 
HETATM    3  C   UNL     1      65.530   8.108   5.779  1.00  0.00     0.013 A 
HETATM    4  C   UNL     1      62.887   7.237   5.710  1.00  0.00     0.010 A 
HETATM    5  C   UNL     1      64.600   8.747   4.952  1.00  0.00     0.010 A 
HETATM    6  C   UNL     1      63.270   8.311   4.898  1.00  0.00    -0.033 A 
ENDROOT
BRANCH   1   7
HETATM    7  C   UNL     1      66.124   6.333   7.460  1.00  0.00     0.015 A 
HETATM    8  S   UNL     1      66.337   4.626   7.375  1.00  0.00    -0.101 SA
HETATM    9  C   UNL     1      67.526   4.631   8.600  1.00  0.00     0.050 A 
HETATM   10  C   UNL     1      67.750   5.894   9.094  1.00  0.00     0.008 A 
HETATM   11  C   UNL     1      66.941   6.870   8.442  1.00  0.00     0.020 A 
ENDBRANCH   1   7
BRANCH   6  12
HETATM   12  C   UNL     1      62.271   8.988   3.988  1.00  0.00     0.270 C 
BRANCH  12  13
HETATM   13  N   UNL     1      62.255  10.436   4.199  1.00  0.00    -0.075 N 
HETATM   14  C   UNL     1      61.865  11.141   2.986  1.00  0.00     0.267 C 
HETATM   15  H   UNL     1      63.187  10.743   4.477  1.00  0.00     0.277 HD
HETATM   16  H   UNL     1      61.574  10.650   4.928  1.00  0.00     0.277 HD
ENDBRANCH  12  13
ENDBRANCH   6  12
TORSDOF 3
ENDMDL
MODEL 5
REMARK VINA RESULT:      -4.6      1.619      2.025
REMARK  3 active torsions:
REMARK  status: ('A' for Active; 'I' for Inactive)
REMARK    1  A    between atoms: C_1  and  C_3 
REMARK    2  A    between atoms: N_11  and  C_13 
REMARK    3  A    between atoms: C_12  and  C_13 
ROOT
HETATM    1  C   UNL     1      64.048   7.937   4.651  1.00  0.00    -0.019 A 
HETATM    2  C   UNL     1      63.903   7.139   3.506  1.00  0.00     0.013 A 
HETATM    3  C   UNL     1      63.341   9.147   4.698  1.00  0.00     0.013 A 
HETATM    4  C   UNL     1      63.099   7.547   2.434  1.00  0.00     0.010 A 
HETATM    5  C   UNL     1      62.533   9.555   3.632  1.00  0.00     0.010 A 
HETATM    6  C   UNL     1      62.412   8.765   2.481  1.00  0.00    -0.033 A 
ENDROOT
BRANCH   1   7
HETATM    7  C   UNL     1      64.906   7.490   5.765  1.00  0.00     0.015 A 
HETATM    8  S   UNL     1      66.530   8.045   5.907  1.00  0.00    -0.101 SA
HETATM    9  C   UNL     1      66.799   7.146   7.333  1.00  0.00     0.050 A 
HETATM   10  C   UNL     1      65.694   6.411   7.693  1.00  0.00     0.008 A 
HETATM   11  C   UNL     1      64.609   6.605   6.789  1.00  0.00     0.020 A 
ENDBRANCH   1   7
BRANCH   6  12
HETATM   12  C   UNL     1      61.555   9.216   1.320  1.00  0.00     0.270 C 
BRANCH  12  13
HETATM   13  N   UNL     1      60.161   8.807   1.497  1.00  0.00    -0.075 N 
HETATM   14  C   UNL     1      59.721   7.952   0.405  1.00  0.00     0.267 C 
HETATM   15  H   UNL     1      59.571   9.639   1.527  1.00  0.00     0.277 HD
HETATM   16  H   UNL     1      60.086   8.282   2.369  1.00  0.00     0.277 HD
ENDBRANCH  12  13
ENDBRANCH   6  12
TORSDOF 3
ENDMDL
MODEL 6
REMARK VINA RESULT:      -4.5      3.121      6.148
REMARK  3 active torsions:
REMARK  status: ('A' for Active; 'I' for Inactive)
REMARK    1  A    between atoms: C_1  and  C_3 
REMARK    2  A    between atoms: N_11  and  C_13 
REMARK    3  A    between atoms: C_12  and  C_13 
ROOT
HETATM    1  C   UNL     1      63.753   7.942   4.535  1.00  0.00    -0.019 A 
HETATM    2  C   UNL     1      65.009   8.472   4.869  1.00  0.00     0.013 A 
HETATM    3  C   UNL     1      63.228   6.936   5.360  1.00  0.00     0.013 A 
HETATM    4  C   UNL     1      65.726   7.998   5.975  1.00  0.00     0.010 A 
HETATM    5  C   UNL     1      63.939   6.465   6.469  1.00  0.00     0.010 A 
HETATM    6  C   UNL     1      65.203   6.982   6.783  1.00  0.00    -0.033 A 
ENDROOT
BRANCH   1   7
HETATM    7  C   UNL     1      63.019   8.451   3.362  1.00  0.00     0.015 A 
HETATM    8  S   UNL     1      62.166   9.945   3.433  1.00  0.00    -0.101 SA
HETATM    9  C   UNL     1      61.647   9.821   1.812  1.00  0.00     0.050 A 
HETATM   10  C   UNL     1      62.084   8.659   1.220  1.00  0.00     0.008 A 
HETATM   11  C   UNL     1      62.867   7.870   2.113  1.00  0.00     0.020 A 
ENDBRANCH   1   7
BRANCH   6  12
HETATM   12  C   UNL     1      65.980   6.458   7.969  1.00  0.00     0.270 C 
BRANCH  12  13
HETATM   13  N   UNL     1      67.419   6.662   7.794  1.00  0.00    -0.075 N 
HETATM   14  C   UNL     1      68.071   5.447   7.330  1.00  0.00     0.267 C 
HETATM   15  H   UNL     1      67.827   6.938   8.688  1.00  0.00     0.277 HD
HETATM   16  H   UNL     1      67.559   7.391   7.095  1.00  0.00     0.277 HD
ENDBRANCH  12  13
ENDBRANCH   6  12
TORSDOF 3
ENDMDL
MODEL 7
REMARK VINA RESULT:      -4.5      2.994      6.102
REMARK  3 active torsions:
REMARK  status: ('A' for Active; 'I' for Inactive)
REMARK    1  A    between atoms: C_1  and  C_3 
REMARK    2  A    between atoms: N_11  and  C_13 
REMARK    3  A    between atoms: C_12  and  C_13 
ROOT
HETATM    1  C   UNL     1      63.606   7.748   3.432  1.00  0.00    -0.019 A 
HETATM    2  C   UNL     1      63.889   8.664   4.456  1.00  0.00     0.013 A 
HETATM    3  C   UNL     1      64.503   6.687   3.237  1.00  0.00     0.013 A 
HETATM    4  C   UNL     1      65.040   8.539   5.244  1.00  0.00     0.010 A 
HETATM    5  C   UNL     1      65.650   6.556   4.026  1.00  0.00     0.010 A 
HETATM    6  C   UNL     1      65.939   7.487   5.032  1.00  0.00    -0.033 A 
ENDROOT
BRANCH   1   7
HETATM    7  C   UNL     1      62.391   7.904   2.610  1.00  0.00     0.015 A 
HETATM    8  S   UNL     1      60.937   7.074   3.015  1.00  0.00    -0.101 SA
HETATM    9  C   UNL     1      60.091   7.741   1.691  1.00  0.00     0.050 A 
HETATM   10  C   UNL     1      60.891   8.560   0.930  1.00  0.00     0.008 A 
HETATM   11  C   UNL     1      62.213   8.649   1.455  1.00  0.00     0.020 A 
ENDBRANCH   1   7
BRANCH   6  12
HETATM   12  C   UNL     1      67.190   7.357   5.870  1.00  0.00     0.270 C 
BRANCH  12  13
HETATM   13  N   UNL     1      67.003   7.940   7.199  1.00  0.00    -0.075 N 
HETATM   14  C   UNL     1      66.834   6.906   8.209  1.00  0.00     0.267 C 
HETATM   15  H   UNL     1      66.173   8.534   7.189  1.00  0.00     0.277 HD
HETATM   16  H   UNL     1      67.833   8.486   7.433  1.00  0.00     0.277 HD
ENDBRANCH  12  13
ENDBRANCH   6  12
TORSDOF 3
ENDMDL
MODEL 8
REMARK VINA RESULT:      -3.9      3.903      6.648
REMARK  3 active torsions:
REMARK  status: ('A' for Active; 'I' for Inactive)
REMARK    1  A    between atoms: C_1  and  C_3 
REMARK    2  A    between atoms: N_11  and  C_13 
REMARK    3  A    between atoms: C_12  and  C_13 
ROOT
HETATM    1  C   UNL     1      60.744   7.799   3.651  1.00  0.00    -0.019 A 
HETATM    2  C   UNL     1      61.397   6.920   4.529  1.00  0.00     0.013 A 
HETATM    3  C   UNL     1      61.440   8.943   3.234  1.00  0.00     0.013 A 
HETATM    4  C   UNL     1      62.691   7.186   4.993  1.00  0.00     0.010 A 
HETATM    5  C   UNL     1      62.735   9.209   3.692  1.00  0.00     0.010 A 
HETATM    6  C   UNL     1      63.372   8.340   4.587  1.00  0.00    -0.033 A 
ENDROOT
BRANCH   1   7
HETATM    7  C   UNL     1      59.378   7.502   3.181  1.00  0.00     0.015 A 
HETATM    8  S   UNL     1      59.051   7.272   1.505  1.00  0.00    -0.101 SA
HETATM    9  C   UNL     1      57.390   6.991   1.785  1.00  0.00     0.050 A 
HETATM   10  C   UNL     1      57.069   7.092   3.118  1.00  0.00     0.008 A 
HETATM   11  C   UNL     1      58.210   7.391   3.918  1.00  0.00     0.020 A 
ENDBRANCH   1   7
BRANCH   6  12
HETATM   12  C   UNL     1      64.763   8.638   5.097  1.00  0.00     0.270 C 
BRANCH  12  13
HETATM   13  N   UNL     1      65.025   7.948   6.362  1.00  0.00    -0.075 N 
HETATM   14  C   UNL     1      66.292   7.234   6.319  1.00  0.00     0.267 C 
HETATM   15  H   UNL     1      64.273   7.282   6.540  1.00  0.00     0.277 HD
HETATM   16  H   UNL     1      65.072   8.644   7.106  1.00  0.00     0.277 HD
ENDBRANCH  12  13
ENDBRANCH   6  12
TORSDOF 3
ENDMDL
MODEL 9
REMARK VINA RESULT:      -3.9      3.384      6.127
REMARK  3 active torsions:
REMARK  status: ('A' for Active; 'I' for Inactive)
REMARK    1  A    between atoms: C_1  and  C_3 
REMARK    2  A    between atoms: N_11  and  C_13 
REMARK    3  A    between atoms: C_12  and  C_13 
ROOT
HETATM    1  C   UNL     1      62.797   7.379   5.029  1.00  0.00    -0.019 A 
HETATM    2  C   UNL     1      63.248   6.638   6.132  1.00  0.00     0.013 A 
HETATM    3  C   UNL     1      63.709   8.243   4.405  1.00  0.00     0.013 A 
HETATM    4  C   UNL     1      64.557   6.773   6.610  1.00  0.00     0.010 A 
HETATM    5  C   UNL     1      65.019   8.376   4.877  1.00  0.00     0.010 A 
HETATM    6  C   UNL     1      65.456   7.651   5.993  1.00  0.00    -0.033 A 
ENDROOT
BRANCH   1   7
HETATM    7  C   UNL     1      61.411   7.226   4.547  1.00  0.00     0.015 A 
HETATM    8  S   UNL     1      60.376   6.015   5.203  1.00  0.00    -0.101 SA
HETATM    9  C   UNL     1      59.072   6.472   4.201  1.00  0.00     0.050 A 
HETATM   10  C   UNL     1      59.408   7.506   3.359  1.00  0.00     0.008 A 
HETATM   11  C   UNL     1      60.753   7.934   3.555  1.00  0.00     0.020 A 
ENDBRANCH   1   7
BRANCH   6  12
HETATM   12  C   UNL     1      66.865   7.810   6.516  1.00  0.00     0.270 C 
BRANCH  12  13
HETATM   13  N   UNL     1      67.029   7.153   7.813  1.00  0.00    -0.075 N 
HETATM   14  C   UNL     1      67.903   5.994   7.709  1.00  0.00     0.267 C 
HETATM   15  H   UNL     1      66.115   6.851   8.152  1.00  0.00     0.277 HD
HETATM   16  H   UNL     1      67.451   7.818   8.462  1.00  0.00     0.277 HD
ENDBRANCH  12  13
ENDBRANCH   6  12
TORSDOF 3
ENDMDL
