MODEL 1
REMARK VINA RESULT:      -4.3      0.000      0.000
REMARK  2 active torsions:
REMARK  status: ('A' for Active; 'I' for Inactive)
REMARK    1  A    between atoms: C_6  and  C_8 
REMARK    2  A    between atoms: C_8  and  O_10 
ROOT
HETATM    1  N   UNL     1      63.405   9.165   4.629  1.00  0.00    -0.301 N 
ATOM      2  HN  UNL     1      64.022   8.730   5.315  1.00  0.00     0.187 HD
HETATM    3  N   UNL     1      63.022   8.680   3.429  1.00  0.00    -0.301 N 
HETATM    4  C   UNL     1      62.201   9.528   2.729  1.00  0.00     0.026 A 
HETATM    5  C   UNL     1      62.026  10.620   3.547  1.00  0.00     0.055 A 
HETATM    6  C   UNL     1      62.783  10.356   4.708  1.00  0.00     0.051 A 
HETATM    7  C   UNL     1      63.474   7.370   3.015  1.00  0.00     0.177 C 
HETATM    8  C   UNL     1      61.658   9.257   1.375  1.00  0.00     0.070 C 
ENDROOT
BRANCH   6   9
HETATM    9  C   UNL     1      62.940  11.238   5.903  1.00  0.00     0.222 C 
BRANCH   9  10
HETATM   10  O   UNL     1      64.306  11.429   6.266  1.00  0.00    -0.395 OA
HETATM   11  H   UNL     1      64.355  11.983   7.060  1.00  0.00     0.209 HD
ENDBRANCH   9  10
ENDBRANCH   6   9
TORSDOF 2
ENDMDL
MODEL 2
REMARK VINA RESULT:      -4.1      1.156      2.149
REMARK  2 active torsions:
REMARK  status: ('A' for Active; 'I' for Inactive)
REMARK    1  A    between atoms: C_6  and  C_8 
REMARK    2  A    between atoms: C_8  and  O_10 
ROOT
HETATM    1  N   UNL     1      62.501   9.874   3.886  1.00  0.00    -0.301 N 
ATOM      2  HN  UNL     1      61.775  10.510   3.557  1.00  0.00     0.187 HD
HETATM    3  N   UNL     1      62.926   8.729   3.312  1.00  0.00    -0.301 N 
HETATM    4  C   UNL     1      63.907   8.087   4.025  1.00  0.00     0.026 A 
HETATM    5  C   UNL     1      64.145   8.890   5.117  1.00  0.00     0.055 A 
HETATM    6  C   UNL     1      63.259   9.981   4.993  1.00  0.00     0.051 A 
HETATM    7  C   UNL     1      62.349   8.307   2.054  1.00  0.00     0.177 C 
HETATM    8  C   UNL     1      64.530   6.797   3.640  1.00  0.00     0.070 C 
ENDROOT
BRANCH   6   9
HETATM    9  C   UNL     1      63.109  11.133   5.931  1.00  0.00     0.222 C 
BRANCH   9  10
HETATM   10  O   UNL     1      64.358  11.572   6.461  1.00  0.00    -0.395 OA
HETATM   11  H   UNL     1      65.052  11.452   5.795  1.00  0.00     0.209 HD
ENDBRANCH   9  10
ENDBRANCH   6   9
TORSDOF 2
ENDMDL
MODEL 3
REMARK VINA RESULT:      -4.0      1.510      1.872
REMARK  2 active torsions:
REMARK  status: ('A' for Active; 'I' for Inactive)
REMARK    1  A    between atoms: C_6  and  C_8 
REMARK    2  A    between atoms: C_8  and  O_10 
ROOT
HETATM    1  N   UNL     1      63.131   8.730   6.095  1.00  0.00    -0.301 N 
ATOM      2  HN  UNL     1      63.254   8.727   7.108  1.00  0.00     0.187 HD
HETATM    3  N   UNL     1      63.034   7.671   5.265  1.00  0.00    -0.301 N 
HETATM    4  C   UNL     1      62.900   8.016   3.944  1.00  0.00     0.026 A 
HETATM    5  C   UNL     1      62.883   9.392   3.930  1.00  0.00     0.055 A 
HETATM    6  C   UNL     1      63.026   9.793   5.275  1.00  0.00     0.051 A 
HETATM    7  C   UNL     1      63.066   6.333   5.815  1.00  0.00     0.177 C 
HETATM    8  C   UNL     1      62.803   7.053   2.821  1.00  0.00     0.070 C 
ENDROOT
BRANCH   6   9
HETATM    9  C   UNL     1      63.081  11.189   5.799  1.00  0.00     0.222 C 
BRANCH   9  10
HETATM   10  O   UNL     1      64.329  11.491   6.421  1.00  0.00    -0.395 OA
HETATM   11  H   UNL     1      64.168  11.888   7.292  1.00  0.00     0.209 HD
ENDBRANCH   9  10
ENDBRANCH   6   9
TORSDOF 2
ENDMDL
MODEL 4
REMARK VINA RESULT:      -3.7      2.206      2.987
REMARK  2 active torsions:
REMARK  status: ('A' for Active; 'I' for Inactive)
REMARK    1  A    between atoms: C_6  and  C_8 
REMARK    2  A    between atoms: C_8  and  O_10 
ROOT
HETATM    1  N   UNL     1      64.199   9.438   5.526  1.00  0.00    -0.301 N 
ATOM      2  HN  UNL     1      64.439  10.073   6.288  1.00  0.00     0.187 HD
HETATM    3  N   UNL     1      64.778   8.262   5.210  1.00  0.00    -0.301 N 
HETATM    4  C   UNL     1      64.234   7.659   4.103  1.00  0.00     0.026 A 
HETATM    5  C   UNL     1      63.219   8.496   3.699  1.00  0.00     0.055 A 
HETATM    6  C   UNL     1      63.229   9.579   4.603  1.00  0.00     0.051 A 
HETATM    7  C   UNL     1      65.857   7.757   6.031  1.00  0.00     0.177 C 
HETATM    8  C   UNL     1      64.698   6.377   3.521  1.00  0.00     0.070 C 
ENDROOT
BRANCH   6   9
HETATM    9  C   UNL     1      62.330  10.771   4.593  1.00  0.00     0.222 C 
BRANCH   9  10
HETATM   10  O   UNL     1      61.222  10.612   3.710  1.00  0.00    -0.395 OA
HETATM   11  H   UNL     1      61.488  10.070   2.951  1.00  0.00     0.209 HD
ENDBRANCH   9  10
ENDBRANCH   6   9
TORSDOF 2
ENDMDL
MODEL 5
REMARK VINA RESULT:      -3.7      2.109      2.901
REMARK  2 active torsions:
REMARK  status: ('A' for Active; 'I' for Inactive)
REMARK    1  A    between atoms: C_6  and  C_8 
REMARK    2  A    between atoms: C_8  and  O_10 
ROOT
HETATM    1  N   UNL     1      64.058   9.425   5.431  1.00  0.00    -0.301 N 
ATOM      2  HN  UNL     1      64.198  10.070   6.208  1.00  0.00     0.187 HD
HETATM    3  N   UNL     1      63.145   9.502   4.440  1.00  0.00    -0.301 N 
HETATM    4  C   UNL     1      63.202   8.453   3.556  1.00  0.00     0.026 A 
HETATM    5  C   UNL     1      64.240   7.664   3.997  1.00  0.00     0.055 A 
HETATM    6  C   UNL     1      64.741   8.299   5.153  1.00  0.00     0.051 A 
HETATM    7  C   UNL     1      62.242  10.631   4.391  1.00  0.00     0.177 C 
HETATM    8  C   UNL     1      62.298   8.272   2.395  1.00  0.00     0.070 C 
ENDROOT
BRANCH   6   9
HETATM    9  C   UNL     1      65.866   7.838   6.019  1.00  0.00     0.222 C 
BRANCH   9  10
HETATM   10  O   UNL     1      66.490   8.910   6.723  1.00  0.00    -0.395 OA
HETATM   11  H   UNL     1      66.411   9.726   6.205  1.00  0.00     0.209 HD
ENDBRANCH   9  10
ENDBRANCH   6   9
TORSDOF 2
ENDMDL
MODEL 6
REMARK VINA RESULT:      -3.6      1.938      2.692
REMARK  2 active torsions:
REMARK  status: ('A' for Active; 'I' for Inactive)
REMARK    1  A    between atoms: C_6  and  C_8 
REMARK    2  A    between atoms: C_8  and  O_10 
ROOT
HETATM    1  N   UNL     1      62.661   9.576   4.726  1.00  0.00    -0.301 N 
ATOM      2  HN  UNL     1      62.610  10.148   5.569  1.00  0.00     0.187 HD
HETATM    3  N   UNL     1      62.325   9.921   3.465  1.00  0.00    -0.301 N 
HETATM    4  C   UNL     1      62.488   8.907   2.555  1.00  0.00     0.026 A 
HETATM    5  C   UNL     1      62.986   7.848   3.278  1.00  0.00     0.055 A 
HETATM    6  C   UNL     1      63.080   8.302   4.611  1.00  0.00     0.051 A 
HETATM    7  C   UNL     1      61.861  11.264   3.195  1.00  0.00     0.177 C 
HETATM    8  C   UNL     1      62.167   9.004   1.110  1.00  0.00     0.070 C 
ENDROOT
BRANCH   6   9
HETATM    9  C   UNL     1      63.553   7.528   5.797  1.00  0.00     0.222 C 
BRANCH   9  10
HETATM   10  O   UNL     1      62.732   7.732   6.945  1.00  0.00    -0.395 OA
HETATM   11  H   UNL     1      63.209   7.442   7.739  1.00  0.00     0.209 HD
ENDBRANCH   9  10
ENDBRANCH   6   9
TORSDOF 2
ENDMDL
MODEL 7
REMARK VINA RESULT:      -3.6      1.893      2.478
REMARK  2 active torsions:
REMARK  status: ('A' for Active; 'I' for Inactive)
REMARK    1  A    between atoms: C_6  and  C_8 
REMARK    2  A    between atoms: C_8  and  O_10 
ROOT
HETATM    1  N   UNL     1      62.183   7.886   3.542  1.00  0.00    -0.301 N 
ATOM      2  HN  UNL     1      62.115   6.888   3.346  1.00  0.00     0.187 HD
HETATM    3  N   UNL     1      61.820   8.916   2.749  1.00  0.00    -0.301 N 
HETATM    4  C   UNL     1      62.068  10.149   3.298  1.00  0.00     0.026 A 
HETATM    5  C   UNL     1      62.603   9.890   4.540  1.00  0.00     0.055 A 
HETATM    6  C   UNL     1      62.655   8.485   4.651  1.00  0.00     0.051 A 
HETATM    7  C   UNL     1      61.220   8.644   1.461  1.00  0.00     0.177 C 
HETATM    8  C   UNL     1      61.795  11.446   2.633  1.00  0.00     0.070 C 
ENDROOT
BRANCH   6   9
HETATM    9  C   UNL     1      63.168   7.690   5.806  1.00  0.00     0.222 C 
BRANCH   9  10
HETATM   10  O   UNL     1      62.584   8.086   7.045  1.00  0.00    -0.395 OA
HETATM   11  H   UNL     1      62.634   9.051   7.132  1.00  0.00     0.209 HD
ENDBRANCH   9  10
ENDBRANCH   6   9
TORSDOF 2
ENDMDL
MODEL 8
REMARK VINA RESULT:      -3.4      2.015      2.652
REMARK  2 active torsions:
REMARK  status: ('A' for Active; 'I' for Inactive)
REMARK    1  A    between atoms: C_6  and  C_8 
REMARK    2  A    between atoms: C_8  and  O_10 
ROOT
HETATM    1  N   UNL     1      63.616   7.673   3.564  1.00  0.00    -0.301 N 
ATOM      2  HN  UNL     1      63.925   6.789   3.159  1.00  0.00     0.187 HD
HETATM    3  N   UNL     1      62.862   8.633   2.990  1.00  0.00    -0.301 N 
HETATM    4  C   UNL     1      62.644   9.720   3.799  1.00  0.00     0.026 A 
HETATM    5  C   UNL     1      63.282   9.424   4.982  1.00  0.00     0.055 A 
HETATM    6  C   UNL     1      63.866   8.154   4.797  1.00  0.00     0.051 A 
HETATM    7  C   UNL     1      62.362   8.436   1.647  1.00  0.00     0.177 C 
HETATM    8  C   UNL     1      61.875  10.928   3.410  1.00  0.00     0.070 C 
ENDROOT
BRANCH   6   9
HETATM    9  C   UNL     1      64.684   7.385   5.781  1.00  0.00     0.222 C 
BRANCH   9  10
HETATM   10  O   UNL     1      64.041   7.260   7.048  1.00  0.00    -0.395 OA
HETATM   11  H   UNL     1      64.614   7.627   7.739  1.00  0.00     0.209 HD
ENDBRANCH   9  10
ENDBRANCH   6   9
TORSDOF 2
ENDMDL
MODEL 9
REMARK VINA RESULT:      -3.4     11.969     12.422
REMARK  2 active torsions:
REMARK  status: ('A' for Active; 'I' for Inactive)
REMARK    1  A    between atoms: C_6  and  C_8 
REMARK    2  A    between atoms: C_8  and  O_10 
ROOT
HETATM    1  N   UNL     1      58.857   2.524  12.283  1.00  0.00    -0.301 N 
ATOM      2  HN  UNL     1      59.870   2.639  12.293  1.00  0.00     0.187 HD
HETATM    3  N   UNL     1      58.068   2.006  13.247  1.00  0.00    -0.301 N 
HETATM    4  C   UNL     1      56.739   1.968  12.910  1.00  0.00     0.026 A 
HETATM    5  C   UNL     1      56.668   2.523  11.653  1.00  0.00     0.055 A 
HETATM    6  C   UNL     1      57.994   2.855  11.304  1.00  0.00     0.051 A 
HETATM    7  C   UNL     1      58.661   1.572  14.493  1.00  0.00     0.177 C 
HETATM    8  C   UNL     1      55.660   1.422  13.770  1.00  0.00     0.070 C 
ENDROOT
BRANCH   6   9
HETATM    9  C   UNL     1      58.463   3.475  10.029  1.00  0.00     0.222 C 
BRANCH   9  10
HETATM   10  O   UNL     1      58.677   4.879  10.151  1.00  0.00    -0.395 OA
HETATM   11  H   UNL     1      57.830   5.323  10.311  1.00  0.00     0.209 HD
ENDBRANCH   9  10
ENDBRANCH   6   9
TORSDOF 2
ENDMDL
