MODEL 1
REMARK VINA RESULT:      -5.4      0.000      0.000
REMARK  2 active torsions:
REMARK  status: ('A' for Active; 'I' for Inactive)
REMARK    1  A    between atoms: C_2  and  C_6 
REMARK    2  A    between atoms: C_6  and  O_7 
ROOT
HETATM    1  S   UNL     1      63.561   8.966   4.885  1.00  0.00    -0.092 SA
HETATM    2  C   UNL     1      62.874  10.526   4.970  1.00  0.00     0.007 A 
HETATM    3  C   UNL     1      62.182  10.831   3.817  1.00  0.00     0.029 A 
HETATM    4  C   UNL     1      62.926   8.676   3.310  1.00  0.00     0.015 A 
HETATM    5  C   UNL     1      62.198   9.774   2.848  1.00  0.00    -0.018 A 
HETATM    6  C   UNL     1      63.079   7.514   2.532  1.00  0.00     0.019 A 
HETATM    7  C   UNL     1      61.610   9.695   1.563  1.00  0.00     0.013 A 
HETATM    8  C   UNL     1      62.485   7.462   1.268  1.00  0.00     0.001 A 
HETATM    9  C   UNL     1      61.757   8.541   0.786  1.00  0.00     0.001 A 
ENDROOT
BRANCH   2  10
HETATM   10  C   UNL     1      63.052  11.369   6.186  1.00  0.00     0.210 C 
BRANCH  10  11
HETATM   11  O   UNL     1      64.448  11.467   6.438  1.00  0.00    -0.396 OA
HETATM   12  H   UNL     1      64.637  12.306   6.886  1.00  0.00     0.209 HD
ENDBRANCH  10  11
ENDBRANCH   2  10
TORSDOF 2
ENDMDL
MODEL 2
REMARK VINA RESULT:      -4.8      2.131      3.019
REMARK  2 active torsions:
REMARK  status: ('A' for Active; 'I' for Inactive)
REMARK    1  A    between atoms: C_2  and  C_6 
REMARK    2  A    between atoms: C_6  and  O_7 
ROOT
HETATM    1  S   UNL     1      63.240   7.158   3.448  1.00  0.00    -0.092 SA
HETATM    2  C   UNL     1      63.401   7.543   5.103  1.00  0.00     0.007 A 
HETATM    3  C   UNL     1      63.041   8.851   5.350  1.00  0.00     0.029 A 
HETATM    4  C   UNL     1      62.672   8.734   3.047  1.00  0.00     0.015 A 
HETATM    5  C   UNL     1      62.615   9.554   4.176  1.00  0.00    -0.018 A 
HETATM    6  C   UNL     1      62.297   9.206   1.775  1.00  0.00     0.019 A 
HETATM    7  C   UNL     1      62.167  10.887   4.013  1.00  0.00     0.013 A 
HETATM    8  C   UNL     1      61.857  10.525   1.644  1.00  0.00     0.001 A 
HETATM    9  C   UNL     1      61.792  11.360   2.752  1.00  0.00     0.001 A 
ENDROOT
BRANCH   2  10
HETATM   10  C   UNL     1      63.871   6.518   6.078  1.00  0.00     0.210 C 
BRANCH  10  11
HETATM   11  O   UNL     1      64.379   7.209   7.213  1.00  0.00    -0.396 OA
HETATM   12  H   UNL     1      63.680   7.763   7.592  1.00  0.00     0.209 HD
ENDBRANCH  10  11
ENDBRANCH   2  10
TORSDOF 2
ENDMDL
MODEL 3
REMARK VINA RESULT:      -4.3      2.103      2.485
REMARK  2 active torsions:
REMARK  status: ('A' for Active; 'I' for Inactive)
REMARK    1  A    between atoms: C_2  and  C_6 
REMARK    2  A    between atoms: C_6  and  O_7 
ROOT
HETATM    1  S   UNL     1      64.653   6.837   3.908  1.00  0.00    -0.092 SA
HETATM    2  C   UNL     1      64.761   7.927   5.216  1.00  0.00     0.007 A 
HETATM    3  C   UNL     1      63.918   9.005   5.041  1.00  0.00     0.029 A 
HETATM    4  C   UNL     1      63.465   7.787   3.100  1.00  0.00     0.015 A 
HETATM    5  C   UNL     1      63.159   8.940   3.827  1.00  0.00    -0.018 A 
HETATM    6  C   UNL     1      62.840   7.504   1.871  1.00  0.00     0.019 A 
HETATM    7  C   UNL     1      62.196   9.831   3.294  1.00  0.00     0.013 A 
HETATM    8  C   UNL     1      61.892   8.400   1.371  1.00  0.00     0.001 A 
HETATM    9  C   UNL     1      61.572   9.554   2.074  1.00  0.00     0.001 A 
ENDROOT
BRANCH   2  10
HETATM   10  C   UNL     1      65.676   7.653   6.360  1.00  0.00     0.210 C 
BRANCH  10  11
HETATM   11  O   UNL     1      66.415   8.841   6.612  1.00  0.00    -0.396 OA
HETATM   12  H   UNL     1      67.301   8.759   6.225  1.00  0.00     0.209 HD
ENDBRANCH  10  11
ENDBRANCH   2  10
TORSDOF 2
ENDMDL
MODEL 4
REMARK VINA RESULT:      -4.2      2.915      4.602
REMARK  2 active torsions:
REMARK  status: ('A' for Active; 'I' for Inactive)
REMARK    1  A    between atoms: C_2  and  C_6 
REMARK    2  A    between atoms: C_6  and  O_7 
ROOT
HETATM    1  S   UNL     1      62.752   7.342   2.761  1.00  0.00    -0.092 SA
HETATM    2  C   UNL     1      62.489   7.459   1.079  1.00  0.00     0.007 A 
HETATM    3  C   UNL     1      62.145   8.743   0.715  1.00  0.00     0.029 A 
HETATM    4  C   UNL     1      62.422   9.013   3.018  1.00  0.00     0.015 A 
HETATM    5  C   UNL     1      62.104   9.656   1.820  1.00  0.00    -0.018 A 
HETATM    6  C   UNL     1      62.450   9.708   4.241  1.00  0.00     0.019 A 
HETATM    7  C   UNL     1      61.804  11.039   1.861  1.00  0.00     0.013 A 
HETATM    8  C   UNL     1      62.153  11.073   4.252  1.00  0.00     0.001 A 
HETATM    9  C   UNL     1      61.832  11.734   3.074  1.00  0.00     0.001 A 
ENDROOT
BRANCH   2  10
HETATM   10  C   UNL     1      62.648   6.265   0.201  1.00  0.00     0.210 C 
BRANCH  10  11
HETATM   11  O   UNL     1      62.217   5.129   0.941  1.00  0.00    -0.396 OA
HETATM   12  H   UNL     1      61.389   4.794   0.565  1.00  0.00     0.209 HD
ENDBRANCH  10  11
ENDBRANCH   2  10
TORSDOF 2
ENDMDL
MODEL 5
REMARK VINA RESULT:      -4.1      2.435      3.838
REMARK  2 active torsions:
REMARK  status: ('A' for Active; 'I' for Inactive)
REMARK    1  A    between atoms: C_2  and  C_6 
REMARK    2  A    between atoms: C_6  and  O_7 
ROOT
HETATM    1  S   UNL     1      62.974   8.088   5.042  1.00  0.00    -0.092 SA
HETATM    2  C   UNL     1      63.133   6.927   3.802  1.00  0.00     0.007 A 
HETATM    3  C   UNL     1      62.834   7.468   2.569  1.00  0.00     0.029 A 
HETATM    4  C   UNL     1      62.518   9.331   3.941  1.00  0.00     0.015 A 
HETATM    5  C   UNL     1      62.479   8.855   2.629  1.00  0.00    -0.018 A 
HETATM    6  C   UNL     1      62.210  10.669   4.248  1.00  0.00     0.019 A 
HETATM    7  C   UNL     1      62.118   9.758   1.599  1.00  0.00     0.013 A 
HETATM    8  C   UNL     1      61.860  11.539   3.213  1.00  0.00     0.001 A 
HETATM    9  C   UNL     1      61.813  11.090   1.899  1.00  0.00     0.001 A 
ENDROOT
BRANCH   2  10
HETATM   10  C   UNL     1      63.557   5.533   4.116  1.00  0.00     0.210 C 
BRANCH  10  11
HETATM   11  O   UNL     1      62.460   4.884   4.746  1.00  0.00    -0.396 OA
HETATM   12  H   UNL     1      62.532   4.986   5.707  1.00  0.00     0.209 HD
ENDBRANCH  10  11
ENDBRANCH   2  10
TORSDOF 2
ENDMDL
MODEL 6
REMARK VINA RESULT:      -4.1      2.989      4.026
REMARK  2 active torsions:
REMARK  status: ('A' for Active; 'I' for Inactive)
REMARK    1  A    between atoms: C_2  and  C_6 
REMARK    2  A    between atoms: C_6  and  O_7 
ROOT
HETATM    1  S   UNL     1      64.546   6.730   3.572  1.00  0.00    -0.092 SA
HETATM    2  C   UNL     1      65.532   7.118   4.910  1.00  0.00     0.007 A 
HETATM    3  C   UNL     1      65.146   8.308   5.489  1.00  0.00     0.029 A 
HETATM    4  C   UNL     1      63.581   8.144   3.763  1.00  0.00     0.015 A 
HETATM    5  C   UNL     1      64.019   8.914   4.842  1.00  0.00    -0.018 A 
HETATM    6  C   UNL     1      62.483   8.537   2.975  1.00  0.00     0.019 A 
HETATM    7  C   UNL     1      63.327  10.115   5.132  1.00  0.00     0.013 A 
HETATM    8  C   UNL     1      61.817   9.726   3.286  1.00  0.00     0.001 A 
HETATM    9  C   UNL     1      62.234  10.509   4.354  1.00  0.00     0.001 A 
ENDROOT
BRANCH   2  10
HETATM   10  C   UNL     1      66.641   6.211   5.324  1.00  0.00     0.210 C 
BRANCH  10  11
HETATM   11  O   UNL     1      67.693   6.363   4.379  1.00  0.00    -0.396 OA
HETATM   12  H   UNL     1      67.391   6.061   3.508  1.00  0.00     0.209 HD
ENDBRANCH  10  11
ENDBRANCH   2  10
TORSDOF 2
ENDMDL
MODEL 7
REMARK VINA RESULT:      -3.8     11.935     12.598
REMARK  2 active torsions:
REMARK  status: ('A' for Active; 'I' for Inactive)
REMARK    1  A    between atoms: C_2  and  C_6 
REMARK    2  A    between atoms: C_6  and  O_7 
ROOT
HETATM    1  S   UNL     1      59.143   1.290  10.131  1.00  0.00    -0.092 SA
HETATM    2  C   UNL     1      58.507   2.851  10.401  1.00  0.00     0.007 A 
HETATM    3  C   UNL     1      58.138   3.020  11.719  1.00  0.00     0.029 A 
HETATM    4  C   UNL     1      58.945   0.829  11.779  1.00  0.00     0.015 A 
HETATM    5  C   UNL     1      58.386   1.864  12.530  1.00  0.00    -0.018 A 
HETATM    6  C   UNL     1      59.278  -0.408  12.362  1.00  0.00     0.019 A 
HETATM    7  C   UNL     1      58.157   1.642  13.910  1.00  0.00     0.013 A 
HETATM    8  C   UNL     1      59.044  -0.598  13.726  1.00  0.00     0.001 A 
HETATM    9  C   UNL     1      58.488   0.416  14.495  1.00  0.00     0.001 A 
ENDROOT
BRANCH   2  10
HETATM   10  C   UNL     1      58.415   3.836   9.286  1.00  0.00     0.210 C 
BRANCH  10  11
HETATM   11  O   UNL     1      58.693   5.121   9.828  1.00  0.00    -0.396 OA
HETATM   12  H   UNL     1      57.880   5.501  10.194  1.00  0.00     0.209 HD
ENDBRANCH  10  11
ENDBRANCH   2  10
TORSDOF 2
ENDMDL
MODEL 8
REMARK VINA RESULT:      -3.8      3.540      4.696
REMARK  2 active torsions:
REMARK  status: ('A' for Active; 'I' for Inactive)
REMARK    1  A    between atoms: C_2  and  C_6 
REMARK    2  A    between atoms: C_6  and  O_7 
ROOT
HETATM    1  S   UNL     1      62.424   7.304   5.872  1.00  0.00    -0.092 SA
HETATM    2  C   UNL     1      62.502   8.257   4.459  1.00  0.00     0.007 A 
HETATM    3  C   UNL     1      63.808   8.535   4.114  1.00  0.00     0.029 A 
HETATM    4  C   UNL     1      64.138   7.241   6.030  1.00  0.00     0.015 A 
HETATM    5  C   UNL     1      64.767   7.954   5.007  1.00  0.00    -0.018 A 
HETATM    6  C   UNL     1      64.877   6.579   7.028  1.00  0.00     0.019 A 
HETATM    7  C   UNL     1      66.182   8.000   4.995  1.00  0.00     0.013 A 
HETATM    8  C   UNL     1      66.273   6.638   6.989  1.00  0.00     0.001 A 
HETATM    9  C   UNL     1      66.921   7.342   5.983  1.00  0.00     0.001 A 
ENDROOT
BRANCH   2  10
HETATM   10  C   UNL     1      61.256   8.676   3.756  1.00  0.00     0.210 C 
BRANCH  10  11
HETATM   11  O   UNL     1      61.186  10.095   3.819  1.00  0.00    -0.396 OA
HETATM   12  H   UNL     1      60.267  10.366   3.970  1.00  0.00     0.209 HD
ENDBRANCH  10  11
ENDBRANCH   2  10
TORSDOF 2
ENDMDL
MODEL 9
REMARK VINA RESULT:      -3.7      2.762      4.280
REMARK  2 active torsions:
REMARK  status: ('A' for Active; 'I' for Inactive)
REMARK    1  A    between atoms: C_2  and  C_6 
REMARK    2  A    between atoms: C_6  and  O_7 
ROOT
HETATM    1  S   UNL     1      65.338   7.526   4.889  1.00  0.00    -0.092 SA
HETATM    2  C   UNL     1      65.114   6.405   3.622  1.00  0.00     0.007 A 
HETATM    3  C   UNL     1      64.012   6.727   2.857  1.00  0.00     0.029 A 
HETATM    4  C   UNL     1      63.972   8.464   4.418  1.00  0.00     0.015 A 
HETATM    5  C   UNL     1      63.342   7.915   3.300  1.00  0.00    -0.018 A 
HETATM    6  C   UNL     1      63.494   9.638   5.030  1.00  0.00     0.019 A 
HETATM    7  C   UNL     1      62.196   8.570   2.787  1.00  0.00     0.013 A 
HETATM    8  C   UNL     1      62.363  10.265   4.501  1.00  0.00     0.001 A 
HETATM    9  C   UNL     1      61.718   9.738   3.390  1.00  0.00     0.001 A 
ENDROOT
BRANCH   2  10
HETATM   10  C   UNL     1      66.053   5.261   3.446  1.00  0.00     0.210 C 
BRANCH  10  11
HETATM   11  O   UNL     1      67.375   5.783   3.483  1.00  0.00    -0.396 OA
HETATM   12  H   UNL     1      67.965   5.203   2.979  1.00  0.00     0.209 HD
ENDBRANCH  10  11
ENDBRANCH   2  10
TORSDOF 2
ENDMDL
