MODEL 1
REMARK VINA RESULT:      -4.0      0.000      0.000
REMARK  1 active torsions:
REMARK  status: ('A' for Active; 'I' for Inactive)
REMARK    1  A    between atoms: C_1  and  C_2 
ROOT
HETATM    1  C   UNL     1      62.350  10.071   3.501  1.00  0.00     0.081 A 
HETATM    2  S   UNL     1      62.847   8.430   3.495  1.00  0.00    -0.095 SA
HETATM    3  C   UNL     1      61.881  10.455   2.257  1.00  0.00     0.026 A 
HETATM    4  C   UNL     1      62.433   8.240   1.845  1.00  0.00     0.051 A 
HETATM    5  C   UNL     1      61.929   9.399   1.302  1.00  0.00     0.009 A 
ENDROOT
BRANCH   1   6
HETATM    6  C   UNL     1      62.461  10.843   4.716  1.00  0.00     0.216 C 
HETATM    7  O   UNL     1      62.959  10.529   5.788  1.00  0.00    -0.643 OA
HETATM    8  O   UNL     1      61.915  12.073   4.569  1.00  0.00    -0.643 OA
ENDBRANCH   1   6
TORSDOF 1
ENDMDL
MODEL 2
REMARK VINA RESULT:      -3.8      1.159      1.534
REMARK  1 active torsions:
REMARK  status: ('A' for Active; 'I' for Inactive)
REMARK    1  A    between atoms: C_1  and  C_2 
ROOT
HETATM    1  C   UNL     1      62.455  10.123   4.013  1.00  0.00     0.081 A 
HETATM    2  S   UNL     1      62.508   8.847   2.870  1.00  0.00    -0.095 SA
HETATM    3  C   UNL     1      62.004  11.295   3.431  1.00  0.00     0.026 A 
HETATM    4  C   UNL     1      61.930   9.854   1.614  1.00  0.00     0.051 A 
HETATM    5  C   UNL     1      61.700  11.140   2.048  1.00  0.00     0.009 A 
ENDROOT
BRANCH   1   6
HETATM    6  C   UNL     1      62.859   9.874   5.377  1.00  0.00     0.216 C 
HETATM    7  O   UNL     1      62.980   8.809   5.964  1.00  0.00    -0.643 OA
HETATM    8  O   UNL     1      63.121  11.030   6.031  1.00  0.00    -0.643 OA
ENDBRANCH   1   6
TORSDOF 1
ENDMDL
MODEL 3
REMARK VINA RESULT:      -3.8      1.438      2.098
REMARK  1 active torsions:
REMARK  status: ('A' for Active; 'I' for Inactive)
REMARK    1  A    between atoms: C_1  and  C_2 
ROOT
HETATM    1  C   UNL     1      61.874   9.781   2.231  1.00  0.00     0.081 A 
HETATM    2  S   UNL     1      61.494   8.544   3.355  1.00  0.00    -0.095 SA
HETATM    3  C   UNL     1      62.191   9.250   0.993  1.00  0.00     0.026 A 
HETATM    4  C   UNL     1      61.749   7.313   2.193  1.00  0.00     0.051 A 
HETATM    5  C   UNL     1      62.119   7.827   0.971  1.00  0.00     0.009 A 
ENDROOT
BRANCH   1   6
HETATM    6  C   UNL     1      61.831  11.162   2.651  1.00  0.00     0.216 C 
HETATM    7  O   UNL     1      61.885  12.177   1.972  1.00  0.00    -0.643 OA
HETATM    8  O   UNL     1      61.715  11.264   3.996  1.00  0.00    -0.643 OA
ENDBRANCH   1   6
TORSDOF 1
ENDMDL
MODEL 4
REMARK VINA RESULT:      -3.6      1.695      2.468
REMARK  1 active torsions:
REMARK  status: ('A' for Active; 'I' for Inactive)
REMARK    1  A    between atoms: C_1  and  C_2 
ROOT
HETATM    1  C   UNL     1      62.165  10.020   3.740  1.00  0.00     0.081 A 
HETATM    2  S   UNL     1      61.523   8.765   2.765  1.00  0.00    -0.095 SA
HETATM    3  C   UNL     1      62.831   9.507   4.839  1.00  0.00     0.026 A 
HETATM    4  C   UNL     1      62.134   7.551   3.804  1.00  0.00     0.051 A 
HETATM    5  C   UNL     1      62.813   8.084   4.877  1.00  0.00     0.009 A 
ENDROOT
BRANCH   1   6
HETATM    6  C   UNL     1      61.965  11.396   3.351  1.00  0.00     0.216 C 
HETATM    7  O   UNL     1      61.898  11.880   2.230  1.00  0.00    -0.643 OA
HETATM    8  O   UNL     1      61.844  12.201   4.433  1.00  0.00    -0.643 OA
ENDBRANCH   1   6
TORSDOF 1
ENDMDL
MODEL 5
REMARK VINA RESULT:      -3.5      2.633      3.254
REMARK  1 active torsions:
REMARK  status: ('A' for Active; 'I' for Inactive)
REMARK    1  A    between atoms: C_1  and  C_2 
ROOT
HETATM    1  C   UNL     1      63.758   8.931   4.605  1.00  0.00     0.081 A 
HETATM    2  S   UNL     1      62.958  10.351   5.136  1.00  0.00    -0.095 SA
HETATM    3  C   UNL     1      63.184   8.438   3.447  1.00  0.00     0.026 A 
HETATM    4  C   UNL     1      61.859  10.305   3.826  1.00  0.00     0.051 A 
HETATM    5  C   UNL     1      62.089   9.230   2.997  1.00  0.00     0.009 A 
ENDROOT
BRANCH   1   6
HETATM    6  C   UNL     1      64.876   8.418   5.363  1.00  0.00     0.216 C 
HETATM    7  O   UNL     1      66.073   8.556   5.160  1.00  0.00    -0.643 OA
HETATM    8  O   UNL     1      64.458   7.695   6.428  1.00  0.00    -0.643 OA
ENDBRANCH   1   6
TORSDOF 1
ENDMDL
MODEL 6
REMARK VINA RESULT:      -3.3      6.412      7.212
REMARK  1 active torsions:
REMARK  status: ('A' for Active; 'I' for Inactive)
REMARK    1  A    between atoms: C_1  and  C_2 
ROOT
HETATM    1  C   UNL     1      66.730   6.857   7.140  1.00  0.00     0.081 A 
HETATM    2  S   UNL     1      67.503   5.477   6.479  1.00  0.00    -0.095 SA
HETATM    3  C   UNL     1      66.907   6.919   8.511  1.00  0.00     0.026 A 
HETATM    4  C   UNL     1      68.069   4.973   8.014  1.00  0.00     0.051 A 
HETATM    5  C   UNL     1      67.678   5.833   9.015  1.00  0.00     0.009 A 
ENDROOT
BRANCH   1   6
HETATM    6  C   UNL     1      66.019   7.760   6.267  1.00  0.00     0.216 C 
HETATM    7  O   UNL     1      66.457   8.501   5.399  1.00  0.00    -0.643 OA
HETATM    8  O   UNL     1      64.686   7.725   6.502  1.00  0.00    -0.643 OA
ENDBRANCH   1   6
TORSDOF 1
ENDMDL
MODEL 7
REMARK VINA RESULT:      -3.2      2.628      3.480
REMARK  1 active torsions:
REMARK  status: ('A' for Active; 'I' for Inactive)
REMARK    1  A    between atoms: C_1  and  C_2 
ROOT
HETATM    1  C   UNL     1      62.051   9.632   2.889  1.00  0.00     0.081 A 
HETATM    2  S   UNL     1      62.890   8.651   4.016  1.00  0.00    -0.095 SA
HETATM    3  C   UNL     1      61.894  10.920   3.368  1.00  0.00     0.026 A 
HETATM    4  C   UNL     1      63.044   9.941   5.130  1.00  0.00     0.051 A 
HETATM    5  C   UNL     1      62.467  11.099   4.660  1.00  0.00     0.009 A 
ENDROOT
BRANCH   1   6
HETATM    6  C   UNL     1      61.616   9.063   1.635  1.00  0.00     0.216 C 
HETATM    7  O   UNL     1      60.618   8.400   1.392  1.00  0.00    -0.643 OA
HETATM    8  O   UNL     1      62.487   9.345   0.637  1.00  0.00    -0.643 OA
ENDBRANCH   1   6
TORSDOF 1
ENDMDL
MODEL 8
REMARK VINA RESULT:      -3.1      4.749      5.208
REMARK  1 active torsions:
REMARK  status: ('A' for Active; 'I' for Inactive)
REMARK    1  A    between atoms: C_1  and  C_2 
ROOT
HETATM    1  C   UNL     1      65.715   7.851   5.464  1.00  0.00     0.081 A 
HETATM    2  S   UNL     1      65.495   6.739   6.750  1.00  0.00    -0.095 SA
HETATM    3  C   UNL     1      66.955   7.689   4.871  1.00  0.00     0.026 A 
HETATM    4  C   UNL     1      67.042   6.048   6.509  1.00  0.00     0.051 A 
HETATM    5  C   UNL     1      67.720   6.650   5.474  1.00  0.00     0.009 A 
ENDROOT
BRANCH   1   6
HETATM    6  C   UNL     1      64.663   8.787   5.144  1.00  0.00     0.216 C 
HETATM    7  O   UNL     1      64.408   9.867   5.655  1.00  0.00    -0.643 OA
HETATM    8  O   UNL     1      63.893   8.332   4.126  1.00  0.00    -0.643 OA
ENDBRANCH   1   6
TORSDOF 1
ENDMDL
MODEL 9
REMARK VINA RESULT:      -3.0      6.552      7.226
REMARK  1 active torsions:
REMARK  status: ('A' for Active; 'I' for Inactive)
REMARK    1  A    between atoms: C_1  and  C_2 
ROOT
HETATM    1  C   UNL     1      66.870   6.340   7.232  1.00  0.00     0.081 A 
HETATM    2  S   UNL     1      66.634   7.934   6.647  1.00  0.00    -0.095 SA
HETATM    3  C   UNL     1      67.352   5.509   6.236  1.00  0.00     0.026 A 
HETATM    4  C   UNL     1      67.175   7.512   5.079  1.00  0.00     0.051 A 
HETATM    5  C   UNL     1      67.528   6.185   4.995  1.00  0.00     0.009 A 
ENDROOT
BRANCH   1   6
HETATM    6  C   UNL     1      66.565   6.036   8.611  1.00  0.00     0.216 C 
HETATM    7  O   UNL     1      66.687   6.741   9.602  1.00  0.00    -0.643 OA
HETATM    8  O   UNL     1      66.082   4.778   8.742  1.00  0.00    -0.643 OA
ENDBRANCH   1   6
TORSDOF 1
ENDMDL
