MODEL 1
REMARK VINA RESULT:      -3.7      0.000      0.000
REMARK  2 active torsions:
REMARK  status: ('A' for Active; 'I' for Inactive)
REMARK    1  A    between atoms: C_1  and  C_6 
REMARK    2  A    between atoms: C_6  and  O_7 
ROOT
HETATM    1  C   UNL     1      62.897  10.412   5.011  1.00  0.00    -0.028 A 
HETATM    2  S   UNL     1      63.037   8.340   3.474  1.00  0.00    -0.113 SA
HETATM    3  C   UNL     1      63.476   9.160   4.908  1.00  0.00     0.058 A 
HETATM    4  C   UNL     1      62.072  10.682   3.869  1.00  0.00     0.017 A 
HETATM    5  C   UNL     1      62.060   9.645   2.963  1.00  0.00     0.050 A 
ENDROOT
BRANCH   1   6
HETATM    6  C   UNL     1      63.093  11.359   6.151  1.00  0.00     0.203 C 
BRANCH   6   7
HETATM    7  O   UNL     1      64.472  11.518   6.465  1.00  0.00    -0.396 OA
HETATM    8  H   UNL     1      64.819  12.301   6.011  1.00  0.00     0.209 HD
ENDBRANCH   6   7
ENDBRANCH   1   6
TORSDOF 2
ENDMDL
MODEL 2
REMARK VINA RESULT:      -3.3      1.772      2.054
REMARK  2 active torsions:
REMARK  status: ('A' for Active; 'I' for Inactive)
REMARK    1  A    between atoms: C_1  and  C_6 
REMARK    2  A    between atoms: C_6  and  O_7 
ROOT
HETATM    1  C   UNL     1      62.310   9.981   3.438  1.00  0.00    -0.028 A 
HETATM    2  S   UNL     1      62.442   7.915   1.892  1.00  0.00    -0.113 SA
HETATM    3  C   UNL     1      62.636   8.637   3.430  1.00  0.00     0.058 A 
HETATM    4  C   UNL     1      61.890  10.407   2.133  1.00  0.00     0.017 A 
HETATM    5  C   UNL     1      61.916   9.389   1.206  1.00  0.00     0.050 A 
ENDROOT
BRANCH   1   6
HETATM    6  C   UNL     1      62.377  10.876   4.633  1.00  0.00     0.203 C 
BRANCH   6   7
HETATM    7  O   UNL     1      62.068  12.222   4.294  1.00  0.00    -0.396 OA
HETATM    8  H   UNL     1      61.230  12.248   3.807  1.00  0.00     0.209 HD
ENDBRANCH   6   7
ENDBRANCH   1   6
TORSDOF 2
ENDMDL
MODEL 3
REMARK VINA RESULT:      -3.1      1.533      2.250
REMARK  2 active torsions:
REMARK  status: ('A' for Active; 'I' for Inactive)
REMARK    1  A    between atoms: C_1  and  C_6 
REMARK    2  A    between atoms: C_6  and  O_7 
ROOT
HETATM    1  C   UNL     1      63.774   8.939   4.677  1.00  0.00    -0.028 A 
HETATM    2  S   UNL     1      61.914   9.570   2.999  1.00  0.00    -0.113 SA
HETATM    3  C   UNL     1      63.150   8.511   3.519  1.00  0.00     0.058 A 
HETATM    4  C   UNL     1      63.201  10.174   5.131  1.00  0.00     0.017 A 
HETATM    5  C   UNL     1      62.187  10.624   4.316  1.00  0.00     0.050 A 
ENDROOT
BRANCH   1   6
HETATM    6  C   UNL     1      64.888   8.223   5.370  1.00  0.00     0.203 C 
BRANCH   6   7
HETATM    7  O   UNL     1      65.689   9.118   6.131  1.00  0.00    -0.396 OA
HETATM    8  H   UNL     1      65.258   9.293   6.982  1.00  0.00     0.209 HD
ENDBRANCH   6   7
ENDBRANCH   1   6
TORSDOF 2
ENDMDL
MODEL 4
REMARK VINA RESULT:      -3.1      1.608      2.392
REMARK  2 active torsions:
REMARK  status: ('A' for Active; 'I' for Inactive)
REMARK    1  A    between atoms: C_1  and  C_6 
REMARK    2  A    between atoms: C_6  and  O_7 
ROOT
HETATM    1  C   UNL     1      62.571   9.811   3.809  1.00  0.00    -0.028 A 
HETATM    2  S   UNL     1      63.603   7.446   3.682  1.00  0.00    -0.113 SA
HETATM    3  C   UNL     1      62.716   8.722   2.970  1.00  0.00     0.058 A 
HETATM    4  C   UNL     1      63.219   9.569   5.067  1.00  0.00     0.017 A 
HETATM    5  C   UNL     1      63.814   8.329   5.130  1.00  0.00     0.050 A 
ENDROOT
BRANCH   1   6
HETATM    6  C   UNL     1      61.848  11.073   3.464  1.00  0.00     0.203 C 
BRANCH   6   7
HETATM    7  O   UNL     1      62.127  12.106   4.402  1.00  0.00    -0.396 OA
HETATM    8  H   UNL     1      61.473  12.078   5.117  1.00  0.00     0.209 HD
ENDBRANCH   6   7
ENDBRANCH   1   6
TORSDOF 2
ENDMDL
MODEL 5
REMARK VINA RESULT:      -2.9     12.869     13.229
REMARK  2 active torsions:
REMARK  status: ('A' for Active; 'I' for Inactive)
REMARK    1  A    between atoms: C_1  and  C_6 
REMARK    2  A    between atoms: C_6  and  O_7 
ROOT
HETATM    1  C   UNL     1      56.728   2.186  13.316  1.00  0.00    -0.028 A 
HETATM    2  S   UNL     1      59.245   1.629  13.153  1.00  0.00    -0.113 SA
HETATM    3  C   UNL     1      57.772   1.614  14.020  1.00  0.00     0.058 A 
HETATM    4  C   UNL     1      57.175   2.640  12.030  1.00  0.00     0.017 A 
HETATM    5  C   UNL     1      58.514   2.401  11.816  1.00  0.00     0.050 A 
ENDROOT
BRANCH   1   6
HETATM    6  C   UNL     1      55.324   2.314  13.812  1.00  0.00     0.203 C 
BRANCH   6   7
HETATM    7  O   UNL     1      55.239   3.223  14.904  1.00  0.00    -0.396 OA
HETATM    8  H   UNL     1      54.372   3.656  14.896  1.00  0.00     0.209 HD
ENDBRANCH   6   7
ENDBRANCH   1   6
TORSDOF 2
ENDMDL
MODEL 6
REMARK VINA RESULT:      -2.8      2.986      3.861
REMARK  2 active torsions:
REMARK  status: ('A' for Active; 'I' for Inactive)
REMARK    1  A    between atoms: C_1  and  C_6 
REMARK    2  A    between atoms: C_6  and  O_7 
ROOT
HETATM    1  C   UNL     1      62.427   9.305   3.052  1.00  0.00    -0.028 A 
HETATM    2  S   UNL     1      62.843  10.632   5.229  1.00  0.00    -0.113 SA
HETATM    3  C   UNL     1      62.066  10.464   3.716  1.00  0.00     0.058 A 
HETATM    4  C   UNL     1      63.367   8.549   3.830  1.00  0.00     0.017 A 
HETATM    5  C   UNL     1      63.677   9.154   5.027  1.00  0.00     0.050 A 
ENDROOT
BRANCH   1   6
HETATM    6  C   UNL     1      61.912   8.886   1.713  1.00  0.00     0.203 C 
BRANCH   6   7
HETATM    7  O   UNL     1      60.521   9.157   1.582  1.00  0.00    -0.396 OA
HETATM    8  H   UNL     1      60.310   9.987   2.036  1.00  0.00     0.209 HD
ENDBRANCH   6   7
ENDBRANCH   1   6
TORSDOF 2
ENDMDL
MODEL 7
REMARK VINA RESULT:      -2.8      5.185      6.261
REMARK  2 active torsions:
REMARK  status: ('A' for Active; 'I' for Inactive)
REMARK    1  A    between atoms: C_1  and  C_6 
REMARK    2  A    between atoms: C_6  and  O_7 
ROOT
HETATM    1  C   UNL     1      66.854   6.960   6.558  1.00  0.00    -0.028 A 
HETATM    2  S   UNL     1      67.434   5.789   8.786  1.00  0.00    -0.113 SA
HETATM    3  C   UNL     1      66.642   7.034   7.923  1.00  0.00     0.058 A 
HETATM    4  C   UNL     1      67.691   5.840   6.237  1.00  0.00     0.017 A 
HETATM    5  C   UNL     1      68.075   5.125   7.349  1.00  0.00     0.050 A 
ENDROOT
BRANCH   1   6
HETATM    6  C   UNL     1      66.290   7.906   5.548  1.00  0.00     0.203 C 
BRANCH   6   7
HETATM    7  O   UNL     1      65.731   9.058   6.169  1.00  0.00    -0.396 OA
HETATM    8  H   UNL     1      64.783   9.103   5.973  1.00  0.00     0.209 HD
ENDBRANCH   6   7
ENDBRANCH   1   6
TORSDOF 2
ENDMDL
MODEL 8
REMARK VINA RESULT:      -2.6      2.159      2.753
REMARK  2 active torsions:
REMARK  status: ('A' for Active; 'I' for Inactive)
REMARK    1  A    between atoms: C_1  and  C_6 
REMARK    2  A    between atoms: C_6  and  O_7 
ROOT
HETATM    1  C   UNL     1      62.842   8.230   4.609  1.00  0.00    -0.028 A 
HETATM    2  S   UNL     1      61.988  10.057   2.994  1.00  0.00    -0.113 SA
HETATM    3  C   UNL     1      62.290   9.498   4.581  1.00  0.00     0.058 A 
HETATM    4  C   UNL     1      63.013   7.725   3.277  1.00  0.00     0.017 A 
HETATM    5  C   UNL     1      62.592   8.612   2.312  1.00  0.00     0.050 A 
ENDROOT
BRANCH   1   6
HETATM    6  C   UNL     1      63.216   7.482   5.848  1.00  0.00     0.203 C 
BRANCH   6   7
HETATM    7  O   UNL     1      62.664   8.090   7.009  1.00  0.00    -0.396 OA
HETATM    8  H   UNL     1      63.347   8.614   7.455  1.00  0.00     0.209 HD
ENDBRANCH   6   7
ENDBRANCH   1   6
TORSDOF 2
ENDMDL
MODEL 9
REMARK VINA RESULT:      -2.6      2.983      3.542
REMARK  2 active torsions:
REMARK  status: ('A' for Active; 'I' for Inactive)
REMARK    1  A    between atoms: C_1  and  C_6 
REMARK    2  A    between atoms: C_6  and  O_7 
ROOT
HETATM    1  C   UNL     1      61.654   9.420   2.122  1.00  0.00    -0.028 A 
HETATM    2  S   UNL     1      61.093   7.106   1.119  1.00  0.00    -0.113 SA
HETATM    3  C   UNL     1      61.240   8.801   0.956  1.00  0.00     0.058 A 
HETATM    4  C   UNL     1      61.851   8.453   3.163  1.00  0.00     0.017 A 
HETATM    5  C   UNL     1      61.583   7.166   2.755  1.00  0.00     0.050 A 
ENDROOT
BRANCH   1   6
HETATM    6  C   UNL     1      61.873  10.889   2.284  1.00  0.00     0.203 C 
BRANCH   6   7
HETATM    7  O   UNL     1      61.556  11.320   3.603  1.00  0.00    -0.396 OA
HETATM    8  H   UNL     1      62.369  11.384   4.126  1.00  0.00     0.209 HD
ENDBRANCH   6   7
ENDBRANCH   1   6
TORSDOF 2
ENDMDL
