MODEL 1
REMARK VINA RESULT:      -5.0      0.000      0.000
REMARK  3 active torsions:
REMARK  status: ('A' for Active; 'I' for Inactive)
REMARK    1  A    between atoms: C_1  and  C_6 
REMARK    2  A    between atoms: C_5  and  C_11 
REMARK    3  A    between atoms: C_11  and  O_13 
ROOT
HETATM    1  C   UNK     1      63.485   8.409   4.872  1.00  0.00     0.086 A 
HETATM    2  N   UNK     1      64.716   8.573   5.326  1.00  0.00    -0.351 N 
ATOM      3  HN  UNK     1      65.340   9.332   5.050  1.00  0.00     0.166 HD
HETATM    4  S   UNK     1      62.639   7.077   5.574  1.00  0.00    -0.081 SA
HETATM    5  C   UNK     1      65.041   7.568   6.233  1.00  0.00     0.040 A 
HETATM    6  C   UNK     1      64.019   6.677   6.496  1.00  0.00     0.079 A 
ENDROOT
BRANCH   1   7
HETATM    7  C   UNK     1      62.834   9.285   3.887  1.00  0.00     0.013 A 
HETATM    8  C   UNK     1      62.366  10.563   4.192  1.00  0.00     0.101 A 
HETATM    9  N   UNK     1      61.764  11.399   3.308  1.00  0.00    -0.374 N 
HETATM   10  C   UNK     1      61.610  10.941   2.048  1.00  0.00     0.087 A 
ATOM     11  HN  UNK     1      61.443  12.327   3.582  1.00  0.00     0.164 HD
HETATM   12  C   UNK     1      62.026   9.685   1.636  1.00  0.00     0.018 A 
HETATM   13  C   UNK     1      62.640   8.851   2.571  1.00  0.00     0.017 A 
ENDBRANCH   1   7
BRANCH   5  14
HETATM   14  C   UNK     1      66.409   7.551   6.831  1.00  0.00     0.221 C 
BRANCH  14  15
HETATM   15  O   UNK     1      66.910   8.869   7.030  1.00  0.00    -0.395 OA
HETATM   16  H   UNK     1      66.964   9.326   6.176  1.00  0.00     0.209 HD
ENDBRANCH  14  15
ENDBRANCH   5  14
TORSDOF 3
ENDMDL
MODEL 2
REMARK VINA RESULT:      -4.9      2.352      5.253
REMARK  3 active torsions:
REMARK  status: ('A' for Active; 'I' for Inactive)
REMARK    1  A    between atoms: C_1  and  C_6 
REMARK    2  A    between atoms: C_5  and  C_11 
REMARK    3  A    between atoms: C_11  and  O_13 
ROOT
HETATM    1  C   UNK     1      64.645   7.981   5.076  1.00  0.00     0.086 A 
HETATM    2  N   UNK     1      64.526   9.142   5.698  1.00  0.00    -0.351 N 
ATOM      3  HN  UNK     1      65.135   9.463   6.451  1.00  0.00     0.166 HD
HETATM    4  S   UNK     1      63.516   7.741   3.791  1.00  0.00    -0.081 SA
HETATM    5  C   UNK     1      63.454   9.865   5.181  1.00  0.00     0.040 A 
HETATM    6  C   UNK     1      62.803   9.256   4.126  1.00  0.00     0.079 A 
ENDROOT
BRANCH   1   7
HETATM    7  C   UNK     1      65.664   6.968   5.388  1.00  0.00     0.013 A 
HETATM    8  C   UNK     1      66.032   6.630   6.689  1.00  0.00     0.101 A 
HETATM    9  N   UNK     1      66.966   5.699   7.014  1.00  0.00    -0.374 N 
HETATM   10  C   UNK     1      67.575   5.069   5.989  1.00  0.00     0.087 A 
ATOM     11  HN  UNK     1      67.194   5.487   7.985  1.00  0.00     0.164 HD
HETATM   12  C   UNK     1      67.297   5.331   4.657  1.00  0.00     0.018 A 
HETATM   13  C   UNK     1      66.334   6.296   4.359  1.00  0.00     0.017 A 
ENDBRANCH   1   7
BRANCH   5  14
HETATM   14  C   UNK     1      63.125  11.194   5.779  1.00  0.00     0.221 C 
BRANCH  14  15
HETATM   15  O   UNK     1      64.204  11.699   6.557  1.00  0.00    -0.395 OA
HETATM   16  H   UNK     1      65.045  11.471   6.130  1.00  0.00     0.209 HD
ENDBRANCH  14  15
ENDBRANCH   5  14
TORSDOF 3
ENDMDL
MODEL 3
REMARK VINA RESULT:      -4.7      2.578      5.683
REMARK  3 active torsions:
REMARK  status: ('A' for Active; 'I' for Inactive)
REMARK    1  A    between atoms: C_1  and  C_6 
REMARK    2  A    between atoms: C_5  and  C_11 
REMARK    3  A    between atoms: C_11  and  O_13 
ROOT
HETATM    1  C   UNK     1      64.552   8.119   5.274  1.00  0.00     0.086 A 
HETATM    2  N   UNK     1      64.046   9.321   5.491  1.00  0.00    -0.351 N 
ATOM      3  HN  UNK     1      64.311   9.932   6.263  1.00  0.00     0.166 HD
HETATM    4  S   UNK     1      63.967   7.345   3.845  1.00  0.00    -0.081 SA
HETATM    5  C   UNK     1      63.103   9.636   4.516  1.00  0.00     0.040 A 
HETATM    6  C   UNK     1      62.947   8.679   3.534  1.00  0.00     0.079 A 
ENDROOT
BRANCH   1   7
HETATM    7  C   UNK     1      65.561   7.472   6.126  1.00  0.00     0.013 A 
HETATM    8  C   UNK     1      66.934   7.622   5.934  1.00  0.00     0.101 A 
HETATM    9  N   UNK     1      67.892   7.043   6.701  1.00  0.00    -0.374 N 
HETATM   10  C   UNK     1      67.466   6.263   7.717  1.00  0.00     0.087 A 
ATOM     11  HN  UNK     1      68.885   7.190   6.520  1.00  0.00     0.164 HD
HETATM   12  C   UNK     1      66.128   6.034   7.994  1.00  0.00     0.018 A 
HETATM   13  C   UNK     1      65.170   6.643   7.184  1.00  0.00     0.017 A 
ENDBRANCH   1   7
BRANCH   5  14
HETATM   14  C   UNK     1      62.382  10.942   4.605  1.00  0.00     0.221 C 
BRANCH  14  15
HETATM   15  O   UNK     1      61.325  11.022   3.655  1.00  0.00    -0.395 OA
HETATM   16  H   UNK     1      61.268  11.927   3.310  1.00  0.00     0.209 HD
ENDBRANCH  14  15
ENDBRANCH   5  14
TORSDOF 3
ENDMDL
MODEL 4
REMARK VINA RESULT:      -4.7      2.094      2.482
REMARK  3 active torsions:
REMARK  status: ('A' for Active; 'I' for Inactive)
REMARK    1  A    between atoms: C_1  and  C_6 
REMARK    2  A    between atoms: C_5  and  C_11 
REMARK    3  A    between atoms: C_11  and  O_13 
ROOT
HETATM    1  C   UNK     1      65.128   7.872   5.617  1.00  0.00     0.086 A 
HETATM    2  N   UNK     1      64.987   7.426   6.854  1.00  0.00    -0.351 N 
ATOM      3  HN  UNK     1      64.121   7.469   7.392  1.00  0.00     0.166 HD
HETATM    4  S   UNK     1      66.690   7.598   4.933  1.00  0.00    -0.081 SA
HETATM    5  C   UNK     1      66.185   6.888   7.318  1.00  0.00     0.040 A 
HETATM    6  C   UNK     1      67.212   6.887   6.396  1.00  0.00     0.079 A 
ENDROOT
BRANCH   1   7
HETATM    7  C   UNK     1      64.061   8.515   4.836  1.00  0.00     0.013 A 
HETATM    8  C   UNK     1      63.433   9.696   5.228  1.00  0.00     0.101 A 
HETATM    9  N   UNK     1      62.448  10.319   4.531  1.00  0.00    -0.374 N 
HETATM   10  C   UNK     1      62.057   9.734   3.380  1.00  0.00     0.087 A 
ATOM     11  HN  UNK     1      62.024  11.186   4.862  1.00  0.00     0.164 HD
HETATM   12  C   UNK     1      62.603   8.555   2.899  1.00  0.00     0.018 A 
HETATM   13  C   UNK     1      63.612   7.941   3.641  1.00  0.00     0.017 A 
ENDBRANCH   1   7
BRANCH   5  14
HETATM   14  C   UNK     1      66.246   6.364   8.716  1.00  0.00     0.221 C 
BRANCH  14  15
HETATM   15  O   UNK     1      66.154   4.944   8.747  1.00  0.00    -0.395 OA
HETATM   16  H   UNK     1      65.987   4.611   7.851  1.00  0.00     0.209 HD
ENDBRANCH  14  15
ENDBRANCH   5  14
TORSDOF 3
ENDMDL
MODEL 5
REMARK VINA RESULT:      -4.3      9.262     11.407
REMARK  3 active torsions:
REMARK  status: ('A' for Active; 'I' for Inactive)
REMARK    1  A    between atoms: C_1  and  C_6 
REMARK    2  A    between atoms: C_5  and  C_11 
REMARK    3  A    between atoms: C_11  and  O_13 
ROOT
HETATM    1  C   UNK     1      58.173   2.910  10.684  1.00  0.00     0.086 A 
HETATM    2  N   UNK     1      58.607   4.138  10.456  1.00  0.00    -0.351 N 
ATOM      3  HN  UNK     1      58.984   4.763  11.169  1.00  0.00     0.166 HD
HETATM    4  S   UNK     1      57.658   2.062   9.271  1.00  0.00    -0.081 SA
HETATM    5  C   UNK     1      58.478   4.459   9.107  1.00  0.00     0.040 A 
HETATM    6  C   UNK     1      57.992   3.437   8.316  1.00  0.00     0.079 A 
ENDROOT
BRANCH   1   7
HETATM    7  C   UNK     1      58.153   2.264  12.005  1.00  0.00     0.013 A 
HETATM    8  C   UNK     1      57.034   2.264  12.838  1.00  0.00     0.101 A 
HETATM    9  N   UNK     1      56.979   1.677  14.061  1.00  0.00    -0.374 N 
HETATM   10  C   UNK     1      58.099   1.057  14.488  1.00  0.00     0.087 A 
ATOM     11  HN  UNK     1      56.132   1.702  14.629  1.00  0.00     0.164 HD
HETATM   12  C   UNK     1      59.270   1.004  13.750  1.00  0.00     0.018 A 
HETATM   13  C   UNK     1      59.293   1.620  12.498  1.00  0.00     0.017 A 
ENDBRANCH   1   7
BRANCH   5  14
HETATM   14  C   UNK     1      58.876   5.824   8.649  1.00  0.00     0.221 C 
BRANCH  14  15
HETATM   15  O   UNK     1      58.634   6.804   9.653  1.00  0.00    -0.395 OA
HETATM   16  H   UNK     1      59.480   7.115  10.012  1.00  0.00     0.209 HD
ENDBRANCH  14  15
ENDBRANCH   5  14
TORSDOF 3
ENDMDL
MODEL 6
REMARK VINA RESULT:      -4.2      2.913      5.522
REMARK  3 active torsions:
REMARK  status: ('A' for Active; 'I' for Inactive)
REMARK    1  A    between atoms: C_1  and  C_6 
REMARK    2  A    between atoms: C_5  and  C_11 
REMARK    3  A    between atoms: C_11  and  O_13 
ROOT
HETATM    1  C   UNK     1      63.473   8.915   4.490  1.00  0.00     0.086 A 
HETATM    2  N   UNK     1      63.088   8.525   3.287  1.00  0.00    -0.351 N 
ATOM      3  HN  UNK     1      63.370   7.652   2.841  1.00  0.00     0.166 HD
HETATM    4  S   UNK     1      62.777  10.406   5.014  1.00  0.00    -0.081 SA
HETATM    5  C   UNK     1      62.243   9.473   2.714  1.00  0.00     0.040 A 
HETATM    6  C   UNK     1      61.956  10.553   3.524  1.00  0.00     0.079 A 
ENDROOT
BRANCH   1   7
HETATM    7  C   UNK     1      64.382   8.156   5.362  1.00  0.00     0.013 A 
HETATM    8  C   UNK     1      65.738   8.454   5.497  1.00  0.00     0.101 A 
HETATM    9  N   UNK     1      66.605   7.777   6.293  1.00  0.00    -0.374 N 
HETATM   10  C   UNK     1      66.101   6.740   6.993  1.00  0.00     0.087 A 
ATOM     11  HN  UNK     1      67.588   8.040   6.358  1.00  0.00     0.164 HD
HETATM   12  C   UNK     1      64.774   6.348   6.929  1.00  0.00     0.018 A 
HETATM   13  C   UNK     1      63.911   7.064   6.099  1.00  0.00     0.017 A 
ENDBRANCH   1   7
BRANCH   5  14
HETATM   14  C   UNK     1      61.728   9.238   1.332  1.00  0.00     0.221 C 
BRANCH  14  15
HETATM   15  O   UNK     1      60.330   8.968   1.333  1.00  0.00    -0.395 OA
HETATM   16  H   UNK     1      59.840   9.805   1.323  1.00  0.00     0.209 HD
ENDBRANCH  14  15
ENDBRANCH   5  14
TORSDOF 3
ENDMDL
MODEL 7
REMARK VINA RESULT:      -4.1      2.805      4.549
REMARK  3 active torsions:
REMARK  status: ('A' for Active; 'I' for Inactive)
REMARK    1  A    between atoms: C_1  and  C_6 
REMARK    2  A    between atoms: C_5  and  C_11 
REMARK    3  A    between atoms: C_11  and  O_13 
ROOT
HETATM    1  C   UNK     1      63.533   8.095   3.824  1.00  0.00     0.086 A 
HETATM    2  N   UNK     1      63.869   9.062   4.661  1.00  0.00    -0.351 N 
ATOM      3  HN  UNK     1      64.763   9.125   5.148  1.00  0.00     0.166 HD
HETATM    4  S   UNK     1      61.981   8.291   3.093  1.00  0.00    -0.081 SA
HETATM    5  C   UNK     1      62.831   9.983   4.784  1.00  0.00     0.040 A 
HETATM    6  C   UNK     1      61.734   9.724   3.988  1.00  0.00     0.079 A 
ENDROOT
BRANCH   1   7
HETATM    7  C   UNK     1      64.392   6.952   3.482  1.00  0.00     0.013 A 
HETATM    8  C   UNK     1      65.594   6.677   4.134  1.00  0.00     0.101 A 
HETATM    9  N   UNK     1      66.410   5.631   3.846  1.00  0.00    -0.374 N 
HETATM   10  C   UNK     1      66.017   4.811   2.849  1.00  0.00     0.087 A 
ATOM     11  HN  UNK     1      67.278   5.472   4.358  1.00  0.00     0.164 HD
HETATM   12  C   UNK     1      64.849   4.994   2.126  1.00  0.00     0.018 A 
HETATM   13  C   UNK     1      64.035   6.080   2.447  1.00  0.00     0.017 A 
ENDBRANCH   1   7
BRANCH   5  14
HETATM   14  C   UNK     1      62.997  11.135   5.720  1.00  0.00     0.221 C 
BRANCH  14  15
HETATM   15  O   UNK     1      64.329  11.219   6.216  1.00  0.00    -0.395 OA
HETATM   16  H   UNK     1      64.771  11.990   5.827  1.00  0.00     0.209 HD
ENDBRANCH  14  15
ENDBRANCH   5  14
TORSDOF 3
ENDMDL
MODEL 8
REMARK VINA RESULT:      -4.0      4.122      5.252
REMARK  3 active torsions:
REMARK  status: ('A' for Active; 'I' for Inactive)
REMARK    1  A    between atoms: C_1  and  C_6 
REMARK    2  A    between atoms: C_5  and  C_11 
REMARK    3  A    between atoms: C_11  and  O_13 
ROOT
HETATM    1  C   UNK     1      61.528   5.872   6.592  1.00  0.00     0.086 A 
HETATM    2  N   UNK     1      60.414   6.211   7.220  1.00  0.00    -0.351 N 
ATOM      3  HN  UNK     1      60.068   7.166   7.313  1.00  0.00     0.166 HD
HETATM    4  S   UNK     1      61.823   4.171   6.533  1.00  0.00    -0.081 SA
HETATM    5  C   UNK     1      59.781   5.083   7.735  1.00  0.00     0.040 A 
HETATM    6  C   UNK     1      60.405   3.887   7.440  1.00  0.00     0.079 A 
ENDROOT
BRANCH   1   7
HETATM    7  C   UNK     1      62.445   6.823   5.948  1.00  0.00     0.013 A 
HETATM    8  C   UNK     1      63.728   7.091   6.426  1.00  0.00     0.101 A 
HETATM    9  N   UNK     1      64.601   7.960   5.855  1.00  0.00    -0.374 N 
HETATM   10  C   UNK     1      64.179   8.606   4.749  1.00  0.00     0.087 A 
ATOM     11  HN  UNK     1      65.532   8.115   6.244  1.00  0.00     0.164 HD
HETATM   12  C   UNK     1      62.922   8.427   4.193  1.00  0.00     0.018 A 
HETATM   13  C   UNK     1      62.049   7.528   4.806  1.00  0.00     0.017 A 
ENDBRANCH   1   7
BRANCH   5  14
HETATM   14  C   UNK     1      58.522   5.257   8.519  1.00  0.00     0.221 C 
BRANCH  14  15
HETATM   15  O   UNK     1      58.762   5.178   9.920  1.00  0.00    -0.395 OA
HETATM   16  H   UNK     1      58.638   4.263  10.218  1.00  0.00     0.209 HD
ENDBRANCH  14  15
ENDBRANCH   5  14
TORSDOF 3
ENDMDL
MODEL 9
REMARK VINA RESULT:      -3.9      2.675      3.088
REMARK  3 active torsions:
REMARK  status: ('A' for Active; 'I' for Inactive)
REMARK    1  A    between atoms: C_1  and  C_6 
REMARK    2  A    between atoms: C_5  and  C_11 
REMARK    3  A    between atoms: C_11  and  O_13 
ROOT
HETATM    1  C   UNK     1      62.351   7.835   4.672  1.00  0.00     0.086 A 
HETATM    2  N   UNK     1      61.439   6.923   4.964  1.00  0.00    -0.351 N 
ATOM      3  HN  UNK     1      60.519   6.861   4.529  1.00  0.00     0.166 HD
HETATM    4  S   UNK     1      63.844   7.647   5.518  1.00  0.00    -0.081 SA
HETATM    5  C   UNK     1      61.911   6.058   5.949  1.00  0.00     0.040 A 
HETATM    6  C   UNK     1      63.209   6.299   6.353  1.00  0.00     0.079 A 
ENDROOT
BRANCH   1   7
HETATM    7  C   UNK     1      62.169   8.911   3.687  1.00  0.00     0.013 A 
HETATM    8  C   UNK     1      61.947  10.241   4.040  1.00  0.00     0.101 A 
HETATM    9  N   UNK     1      61.777  11.259   3.159  1.00  0.00    -0.374 N 
HETATM   10  C   UNK     1      61.824  10.941   1.848  1.00  0.00     0.087 A 
ATOM     11  HN  UNK     1      61.622  12.218   3.471  1.00  0.00     0.164 HD
HETATM   12  C   UNK     1      62.027   9.652   1.383  1.00  0.00     0.018 A 
HETATM   13  C   UNK     1      62.196   8.630   2.316  1.00  0.00     0.017 A 
ENDBRANCH   1   7
BRANCH   5  14
HETATM   14  C   UNK     1      61.012   4.976   6.450  1.00  0.00     0.221 C 
BRANCH  14  15
HETATM   15  O   UNK     1      61.525   3.684   6.141  1.00  0.00    -0.395 OA
HETATM   16  H   UNK     1      60.984   3.008   6.578  1.00  0.00     0.209 HD
ENDBRANCH  14  15
ENDBRANCH   5  14
TORSDOF 3
ENDMDL
