MODEL 1
REMARK VINA RESULT:      -4.7      0.000      0.000
REMARK  2 active torsions:
REMARK  status: ('A' for Active; 'I' for Inactive)
REMARK    1  A    between atoms: C_2  and  C_4 
REMARK    2  A    between atoms: C_3  and  C_7 
ROOT
HETATM    1  S   UNL     1      63.414   9.690   5.082  1.00  0.00    -0.082 SA
HETATM    2  C   UNL     1      63.963   8.081   4.838  1.00  0.00     0.023 A 
HETATM    3  C   UNL     1      62.623   9.746   3.568  1.00  0.00     0.082 A 
HETATM    4  C   UNL     1      62.746   8.545   2.897  1.00  0.00     0.027 A 
HETATM    5  C   UNL     1      63.513   7.591   3.626  1.00  0.00     0.022 A 
ENDROOT
BRANCH   2   6
HETATM    6  C   UNL     1      64.798   7.410   5.809  1.00  0.00     0.021 A 
HETATM    7  S   UNL     1      66.379   7.981   6.176  1.00  0.00    -0.101 SA
HETATM    8  C   UNL     1      66.624   6.772   7.356  1.00  0.00     0.050 A 
HETATM    9  C   UNL     1      65.543   5.929   7.462  1.00  0.00     0.008 A 
HETATM   10  C   UNL     1      64.494   6.293   6.569  1.00  0.00     0.021 A 
ENDBRANCH   2   6
BRANCH   3  11
HETATM   11  C   UNL     1      61.952  10.957   3.159  1.00  0.00     0.216 C 
HETATM   12  O   UNL     1      61.585  11.293   2.043  1.00  0.00    -0.643 OA
HETATM   13  O   UNL     1      61.731  11.778   4.212  1.00  0.00    -0.643 OA
ENDBRANCH   3  11
TORSDOF 2
ENDMDL
MODEL 2
REMARK VINA RESULT:      -4.6      3.223      5.720
REMARK  2 active torsions:
REMARK  status: ('A' for Active; 'I' for Inactive)
REMARK    1  A    between atoms: C_2  and  C_4 
REMARK    2  A    between atoms: C_3  and  C_7 
ROOT
HETATM    1  S   UNL     1      64.693   8.328   5.185  1.00  0.00    -0.082 SA
HETATM    2  C   UNL     1      63.078   8.234   4.608  1.00  0.00     0.023 A 
HETATM    3  C   UNL     1      64.451   7.086   6.334  1.00  0.00     0.082 A 
HETATM    4  C   UNL     1      63.168   6.581   6.259  1.00  0.00     0.027 A 
HETATM    5  C   UNL     1      62.382   7.238   5.269  1.00  0.00     0.022 A 
ENDROOT
BRANCH   2   6
HETATM    6  C   UNL     1      62.587   9.126   3.583  1.00  0.00     0.021 A 
HETATM    7  S   UNL     1      62.141  10.748   3.947  1.00  0.00    -0.101 SA
HETATM    8  C   UNL     1      61.771  11.093   2.316  1.00  0.00     0.050 A 
HETATM    9  C   UNL     1      61.953   9.998   1.504  1.00  0.00     0.008 A 
HETATM   10  C   UNL     1      62.419   8.865   2.233  1.00  0.00     0.021 A 
ENDBRANCH   2   6
BRANCH   3  11
HETATM   11  C   UNL     1      65.531   6.709   7.215  1.00  0.00     0.216 C 
HETATM   12  O   UNL     1      65.708   5.656   7.808  1.00  0.00    -0.643 OA
HETATM   13  O   UNL     1      66.432   7.710   7.346  1.00  0.00    -0.643 OA
ENDBRANCH   3  11
TORSDOF 2
ENDMDL
MODEL 3
REMARK VINA RESULT:      -4.5      3.876      5.973
REMARK  2 active torsions:
REMARK  status: ('A' for Active; 'I' for Inactive)
REMARK    1  A    between atoms: C_2  and  C_4 
REMARK    2  A    between atoms: C_3  and  C_7 
ROOT
HETATM    1  S   UNL     1      64.126   6.837   6.547  1.00  0.00    -0.082 SA
HETATM    2  C   UNL     1      64.592   8.028   5.402  1.00  0.00     0.023 A 
HETATM    3  C   UNL     1      65.734   6.573   7.063  1.00  0.00     0.082 A 
HETATM    4  C   UNL     1      66.613   7.404   6.397  1.00  0.00     0.027 A 
HETATM    5  C   UNL     1      65.958   8.239   5.446  1.00  0.00     0.022 A 
ENDROOT
BRANCH   2   6
HETATM    6  C   UNL     1      63.626   8.662   4.532  1.00  0.00     0.021 A 
HETATM    7  S   UNL     1      62.881  10.153   4.959  1.00  0.00    -0.101 SA
HETATM    8  C   UNL     1      62.011  10.226   3.493  1.00  0.00     0.050 A 
HETATM    9  C   UNL     1      62.252   9.132   2.696  1.00  0.00     0.008 A 
HETATM   10  C   UNL     1      63.178   8.230   3.296  1.00  0.00     0.021 A 
ENDBRANCH   2   6
BRANCH   3  11
HETATM   11  C   UNL     1      66.005   5.577   8.071  1.00  0.00     0.216 C 
HETATM   12  O   UNL     1      65.823   4.370   8.028  1.00  0.00    -0.643 OA
HETATM   13  O   UNL     1      66.537   6.134   9.184  1.00  0.00    -0.643 OA
ENDBRANCH   3  11
TORSDOF 2
ENDMDL
MODEL 4
REMARK VINA RESULT:      -4.4      2.540      2.968
REMARK  2 active torsions:
REMARK  status: ('A' for Active; 'I' for Inactive)
REMARK    1  A    between atoms: C_2  and  C_4 
REMARK    2  A    between atoms: C_3  and  C_7 
ROOT
HETATM    1  S   UNL     1      64.434   8.686   5.093  1.00  0.00    -0.082 SA
HETATM    2  C   UNL     1      64.206   7.536   3.838  1.00  0.00     0.023 A 
HETATM    3  C   UNL     1      63.119   9.647   4.575  1.00  0.00     0.082 A 
HETATM    4  C   UNL     1      62.491   9.085   3.481  1.00  0.00     0.027 A 
HETATM    5  C   UNL     1      63.114   7.874   3.059  1.00  0.00     0.022 A 
ENDROOT
BRANCH   2   6
HETATM    6  C   UNL     1      65.094   6.407   3.674  1.00  0.00     0.021 A 
HETATM    7  S   UNL     1      64.503   4.869   3.177  1.00  0.00    -0.101 SA
HETATM    8  C   UNL     1      66.067   4.185   3.170  1.00  0.00     0.050 A 
HETATM    9  C   UNL     1      67.026   5.090   3.560  1.00  0.00     0.008 A 
HETATM   10  C   UNL     1      66.466   6.367   3.855  1.00  0.00     0.021 A 
ENDBRANCH   2   6
BRANCH   3  11
HETATM   11  C   UNL     1      62.810  10.870   5.276  1.00  0.00     0.216 C 
HETATM   12  O   UNL     1      63.164  11.229   6.389  1.00  0.00    -0.643 OA
HETATM   13  O   UNL     1      62.021  11.680   4.531  1.00  0.00    -0.643 OA
ENDBRANCH   3  11
TORSDOF 2
ENDMDL
MODEL 5
REMARK VINA RESULT:      -4.4      3.364      5.824
REMARK  2 active torsions:
REMARK  status: ('A' for Active; 'I' for Inactive)
REMARK    1  A    between atoms: C_2  and  C_4 
REMARK    2  A    between atoms: C_3  and  C_7 
ROOT
HETATM    1  S   UNL     1      63.394   7.552   3.658  1.00  0.00    -0.082 SA
HETATM    2  C   UNL     1      62.061   8.609   3.421  1.00  0.00     0.023 A 
HETATM    3  C   UNL     1      64.155   8.612   4.761  1.00  0.00     0.082 A 
HETATM    4  C   UNL     1      63.390   9.742   4.974  1.00  0.00     0.027 A 
HETATM    5  C   UNL     1      62.190   9.739   4.207  1.00  0.00     0.022 A 
ENDROOT
BRANCH   2   6
HETATM    6  C   UNL     1      61.000   8.293   2.491  1.00  0.00     0.021 A 
HETATM    7  S   UNL     1      59.616   7.397   2.983  1.00  0.00    -0.101 SA
HETATM    8  C   UNL     1      58.896   7.515   1.440  1.00  0.00     0.050 A 
HETATM    9  C   UNL     1      59.692   8.198   0.551  1.00  0.00     0.008 A 
HETATM   10  C   UNL     1      60.905   8.642   1.154  1.00  0.00     0.021 A 
ENDBRANCH   2   6
BRANCH   3  11
HETATM   11  C   UNL     1      65.435   8.256   5.325  1.00  0.00     0.216 C 
HETATM   12  O   UNL     1      66.168   7.321   5.039  1.00  0.00    -0.643 OA
HETATM   13  O   UNL     1      65.808   9.127   6.291  1.00  0.00    -0.643 OA
ENDBRANCH   3  11
TORSDOF 2
ENDMDL
MODEL 6
REMARK VINA RESULT:      -4.1      2.001      2.425
REMARK  2 active torsions:
REMARK  status: ('A' for Active; 'I' for Inactive)
REMARK    1  A    between atoms: C_2  and  C_4 
REMARK    2  A    between atoms: C_3  and  C_7 
ROOT
HETATM    1  S   UNL     1      63.375   7.630   3.164  1.00  0.00    -0.082 SA
HETATM    2  C   UNL     1      63.773   8.408   4.643  1.00  0.00     0.023 A 
HETATM    3  C   UNL     1      62.289   8.867   2.702  1.00  0.00     0.082 A 
HETATM    4  C   UNL     1      62.253   9.876   3.644  1.00  0.00     0.027 A 
HETATM    5  C   UNL     1      63.105   9.613   4.756  1.00  0.00     0.022 A 
ENDROOT
BRANCH   2   6
HETATM    6  C   UNL     1      64.678   7.805   5.596  1.00  0.00     0.021 A 
HETATM    7  S   UNL     1      64.235   6.400   6.485  1.00  0.00    -0.101 SA
HETATM    8  C   UNL     1      65.755   6.317   7.258  1.00  0.00     0.050 A 
HETATM    9  C   UNL     1      66.584   7.345   6.876  1.00  0.00     0.008 A 
HETATM   10  C   UNL     1      65.963   8.204   5.923  1.00  0.00     0.021 A 
ENDBRANCH   2   6
BRANCH   3  11
HETATM   11  C   UNL     1      61.560   8.748   1.462  1.00  0.00     0.216 C 
HETATM   12  O   UNL     1      60.382   8.480   1.285  1.00  0.00    -0.643 OA
HETATM   13  O   UNL     1      62.359   8.988   0.396  1.00  0.00    -0.643 OA
ENDBRANCH   3  11
TORSDOF 2
ENDMDL
MODEL 7
REMARK VINA RESULT:      -3.9      2.243      2.996
REMARK  2 active torsions:
REMARK  status: ('A' for Active; 'I' for Inactive)
REMARK    1  A    between atoms: C_2  and  C_4 
REMARK    2  A    between atoms: C_3  and  C_7 
ROOT
HETATM    1  S   UNL     1      63.888   6.626   6.165  1.00  0.00    -0.082 SA
HETATM    2  C   UNL     1      65.536   7.079   6.339  1.00  0.00     0.023 A 
HETATM    3  C   UNL     1      63.581   7.847   5.008  1.00  0.00     0.082 A 
HETATM    4  C   UNL     1      64.725   8.570   4.732  1.00  0.00     0.027 A 
HETATM    5  C   UNL     1      65.845   8.128   5.494  1.00  0.00     0.022 A 
ENDROOT
BRANCH   2   6
HETATM    6  C   UNL     1      66.408   6.414   7.280  1.00  0.00     0.021 A 
HETATM    7  S   UNL     1      67.350   5.050   6.817  1.00  0.00    -0.101 SA
HETATM    8  C   UNL     1      68.075   4.932   8.359  1.00  0.00     0.050 A 
HETATM    9  C   UNL     1      67.601   5.887   9.226  1.00  0.00     0.008 A 
HETATM   10  C   UNL     1      66.638   6.737   8.607  1.00  0.00     0.021 A 
ENDBRANCH   2   6
BRANCH   3  11
HETATM   11  C   UNL     1      62.251   8.001   4.470  1.00  0.00     0.216 C 
HETATM   12  O   UNL     1      61.432   7.141   4.186  1.00  0.00    -0.643 OA
HETATM   13  O   UNL     1      61.941   9.306   4.288  1.00  0.00    -0.643 OA
ENDBRANCH   3  11
TORSDOF 2
ENDMDL
MODEL 8
REMARK VINA RESULT:      -3.9      4.000      6.060
REMARK  2 active torsions:
REMARK  status: ('A' for Active; 'I' for Inactive)
REMARK    1  A    between atoms: C_2  and  C_4 
REMARK    2  A    between atoms: C_3  and  C_7 
ROOT
HETATM    1  S   UNL     1      65.154   6.301   4.451  1.00  0.00    -0.082 SA
HETATM    2  C   UNL     1      64.826   7.937   4.856  1.00  0.00     0.023 A 
HETATM    3  C   UNL     1      66.576   6.257   5.400  1.00  0.00     0.082 A 
HETATM    4  C   UNL     1      66.782   7.460   6.045  1.00  0.00     0.027 A 
HETATM    5  C   UNL     1      65.778   8.423   5.733  1.00  0.00     0.022 A 
ENDROOT
BRANCH   2   6
HETATM    6  C   UNL     1      63.697   8.644   4.294  1.00  0.00     0.021 A 
HETATM    7  S   UNL     1      63.019  10.016   5.082  1.00  0.00    -0.101 SA
HETATM    8  C   UNL     1      61.878  10.263   3.836  1.00  0.00     0.050 A 
HETATM    9  C   UNL     1      61.982   9.313   2.847  1.00  0.00     0.008 A 
HETATM   10  C   UNL     1      63.025   8.379   3.113  1.00  0.00     0.021 A 
ENDBRANCH   2   6
BRANCH   3  11
HETATM   11  C   UNL     1      67.373   5.054   5.435  1.00  0.00     0.216 C 
HETATM   12  O   UNL     1      67.915   4.518   6.389  1.00  0.00    -0.643 OA
HETATM   13  O   UNL     1      67.483   4.500   4.205  1.00  0.00    -0.643 OA
ENDBRANCH   3  11
TORSDOF 2
ENDMDL
MODEL 9
REMARK VINA RESULT:      -3.8      2.345      2.571
REMARK  2 active torsions:
REMARK  status: ('A' for Active; 'I' for Inactive)
REMARK    1  A    between atoms: C_2  and  C_4 
REMARK    2  A    between atoms: C_3  and  C_7 
ROOT
HETATM    1  S   UNL     1      63.653   7.398   3.397  1.00  0.00    -0.082 SA
HETATM    2  C   UNL     1      64.960   7.351   4.511  1.00  0.00     0.023 A 
HETATM    3  C   UNL     1      63.074   8.889   4.001  1.00  0.00     0.082 A 
HETATM    4  C   UNL     1      63.883   9.364   5.015  1.00  0.00     0.027 A 
HETATM    5  C   UNL     1      64.964   8.482   5.306  1.00  0.00     0.022 A 
ENDROOT
BRANCH   2   6
HETATM    6  C   UNL     1      65.874   6.232   4.559  1.00  0.00     0.021 A 
HETATM    7  S   UNL     1      66.182   5.391   6.028  1.00  0.00    -0.101 SA
HETATM    8  C   UNL     1      67.225   4.278   5.261  1.00  0.00     0.050 A 
HETATM    9  C   UNL     1      67.365   4.544   3.920  1.00  0.00     0.008 A 
HETATM   10  C   UNL     1      66.592   5.672   3.516  1.00  0.00     0.021 A 
ENDBRANCH   2   6
BRANCH   3  11
HETATM   11  C   UNL     1      61.879   9.470   3.438  1.00  0.00     0.216 C 
HETATM   12  O   UNL     1      61.172   9.051   2.534  1.00  0.00    -0.643 OA
HETATM   13  O   UNL     1      61.560  10.633   4.052  1.00  0.00    -0.643 OA
ENDBRANCH   3  11
TORSDOF 2
ENDMDL
