MODEL 1
REMARK VINA RESULT:      -5.3      0.000      0.000
REMARK  3 active torsions:
REMARK  status: ('A' for Active; 'I' for Inactive)
REMARK    1  A    between atoms: C_1  and  C_6 
REMARK    2  A    between atoms: C_3  and  C_7 
REMARK    3  A    between atoms: C_7  and  O_9 
ROOT
HETATM    1  C   UNL     1      64.251   8.269   5.249  1.00  0.00     0.086 A 
HETATM    2  O   UNL     1      65.590   8.411   5.021  1.00  0.00    -0.314 OA
HETATM    3  C   UNL     1      65.343   6.781   6.556  1.00  0.00    -0.003 A 
HETATM    4  C   UNL     1      64.056   7.265   6.175  1.00  0.00     0.050 A 
HETATM    5  C   UNL     1      66.245   7.522   5.815  1.00  0.00     0.058 A 
HETATM    6  C   UNL     1      67.720   7.554   5.729  1.00  0.00     0.077 C 
ENDROOT
BRANCH   1   7
HETATM    7  C   UNL     1      63.367   9.183   4.530  1.00  0.00    -0.002 A 
HETATM    8  C   UNL     1      62.876   8.865   3.255  1.00  0.00     0.014 A 
HETATM    9  C   UNL     1      62.065   9.761   2.553  1.00  0.00     0.001 A 
HETATM   10  C   UNL     1      61.730  10.986   3.119  1.00  0.00     0.000 A 
HETATM   11  C   UNL     1      62.199  11.316   4.387  1.00  0.00     0.001 A 
HETATM   12  C   UNL     1      63.010  10.419   5.089  1.00  0.00     0.014 A 
ENDBRANCH   1   7
BRANCH   3  13
HETATM   13  C   UNL     1      65.638   5.724   7.555  1.00  0.00     0.205 C 
BRANCH  13  14
HETATM   14  O   UNL     1      66.223   6.262   8.734  1.00  0.00    -0.396 OA
HETATM   15  H   UNL     1      67.188   6.169   8.688  1.00  0.00     0.209 HD
ENDBRANCH  13  14
ENDBRANCH   3  13
TORSDOF 3
ENDMDL
MODEL 2
REMARK VINA RESULT:      -5.0      1.166      1.715
REMARK  3 active torsions:
REMARK  status: ('A' for Active; 'I' for Inactive)
REMARK    1  A    between atoms: C_1  and  C_6 
REMARK    2  A    between atoms: C_3  and  C_7 
REMARK    3  A    between atoms: C_7  and  O_9 
ROOT
HETATM    1  C   UNL     1      64.104   8.194   5.163  1.00  0.00     0.086 A 
HETATM    2  O   UNL     1      63.569   6.977   5.471  1.00  0.00    -0.314 OA
HETATM    3  C   UNL     1      65.663   7.014   6.298  1.00  0.00    -0.003 A 
HETATM    4  C   UNL     1      65.387   8.264   5.668  1.00  0.00     0.050 A 
HETATM    5  C   UNL     1      64.511   6.265   6.145  1.00  0.00     0.058 A 
HETATM    6  C   UNL     1      64.120   4.894   6.535  1.00  0.00     0.077 C 
ENDROOT
BRANCH   1   7
HETATM    7  C   UNL     1      63.265   9.096   4.378  1.00  0.00    -0.002 A 
HETATM    8  C   UNL     1      62.847   8.756   3.082  1.00  0.00     0.014 A 
HETATM    9  C   UNL     1      62.080   9.640   2.319  1.00  0.00     0.001 A 
HETATM   10  C   UNL     1      61.715  10.875   2.843  1.00  0.00     0.000 A 
HETATM   11  C   UNL     1      62.110  11.227   4.130  1.00  0.00     0.001 A 
HETATM   12  C   UNL     1      62.878  10.343   4.893  1.00  0.00     0.014 A 
ENDBRANCH   1   7
BRANCH   3  13
HETATM   13  C   UNL     1      66.932   6.608   6.953  1.00  0.00     0.205 C 
BRANCH  13  14
HETATM   14  O   UNL     1      67.256   7.456   8.047  1.00  0.00    -0.396 OA
HETATM   15  H   UNL     1      68.218   7.472   8.169  1.00  0.00     0.209 HD
ENDBRANCH  13  14
ENDBRANCH   3  13
TORSDOF 3
ENDMDL
MODEL 3
REMARK VINA RESULT:      -5.0      1.849      5.626
REMARK  3 active torsions:
REMARK  status: ('A' for Active; 'I' for Inactive)
REMARK    1  A    between atoms: C_1  and  C_6 
REMARK    2  A    between atoms: C_3  and  C_7 
REMARK    3  A    between atoms: C_7  and  O_9 
ROOT
HETATM    1  C   UNL     1      64.419   8.303   4.778  1.00  0.00     0.086 A 
HETATM    2  O   UNL     1      63.953   7.725   3.633  1.00  0.00    -0.314 OA
HETATM    3  C   UNL     1      62.778   9.620   3.950  1.00  0.00    -0.003 A 
HETATM    4  C   UNL     1      63.733   9.480   5.001  1.00  0.00     0.050 A 
HETATM    5  C   UNL     1      62.960   8.513   3.141  1.00  0.00     0.058 A 
HETATM    6  C   UNL     1      62.305   8.024   1.910  1.00  0.00     0.077 C 
ENDROOT
BRANCH   1   7
HETATM    7  C   UNL     1      65.459   7.575   5.500  1.00  0.00    -0.002 A 
HETATM    8  C   UNL     1      65.165   6.856   6.669  1.00  0.00     0.014 A 
HETATM    9  C   UNL     1      66.171   6.196   7.380  1.00  0.00     0.001 A 
HETATM   10  C   UNL     1      67.485   6.241   6.929  1.00  0.00     0.000 A 
HETATM   11  C   UNL     1      67.797   6.940   5.766  1.00  0.00     0.001 A 
HETATM   12  C   UNL     1      66.790   7.600   5.055  1.00  0.00     0.014 A 
ENDBRANCH   1   7
BRANCH   3  13
HETATM   13  C   UNL     1      61.787  10.713   3.786  1.00  0.00     0.205 C 
BRANCH  13  14
HETATM   14  O   UNL     1      62.213  11.909   4.425  1.00  0.00    -0.396 OA
HETATM   15  H   UNL     1      61.531  12.201   5.051  1.00  0.00     0.209 HD
ENDBRANCH  13  14
ENDBRANCH   3  13
TORSDOF 3
ENDMDL
MODEL 4
REMARK VINA RESULT:      -5.0      1.491      1.737
REMARK  3 active torsions:
REMARK  status: ('A' for Active; 'I' for Inactive)
REMARK    1  A    between atoms: C_1  and  C_6 
REMARK    2  A    between atoms: C_3  and  C_7 
REMARK    3  A    between atoms: C_7  and  O_9 
ROOT
HETATM    1  C   UNL     1      64.847   7.940   4.982  1.00  0.00     0.086 A 
HETATM    2  O   UNL     1      65.184   8.015   6.304  1.00  0.00    -0.314 OA
HETATM    3  C   UNL     1      66.430   6.378   5.388  1.00  0.00    -0.003 A 
HETATM    4  C   UNL     1      65.603   6.955   4.380  1.00  0.00     0.050 A 
HETATM    5  C   UNL     1      66.129   7.068   6.547  1.00  0.00     0.058 A 
HETATM    6  C   UNL     1      66.595   6.976   7.947  1.00  0.00     0.077 C 
ENDROOT
BRANCH   1   7
HETATM    7  C   UNL     1      63.793   8.842   4.526  1.00  0.00    -0.002 A 
HETATM    8  C   UNL     1      63.075   8.584   3.348  1.00  0.00     0.014 A 
HETATM    9  C   UNL     1      62.097   9.471   2.892  1.00  0.00     0.001 A 
HETATM   10  C   UNL     1      61.819  10.629   3.611  1.00  0.00     0.000 A 
HETATM   11  C   UNL     1      62.513  10.899   4.787  1.00  0.00     0.001 A 
HETATM   12  C   UNL     1      63.492  10.010   5.243  1.00  0.00     0.014 A 
ENDBRANCH   1   7
BRANCH   3  13
HETATM   13  C   UNL     1      67.388   5.256   5.221  1.00  0.00     0.205 C 
BRANCH  13  14
HETATM   14  O   UNL     1      66.939   4.077   5.877  1.00  0.00    -0.396 OA
HETATM   15  H   UNL     1      65.992   4.158   6.074  1.00  0.00     0.209 HD
ENDBRANCH  13  14
ENDBRANCH   3  13
TORSDOF 3
ENDMDL
MODEL 5
REMARK VINA RESULT:      -4.9      1.933      5.567
REMARK  3 active torsions:
REMARK  status: ('A' for Active; 'I' for Inactive)
REMARK    1  A    between atoms: C_1  and  C_6 
REMARK    2  A    between atoms: C_3  and  C_7 
REMARK    3  A    between atoms: C_7  and  O_9 
ROOT
HETATM    1  C   UNL     1      64.513   8.376   4.846  1.00  0.00     0.086 A 
HETATM    2  O   UNL     1      64.407   9.453   5.679  1.00  0.00    -0.314 OA
HETATM    3  C   UNL     1      62.803   9.660   4.112  1.00  0.00    -0.003 A 
HETATM    4  C   UNL     1      63.533   8.458   3.877  1.00  0.00     0.050 A 
HETATM    5  C   UNL     1      63.385  10.228   5.231  1.00  0.00     0.058 A 
HETATM    6  C   UNL     1      63.141  11.470   5.995  1.00  0.00     0.077 C 
ENDROOT
BRANCH   1   7
HETATM    7  C   UNL     1      65.601   7.441   5.123  1.00  0.00    -0.002 A 
HETATM    8  C   UNL     1      66.150   6.644   4.106  1.00  0.00     0.014 A 
HETATM    9  C   UNL     1      67.161   5.721   4.383  1.00  0.00     0.001 A 
HETATM   10  C   UNL     1      67.642   5.585   5.681  1.00  0.00     0.000 A 
HETATM   11  C   UNL     1      67.118   6.373   6.702  1.00  0.00     0.001 A 
HETATM   12  C   UNL     1      66.106   7.296   6.424  1.00  0.00     0.014 A 
ENDBRANCH   1   7
BRANCH   3  13
HETATM   13  C   UNL     1      61.676  10.191   3.304  1.00  0.00     0.205 C 
BRANCH  13  14
HETATM   14  O   UNL     1      61.975  11.472   2.762  1.00  0.00    -0.396 OA
HETATM   15  H   UNL     1      61.207  12.056   2.872  1.00  0.00     0.209 HD
ENDBRANCH  13  14
ENDBRANCH   3  13
TORSDOF 3
ENDMDL
MODEL 6
REMARK VINA RESULT:      -4.7      1.869      2.272
REMARK  3 active torsions:
REMARK  status: ('A' for Active; 'I' for Inactive)
REMARK    1  A    between atoms: C_1  and  C_6 
REMARK    2  A    between atoms: C_3  and  C_7 
REMARK    3  A    between atoms: C_7  and  O_9 
ROOT
HETATM    1  C   UNL     1      62.753   7.891   4.524  1.00  0.00     0.086 A 
HETATM    2  O   UNL     1      63.891   8.001   5.270  1.00  0.00    -0.314 OA
HETATM    3  C   UNL     1      62.966   6.004   5.750  1.00  0.00    -0.003 A 
HETATM    4  C   UNL     1      62.162   6.670   4.778  1.00  0.00     0.050 A 
HETATM    5  C   UNL     1      64.012   6.869   6.014  1.00  0.00     0.058 A 
HETATM    6  C   UNL     1      65.179   6.821   6.919  1.00  0.00     0.077 C 
ENDROOT
BRANCH   1   7
HETATM    7  C   UNL     1      62.406   9.040   3.691  1.00  0.00    -0.002 A 
HETATM    8  C   UNL     1      62.283   8.917   2.298  1.00  0.00     0.014 A 
HETATM    9  C   UNL     1      61.993  10.028   1.501  1.00  0.00     0.001 A 
HETATM   10  C   UNL     1      61.818  11.277   2.086  1.00  0.00     0.000 A 
HETATM   11  C   UNL     1      61.926  11.419   3.467  1.00  0.00     0.001 A 
HETATM   12  C   UNL     1      62.216  10.307   4.264  1.00  0.00     0.014 A 
ENDBRANCH   1   7
BRANCH   3  13
HETATM   13  C   UNL     1      62.709   4.676   6.361  1.00  0.00     0.205 C 
BRANCH  13  14
HETATM   14  O   UNL     1      63.655   3.706   5.930  1.00  0.00    -0.396 OA
HETATM   15  H   UNL     1      64.444   4.154   5.587  1.00  0.00     0.209 HD
ENDBRANCH  13  14
ENDBRANCH   3  13
TORSDOF 3
ENDMDL
MODEL 7
REMARK VINA RESULT:      -4.7      2.298      5.859
REMARK  3 active torsions:
REMARK  status: ('A' for Active; 'I' for Inactive)
REMARK    1  A    between atoms: C_1  and  C_6 
REMARK    2  A    between atoms: C_3  and  C_7 
REMARK    3  A    between atoms: C_7  and  O_9 
ROOT
HETATM    1  C   UNL     1      63.128   8.355   3.907  1.00  0.00     0.086 A 
HETATM    2  O   UNL     1      62.916   9.704   3.903  1.00  0.00    -0.314 OA
HETATM    3  C   UNL     1      61.806   8.848   2.140  1.00  0.00    -0.003 A 
HETATM    4  C   UNL     1      62.449   7.789   2.847  1.00  0.00     0.050 A 
HETATM    5  C   UNL     1      62.129   9.999   2.835  1.00  0.00     0.058 A 
HETATM    6  C   UNL     1      61.818  11.431   2.646  1.00  0.00     0.077 C 
ENDROOT
BRANCH   1   7
HETATM    7  C   UNL     1      64.008   7.836   4.951  1.00  0.00    -0.002 A 
HETATM    8  C   UNL     1      65.218   8.475   5.265  1.00  0.00     0.014 A 
HETATM    9  C   UNL     1      66.077   7.952   6.236  1.00  0.00     0.001 A 
HETATM   10  C   UNL     1      65.736   6.785   6.909  1.00  0.00     0.000 A 
HETATM   11  C   UNL     1      64.536   6.141   6.620  1.00  0.00     0.001 A 
HETATM   12  C   UNL     1      63.677   6.665   5.649  1.00  0.00     0.014 A 
ENDBRANCH   1   7
BRANCH   3  13
HETATM   13  C   UNL     1      60.988   8.728   0.907  1.00  0.00     0.205 C 
BRANCH  13  14
HETATM   14  O   UNL     1      59.606   8.578   1.204  1.00  0.00    -0.396 OA
HETATM   15  H   UNL     1      59.130   9.383   0.946  1.00  0.00     0.209 HD
ENDBRANCH  13  14
ENDBRANCH   3  13
TORSDOF 3
ENDMDL
MODEL 8
REMARK VINA RESULT:      -4.3      1.933      2.793
REMARK  3 active torsions:
REMARK  status: ('A' for Active; 'I' for Inactive)
REMARK    1  A    between atoms: C_1  and  C_6 
REMARK    2  A    between atoms: C_3  and  C_7 
REMARK    3  A    between atoms: C_7  and  O_9 
ROOT
HETATM    1  C   UNL     1      63.868   7.557   3.723  1.00  0.00     0.086 A 
HETATM    2  O   UNL     1      64.909   6.791   3.283  1.00  0.00    -0.314 OA
HETATM    3  C   UNL     1      65.376   7.401   5.400  1.00  0.00    -0.003 A 
HETATM    4  C   UNL     1      64.108   7.940   5.027  1.00  0.00     0.050 A 
HETATM    5  C   UNL     1      65.818   6.706   4.290  1.00  0.00     0.058 A 
HETATM    6  C   UNL     1      67.042   5.937   3.982  1.00  0.00     0.077 C 
ENDROOT
BRANCH   1   7
HETATM    7  C   UNL     1      62.801   7.822   2.761  1.00  0.00    -0.002 A 
HETATM    8  C   UNL     1      62.503   9.130   2.348  1.00  0.00     0.014 A 
HETATM    9  C   UNL     1      61.454   9.383   1.460  1.00  0.00     0.001 A 
HETATM   10  C   UNL     1      60.690   8.330   0.969  1.00  0.00     0.000 A 
HETATM   11  C   UNL     1      60.975   7.024   1.358  1.00  0.00     0.001 A 
HETATM   12  C   UNL     1      62.025   6.772   2.246  1.00  0.00     0.014 A 
ENDBRANCH   1   7
BRANCH   3  13
HETATM   13  C   UNL     1      66.072   7.579   6.699  1.00  0.00     0.205 C 
BRANCH  13  14
HETATM   14  O   UNL     1      66.750   8.826   6.767  1.00  0.00    -0.396 OA
HETATM   15  H   UNL     1      67.180   8.914   7.633  1.00  0.00     0.209 HD
ENDBRANCH  13  14
ENDBRANCH   3  13
TORSDOF 3
ENDMDL
MODEL 9
REMARK VINA RESULT:      -4.2      4.254      5.219
REMARK  3 active torsions:
REMARK  status: ('A' for Active; 'I' for Inactive)
REMARK    1  A    between atoms: C_1  and  C_6 
REMARK    2  A    between atoms: C_3  and  C_7 
REMARK    3  A    between atoms: C_7  and  O_9 
ROOT
HETATM    1  C   UNL     1      61.185   5.893   6.523  1.00  0.00     0.086 A 
HETATM    2  O   UNL     1      61.648   4.609   6.558  1.00  0.00    -0.314 OA
HETATM    3  C   UNL     1      59.881   4.720   7.950  1.00  0.00    -0.003 A 
HETATM    4  C   UNL     1      60.089   6.000   7.355  1.00  0.00     0.050 A 
HETATM    5  C   UNL     1      60.868   3.908   7.423  1.00  0.00     0.058 A 
HETATM    6  C   UNL     1      61.243   2.492   7.618  1.00  0.00     0.077 C 
ENDROOT
BRANCH   1   7
HETATM    7  C   UNL     1      61.930   6.833   5.689  1.00  0.00    -0.002 A 
HETATM    8  C   UNL     1      61.433   7.253   4.446  1.00  0.00     0.014 A 
HETATM    9  C   UNL     1      62.169   8.118   3.632  1.00  0.00     0.001 A 
HETATM   10  C   UNL     1      63.411   8.580   4.052  1.00  0.00     0.000 A 
HETATM   11  C   UNL     1      63.918   8.183   5.287  1.00  0.00     0.001 A 
HETATM   12  C   UNL     1      63.181   7.317   6.100  1.00  0.00     0.014 A 
ENDBRANCH   1   7
BRANCH   3  13
HETATM   13  C   UNL     1      58.840   4.358   8.944  1.00  0.00     0.205 C 
BRANCH  13  14
HETATM   14  O   UNL     1      58.676   5.370   9.928  1.00  0.00    -0.396 OA
HETATM   15  H   UNL     1      59.530   5.800  10.095  1.00  0.00     0.209 HD
ENDBRANCH  13  14
ENDBRANCH   3  13
TORSDOF 3
ENDMDL
