MODEL 1
REMARK VINA RESULT:      -4.2      0.000      0.000
REMARK  2 active torsions:
REMARK  status: ('A' for Active; 'I' for Inactive)
REMARK    1  A    between atoms: C_1  and  C_7 
REMARK    2  A    between atoms: C_7  and  N_10 
ROOT
HETATM    1  C   UNL     1      62.385  10.294   4.212  1.00  0.00     0.015 A 
HETATM    2  N   UNL     1      62.453   8.280   3.130  1.00  0.00    -0.303 N 
ATOM      3  HN  UNL     1      62.560   7.287   2.922  1.00  0.00     0.186 HD
HETATM    4  N   UNL     1      62.162   9.272   2.275  1.00  0.00    -0.300 N 
HETATM    5  C   UNL     1      62.092  10.506   2.870  1.00  0.00     0.034 A 
HETATM    6  C   UNL     1      62.572   8.887   4.316  1.00  0.00     0.032 A 
HETATM    7  C   UNL     1      61.972   8.932   0.885  1.00  0.00     0.177 C 
HETATM    8  C   UNL     1      61.759  11.749   2.130  1.00  0.00     0.070 C 
HETATM    9  C   UNL     1      62.858   8.070   5.522  1.00  0.00     0.070 C 
ENDROOT
BRANCH   1  10
HETATM   10  C   UNL     1      62.482  11.305   5.300  1.00  0.00     0.272 C 
BRANCH  10  11
HETATM   11  N   UNL     1      63.778  11.164   5.948  1.00  0.00    -0.075 N 
HETATM   12  H   UNL     1      64.127  10.215   5.809  1.00  0.00     0.274 HD
HETATM   13  H   UNL     1      63.681  11.348   6.947  1.00  0.00     0.274 HD
HETATM   14  H   UNL     1      64.435  11.830   5.542  1.00  0.00     0.274 HD
ENDBRANCH  10  11
ENDBRANCH   1  10
TORSDOF 2
ENDMDL
MODEL 2
REMARK VINA RESULT:      -4.0      1.642      2.698
REMARK  2 active torsions:
REMARK  status: ('A' for Active; 'I' for Inactive)
REMARK    1  A    between atoms: C_1  and  C_7 
REMARK    2  A    between atoms: C_7  and  N_10 
ROOT
HETATM    1  C   UNL     1      63.192   8.978   4.079  1.00  0.00     0.015 A 
HETATM    2  N   UNL     1      61.519  10.159   3.060  1.00  0.00    -0.303 N 
ATOM      3  HN  UNL     1      60.823  10.871   2.837  1.00  0.00     0.186 HD
HETATM    4  N   UNL     1      61.759   9.012   2.408  1.00  0.00    -0.300 N 
HETATM    5  C   UNL     1      62.766   8.265   2.966  1.00  0.00     0.034 A 
HETATM    6  C   UNL     1      62.398  10.160   4.068  1.00  0.00     0.032 A 
HETATM    7  C   UNL     1      60.955   8.712   1.248  1.00  0.00     0.177 C 
HETATM    8  C   UNL     1      63.227   6.971   2.403  1.00  0.00     0.070 C 
HETATM    9  C   UNL     1      62.442  11.323   4.990  1.00  0.00     0.070 C 
ENDROOT
BRANCH   1  10
HETATM   10  C   UNL     1      64.241   8.600   5.065  1.00  0.00     0.272 C 
BRANCH  10  11
HETATM   11  N   UNL     1      63.606   7.895   6.169  1.00  0.00    -0.075 N 
HETATM   12  H   UNL     1      62.714   8.339   6.387  1.00  0.00     0.274 HD
HETATM   13  H   UNL     1      64.213   7.930   6.989  1.00  0.00     0.274 HD
HETATM   14  H   UNL     1      63.446   6.923   5.905  1.00  0.00     0.274 HD
ENDBRANCH  10  11
ENDBRANCH   1  10
TORSDOF 2
ENDMDL
MODEL 3
REMARK VINA RESULT:      -4.0      1.362      2.379
REMARK  2 active torsions:
REMARK  status: ('A' for Active; 'I' for Inactive)
REMARK    1  A    between atoms: C_1  and  C_7 
REMARK    2  A    between atoms: C_7  and  N_10 
ROOT
HETATM    1  C   UNL     1      62.830   8.939   4.109  1.00  0.00     0.015 A 
HETATM    2  N   UNL     1      62.227   9.338   1.938  1.00  0.00    -0.303 N 
ATOM      3  HN  UNL     1      62.035   9.227   0.942  1.00  0.00     0.186 HD
HETATM    4  N   UNL     1      62.130  10.455   2.674  1.00  0.00    -0.300 N 
HETATM    5  C   UNL     1      62.465  10.274   3.992  1.00  0.00     0.034 A 
HETATM    6  C   UNL     1      62.634   8.403   2.804  1.00  0.00     0.032 A 
HETATM    7  C   UNL     1      61.706  11.666   2.012  1.00  0.00     0.177 C 
HETATM    8  C   UNL     1      62.407  11.360   5.003  1.00  0.00     0.070 C 
HETATM    9  C   UNL     1      62.812   7.007   2.332  1.00  0.00     0.070 C 
ENDROOT
BRANCH   1  10
HETATM   10  C   UNL     1      63.316   8.222   5.319  1.00  0.00     0.272 C 
BRANCH  10  11
HETATM   11  N   UNL     1      64.681   8.647   5.591  1.00  0.00    -0.075 N 
HETATM   12  H   UNL     1      65.258   8.487   4.765  1.00  0.00     0.274 HD
HETATM   13  H   UNL     1      65.054   8.112   6.376  1.00  0.00     0.274 HD
HETATM   14  H   UNL     1      64.688   9.641   5.823  1.00  0.00     0.274 HD
ENDBRANCH  10  11
ENDBRANCH   1  10
TORSDOF 2
ENDMDL
MODEL 4
REMARK VINA RESULT:      -3.9      1.931      3.784
REMARK  2 active torsions:
REMARK  status: ('A' for Active; 'I' for Inactive)
REMARK    1  A    between atoms: C_1  and  C_7 
REMARK    2  A    between atoms: C_7  and  N_10 
ROOT
HETATM    1  C   UNL     1      62.896   9.129   3.865  1.00  0.00     0.015 A 
HETATM    2  N   UNL     1      64.373   9.235   5.609  1.00  0.00    -0.303 N 
ATOM      3  HN  UNL     1      64.892   9.545   6.431  1.00  0.00     0.186 HD
HETATM    4  N   UNL     1      64.568   8.123   4.885  1.00  0.00    -0.300 N 
HETATM    5  C   UNL     1      63.698   7.996   3.831  1.00  0.00     0.034 A 
HETATM    6  C   UNL     1      63.345   9.846   5.010  1.00  0.00     0.032 A 
HETATM    7  C   UNL     1      65.631   7.233   5.285  1.00  0.00     0.177 C 
HETATM    8  C   UNL     1      63.705   6.834   2.906  1.00  0.00     0.070 C 
HETATM    9  C   UNL     1      62.825  11.115   5.580  1.00  0.00     0.070 C 
ENDROOT
BRANCH   1  10
HETATM   10  C   UNL     1      61.809   9.513   2.924  1.00  0.00     0.272 C 
BRANCH  10  11
HETATM   11  N   UNL     1      60.575   8.871   3.356  1.00  0.00    -0.075 N 
HETATM   12  H   UNL     1      60.194   9.372   4.158  1.00  0.00     0.274 HD
HETATM   13  H   UNL     1      60.769   7.905   3.619  1.00  0.00     0.274 HD
HETATM   14  H   UNL     1      59.899   8.887   2.592  1.00  0.00     0.274 HD
ENDBRANCH  10  11
ENDBRANCH   1  10
TORSDOF 2
ENDMDL
MODEL 5
REMARK VINA RESULT:      -3.9      1.477      3.050
REMARK  2 active torsions:
REMARK  status: ('A' for Active; 'I' for Inactive)
REMARK    1  A    between atoms: C_1  and  C_7 
REMARK    2  A    between atoms: C_7  and  N_10 
ROOT
HETATM    1  C   UNL     1      62.610   9.446   4.498  1.00  0.00     0.015 A 
HETATM    2  N   UNL     1      60.845   9.069   3.092  1.00  0.00    -0.303 N 
ATOM      3  HN  UNL     1      60.116   9.185   2.389  1.00  0.00     0.186 HD
HETATM    4  N   UNL     1      61.082   7.995   3.862  1.00  0.00    -0.300 N 
HETATM    5  C   UNL     1      62.142   8.157   4.718  1.00  0.00     0.034 A 
HETATM    6  C   UNL     1      61.782   9.951   3.456  1.00  0.00     0.032 A 
HETATM    7  C   UNL     1      60.220   6.848   3.705  1.00  0.00     0.177 C 
HETATM    8  C   UNL     1      62.607   7.096   5.646  1.00  0.00     0.070 C 
HETATM    9  C   UNL     1      61.845  11.265   2.768  1.00  0.00     0.070 C 
ENDROOT
BRANCH   1  10
HETATM   10  C   UNL     1      63.726  10.147   5.190  1.00  0.00     0.272 C 
BRANCH  10  11
HETATM   11  N   UNL     1      63.167  11.221   5.998  1.00  0.00    -0.075 N 
HETATM   12  H   UNL     1      62.149  11.166   5.979  1.00  0.00     0.274 HD
HETATM   13  H   UNL     1      63.467  12.121   5.623  1.00  0.00     0.274 HD
HETATM   14  H   UNL     1      63.495  11.128   6.960  1.00  0.00     0.274 HD
ENDBRANCH  10  11
ENDBRANCH   1  10
TORSDOF 2
ENDMDL
MODEL 6
REMARK VINA RESULT:      -3.6      2.171      2.948
REMARK  2 active torsions:
REMARK  status: ('A' for Active; 'I' for Inactive)
REMARK    1  A    between atoms: C_1  and  C_7 
REMARK    2  A    between atoms: C_7  and  N_10 
ROOT
HETATM    1  C   UNL     1      64.289   8.257   4.703  1.00  0.00     0.015 A 
HETATM    2  N   UNL     1      63.153   7.889   2.751  1.00  0.00    -0.303 N 
ATOM      3  HN  UNL     1      62.832   7.488   1.870  1.00  0.00     0.186 HD
HETATM    4  N   UNL     1      62.739   9.021   3.340  1.00  0.00    -0.300 N 
HETATM    5  C   UNL     1      63.375   9.287   4.526  1.00  0.00     0.034 A 
HETATM    6  C   UNL     1      64.083   7.404   3.582  1.00  0.00     0.032 A 
HETATM    7  C   UNL     1      61.717   9.794   2.674  1.00  0.00     0.177 C 
HETATM    8  C   UNL     1      63.064  10.469   5.368  1.00  0.00     0.070 C 
HETATM    9  C   UNL     1      64.741   6.113   3.257  1.00  0.00     0.070 C 
ENDROOT
BRANCH   1  10
HETATM   10  C   UNL     1      65.265   8.076   5.812  1.00  0.00     0.272 C 
BRANCH  10  11
HETATM   11  N   UNL     1      64.651   7.245   6.838  1.00  0.00    -0.075 N 
HETATM   12  H   UNL     1      65.037   6.302   6.787  1.00  0.00     0.274 HD
HETATM   13  H   UNL     1      63.643   7.208   6.687  1.00  0.00     0.274 HD
HETATM   14  H   UNL     1      64.844   7.642   7.757  1.00  0.00     0.274 HD
ENDBRANCH  10  11
ENDBRANCH   1  10
TORSDOF 2
ENDMDL
MODEL 7
REMARK VINA RESULT:      -3.6      3.096      4.493
REMARK  2 active torsions:
REMARK  status: ('A' for Active; 'I' for Inactive)
REMARK    1  A    between atoms: C_1  and  C_7 
REMARK    2  A    between atoms: C_7  and  N_10 
ROOT
HETATM    1  C   UNL     1      65.304   7.125   4.589  1.00  0.00     0.015 A 
HETATM    2  N   UNL     1      64.606   9.071   5.569  1.00  0.00    -0.303 N 
ATOM      3  HN  UNL     1      64.528   9.880   6.186  1.00  0.00     0.186 HD
HETATM    4  N   UNL     1      63.794   8.727   4.558  1.00  0.00    -0.300 N 
HETATM    5  C   UNL     1      64.171   7.573   3.920  1.00  0.00     0.034 A 
HETATM    6  C   UNL     1      65.540   8.115   5.585  1.00  0.00     0.032 A 
HETATM    7  C   UNL     1      62.661   9.578   4.280  1.00  0.00     0.177 C 
HETATM    8  C   UNL     1      63.442   7.010   2.756  1.00  0.00     0.070 C 
HETATM    9  C   UNL     1      66.645   8.199   6.573  1.00  0.00     0.070 C 
ENDROOT
BRANCH   1  10
HETATM   10  C   UNL     1      66.097   5.893   4.329  1.00  0.00     0.272 C 
BRANCH  10  11
HETATM   11  N   UNL     1      67.311   6.266   3.618  1.00  0.00    -0.075 N 
HETATM   12  H   UNL     1      67.378   5.730   2.753  1.00  0.00     0.274 HD
HETATM   13  H   UNL     1      68.122   6.069   4.205  1.00  0.00     0.274 HD
HETATM   14  H   UNL     1      67.284   7.262   3.399  1.00  0.00     0.274 HD
ENDBRANCH  10  11
ENDBRANCH   1  10
TORSDOF 2
ENDMDL
MODEL 8
REMARK VINA RESULT:      -3.5     11.566     13.088
REMARK  2 active torsions:
REMARK  status: ('A' for Active; 'I' for Inactive)
REMARK    1  A    between atoms: C_1  and  C_7 
REMARK    2  A    between atoms: C_7  and  N_10 
ROOT
HETATM    1  C   UNL     1      56.591   1.917  13.059  1.00  0.00     0.015 A 
HETATM    2  N   UNL     1      58.725   2.439  12.419  1.00  0.00    -0.303 N 
ATOM      3  HN  UNL     1      59.735   2.582  12.414  1.00  0.00     0.186 HD
HETATM    4  N   UNL     1      57.850   2.721  11.441  1.00  0.00    -0.300 N 
HETATM    5  C   UNL     1      56.552   2.413  11.762  1.00  0.00     0.034 A 
HETATM    6  C   UNL     1      57.973   1.931  13.402  1.00  0.00     0.032 A 
HETATM    7  C   UNL     1      58.362   3.296  10.221  1.00  0.00     0.177 C 
HETATM    8  C   UNL     1      55.414   2.612  10.829  1.00  0.00     0.070 C 
HETATM    9  C   UNL     1      58.630   1.466  14.649  1.00  0.00     0.070 C 
ENDROOT
BRANCH   1  10
HETATM   10  C   UNL     1      55.452   1.468  13.905  1.00  0.00     0.272 C 
BRANCH  10  11
HETATM   11  N   UNL     1      55.007   2.592  14.716  1.00  0.00    -0.075 N 
HETATM   12  H   UNL     1      55.411   3.455  14.352  1.00  0.00     0.274 HD
HETATM   13  H   UNL     1      55.309   2.455  15.681  1.00  0.00     0.274 HD
HETATM   14  H   UNL     1      53.990   2.653  14.683  1.00  0.00     0.274 HD
ENDBRANCH  10  11
ENDBRANCH   1  10
TORSDOF 2
ENDMDL
MODEL 9
REMARK VINA RESULT:      -3.5      5.687      7.097
REMARK  2 active torsions:
REMARK  status: ('A' for Active; 'I' for Inactive)
REMARK    1  A    between atoms: C_1  and  C_7 
REMARK    2  A    between atoms: C_7  and  N_10 
ROOT
HETATM    1  C   UNL     1      67.141   6.643   6.545  1.00  0.00     0.015 A 
HETATM    2  N   UNL     1      67.692   4.640   7.505  1.00  0.00    -0.303 N 
ATOM      3  HN  UNL     1      67.936   3.916   8.181  1.00  0.00     0.186 HD
HETATM    4  N   UNL     1      67.586   4.519   6.173  1.00  0.00    -0.300 N 
HETATM    5  C   UNL     1      67.242   5.687   5.541  1.00  0.00     0.034 A 
HETATM    6  C   UNL     1      67.403   5.924   7.745  1.00  0.00     0.032 A 
HETATM    7  C   UNL     1      67.845   3.224   5.589  1.00  0.00     0.177 C 
HETATM    8  C   UNL     1      67.042   5.791   4.074  1.00  0.00     0.070 C 
HETATM    9  C   UNL     1      67.386   6.411   9.148  1.00  0.00     0.070 C 
ENDROOT
BRANCH   1  10
HETATM   10  C   UNL     1      66.828   8.091   6.405  1.00  0.00     0.272 C 
BRANCH  10  11
HETATM   11  N   UNL     1      65.386   8.240   6.263  1.00  0.00    -0.075 N 
HETATM   12  H   UNL     1      64.924   7.382   6.564  1.00  0.00     0.274 HD
HETATM   13  H   UNL     1      65.159   8.425   5.286  1.00  0.00     0.274 HD
HETATM   14  H   UNL     1      65.067   9.019   6.840  1.00  0.00     0.274 HD
ENDBRANCH  10  11
ENDBRANCH   1  10
TORSDOF 2
ENDMDL
