MODEL 1
REMARK VINA RESULT:      -5.1      0.000      0.000
REMARK  3 active torsions:
REMARK  status: ('A' for Active; 'I' for Inactive)
REMARK    1  A    between atoms: N_1  and  C_7 
REMARK    2  A    between atoms: C_5  and  C_8 
REMARK    3  A    between atoms: C_8  and  O_10 
ROOT
HETATM    1  N   UNL     1      62.922   8.096   4.821  1.00  0.00    -0.261 N 
HETATM    2  N   UNL     1      61.933   7.356   5.391  1.00  0.00    -0.304 N 
ATOM      3  HN  UNL     1      60.927   7.449   5.250  1.00  0.00     0.186 HD
HETATM    4  C   UNL     1      64.163   7.768   5.362  1.00  0.00     0.040 A 
HETATM    5  C   UNL     1      63.951   6.695   6.214  1.00  0.00     0.006 A 
HETATM    6  C   UNL     1      62.563   6.485   6.173  1.00  0.00     0.119 A 
HETATM    7  C   UNL     1      65.432   8.523   5.151  1.00  0.00     0.071 C 
ENDROOT
BRANCH   1   8
HETATM    8  C   UNL     1      62.595   9.092   3.861  1.00  0.00     0.056 A 
HETATM    9  C   UNL     1      62.541   8.736   2.506  1.00  0.00     0.031 A 
HETATM   10  C   UNL     1      62.103   9.663   1.561  1.00  0.00     0.002 A 
HETATM   11  C   UNL     1      61.756  10.958   1.956  1.00  0.00     0.000 A 
HETATM   12  C   UNL     1      61.882  11.336   3.289  1.00  0.00     0.002 A 
HETATM   13  C   UNL     1      62.304  10.408   4.242  1.00  0.00     0.031 A 
ENDBRANCH   1   8
BRANCH   5  14
HETATM   14  C   UNL     1      64.951   5.976   7.046  1.00  0.00     0.206 C 
BRANCH  14  15
HETATM   15  O   UNL     1      65.382   6.765   8.147  1.00  0.00    -0.396 OA
HETATM   16  H   UNL     1      64.952   7.635   8.110  1.00  0.00     0.209 HD
ENDBRANCH  14  15
ENDBRANCH   5  14
TORSDOF 3
ENDMDL
MODEL 2
REMARK VINA RESULT:      -5.1      2.591      5.393
REMARK  3 active torsions:
REMARK  status: ('A' for Active; 'I' for Inactive)
REMARK    1  A    between atoms: N_1  and  C_7 
REMARK    2  A    between atoms: C_5  and  C_8 
REMARK    3  A    between atoms: C_8  and  O_10 
ROOT
HETATM    1  N   UNL     1      63.450   9.093   4.865  1.00  0.00    -0.261 N 
HETATM    2  N   UNL     1      63.105  10.188   5.594  1.00  0.00    -0.304 N 
ATOM      3  HN  UNL     1      63.301  10.367   6.580  1.00  0.00     0.186 HD
HETATM    4  C   UNL     1      62.889   9.146   3.592  1.00  0.00     0.040 A 
HETATM    5  C   UNL     1      62.273  10.383   3.483  1.00  0.00     0.006 A 
HETATM    6  C   UNL     1      62.457  10.977   4.742  1.00  0.00     0.119 A 
HETATM    7  C   UNL     1      62.859   8.027   2.606  1.00  0.00     0.071 C 
ENDROOT
BRANCH   1   8
HETATM    8  C   UNL     1      64.226   8.063   5.464  1.00  0.00     0.056 A 
HETATM    9  C   UNL     1      63.568   7.001   6.100  1.00  0.00     0.031 A 
HETATM   10  C   UNL     1      64.303   5.920   6.587  1.00  0.00     0.002 A 
HETATM   11  C   UNL     1      65.695   5.911   6.477  1.00  0.00     0.000 A 
HETATM   12  C   UNL     1      66.356   6.999   5.914  1.00  0.00     0.002 A 
HETATM   13  C   UNL     1      65.625   8.077   5.411  1.00  0.00     0.031 A 
ENDBRANCH   1   8
BRANCH   5  14
HETATM   14  C   UNL     1      61.519  10.931   2.325  1.00  0.00     0.206 C 
BRANCH  14  15
HETATM   15  O   UNL     1      62.096  12.139   1.847  1.00  0.00    -0.396 OA
HETATM   16  H   UNL     1      61.429  12.646   1.357  1.00  0.00     0.209 HD
ENDBRANCH  14  15
ENDBRANCH   5  14
TORSDOF 3
ENDMDL
MODEL 3
REMARK VINA RESULT:      -5.0      2.675      5.496
REMARK  3 active torsions:
REMARK  status: ('A' for Active; 'I' for Inactive)
REMARK    1  A    between atoms: N_1  and  C_7 
REMARK    2  A    between atoms: C_5  and  C_8 
REMARK    3  A    between atoms: C_8  and  O_10 
ROOT
HETATM    1  N   UNL     1      64.438   8.569   5.043  1.00  0.00    -0.261 N 
HETATM    2  N   UNL     1      64.033   9.666   5.737  1.00  0.00    -0.304 N 
ATOM      3  HN  UNL     1      64.391  10.005   6.631  1.00  0.00     0.186 HD
HETATM    4  C   UNL     1      63.621   8.350   3.938  1.00  0.00     0.040 A 
HETATM    5  C   UNL     1      62.748   9.425   3.872  1.00  0.00     0.006 A 
HETATM    6  C   UNL     1      63.066  10.202   4.999  1.00  0.00     0.119 A 
HETATM    7  C   UNL     1      63.619   7.126   3.085  1.00  0.00     0.071 C 
ENDROOT
BRANCH   1   8
HETATM    8  C   UNL     1      65.524   7.790   5.527  1.00  0.00     0.056 A 
HETATM    9  C   UNL     1      65.306   6.916   6.601  1.00  0.00     0.031 A 
HETATM   10  C   UNL     1      66.321   6.053   7.014  1.00  0.00     0.002 A 
HETATM   11  C   UNL     1      67.568   6.086   6.385  1.00  0.00     0.000 A 
HETATM   12  C   UNL     1      67.812   7.006   5.370  1.00  0.00     0.002 A 
HETATM   13  C   UNL     1      66.794   7.861   4.942  1.00  0.00     0.031 A 
ENDBRANCH   1   8
BRANCH   5  14
HETATM   14  C   UNL     1      61.666   9.667   2.882  1.00  0.00     0.206 C 
BRANCH  14  15
HETATM   15  O   UNL     1      61.224  11.018   2.907  1.00  0.00    -0.396 OA
HETATM   16  H   UNL     1      61.821  11.564   2.370  1.00  0.00     0.209 HD
ENDBRANCH  14  15
ENDBRANCH   5  14
TORSDOF 3
ENDMDL
MODEL 4
REMARK VINA RESULT:      -5.0      1.379      2.520
REMARK  3 active torsions:
REMARK  status: ('A' for Active; 'I' for Inactive)
REMARK    1  A    between atoms: N_1  and  C_7 
REMARK    2  A    between atoms: C_5  and  C_8 
REMARK    3  A    between atoms: C_8  and  O_10 
ROOT
HETATM    1  N   UNL     1      64.393   8.051   5.626  1.00  0.00    -0.261 N 
HETATM    2  N   UNL     1      65.679   8.442   5.836  1.00  0.00    -0.304 N 
ATOM      3  HN  UNL     1      66.143   9.274   5.470  1.00  0.00     0.186 HD
HETATM    4  C   UNL     1      64.161   6.791   6.173  1.00  0.00     0.040 A 
HETATM    5  C   UNL     1      65.314   6.440   6.858  1.00  0.00     0.006 A 
HETATM    6  C   UNL     1      66.199   7.505   6.622  1.00  0.00     0.119 A 
HETATM    7  C   UNL     1      62.950   5.951   5.942  1.00  0.00     0.071 C 
ENDROOT
BRANCH   1   8
HETATM    8  C   UNL     1      63.519   8.877   4.869  1.00  0.00     0.056 A 
HETATM    9  C   UNL     1      63.118  10.110   5.404  1.00  0.00     0.031 A 
HETATM   10  C   UNL     1      62.362  10.991   4.631  1.00  0.00     0.002 A 
HETATM   11  C   UNL     1      61.968  10.631   3.340  1.00  0.00     0.000 A 
HETATM   12  C   UNL     1      62.299   9.377   2.836  1.00  0.00     0.002 A 
HETATM   13  C   UNL     1      63.070   8.498   3.598  1.00  0.00     0.031 A 
ENDBRANCH   1   8
BRANCH   5  14
HETATM   14  C   UNL     1      65.586   5.186   7.609  1.00  0.00     0.206 C 
BRANCH  14  15
HETATM   15  O   UNL     1      66.057   5.453   8.923  1.00  0.00    -0.396 OA
HETATM   16  H   UNL     1      65.352   5.871   9.442  1.00  0.00     0.209 HD
ENDBRANCH  14  15
ENDBRANCH   5  14
TORSDOF 3
ENDMDL
MODEL 5
REMARK VINA RESULT:      -4.3      3.304      4.156
REMARK  3 active torsions:
REMARK  status: ('A' for Active; 'I' for Inactive)
REMARK    1  A    between atoms: N_1  and  C_7 
REMARK    2  A    between atoms: C_5  and  C_8 
REMARK    3  A    between atoms: C_8  and  O_10 
ROOT
HETATM    1  N   UNL     1      60.976   8.466   3.432  1.00  0.00    -0.261 N 
HETATM    2  N   UNL     1      61.143   9.816   3.422  1.00  0.00    -0.304 N 
ATOM      3  HN  UNL     1      60.510  10.518   3.038  1.00  0.00     0.186 HD
HETATM    4  C   UNL     1      62.115   7.828   3.918  1.00  0.00     0.040 A 
HETATM    5  C   UNL     1      62.977   8.827   4.342  1.00  0.00     0.006 A 
HETATM    6  C   UNL     1      62.312  10.022   4.021  1.00  0.00     0.119 A 
HETATM    7  C   UNL     1      62.382   6.362   3.860  1.00  0.00     0.071 C 
ENDROOT
BRANCH   1   8
HETATM    8  C   UNL     1      59.777   7.900   2.921  1.00  0.00     0.056 A 
HETATM    9  C   UNL     1      58.762   7.536   3.817  1.00  0.00     0.031 A 
HETATM   10  C   UNL     1      57.531   7.094   3.333  1.00  0.00     0.002 A 
HETATM   11  C   UNL     1      57.321   6.974   1.957  1.00  0.00     0.000 A 
HETATM   12  C   UNL     1      58.352   7.262   1.068  1.00  0.00     0.002 A 
HETATM   13  C   UNL     1      59.580   7.720   1.546  1.00  0.00     0.031 A 
ENDBRANCH   1   8
BRANCH   5  14
HETATM   14  C   UNL     1      64.334   8.676   4.930  1.00  0.00     0.206 C 
BRANCH  14  15
HETATM   15  O   UNL     1      64.678   9.788   5.746  1.00  0.00    -0.396 OA
HETATM   16  H   UNL     1      64.117  10.545   5.517  1.00  0.00     0.209 HD
ENDBRANCH  14  15
ENDBRANCH   5  14
TORSDOF 3
ENDMDL
MODEL 6
REMARK VINA RESULT:      -4.3      1.847      2.861
REMARK  3 active torsions:
REMARK  status: ('A' for Active; 'I' for Inactive)
REMARK    1  A    between atoms: N_1  and  C_7 
REMARK    2  A    between atoms: C_5  and  C_8 
REMARK    3  A    between atoms: C_8  and  O_10 
ROOT
HETATM    1  N   UNL     1      65.050   7.502   5.706  1.00  0.00    -0.261 N 
HETATM    2  N   UNL     1      66.241   8.134   5.890  1.00  0.00    -0.304 N 
ATOM      3  HN  UNL     1      66.674   8.833   5.285  1.00  0.00     0.186 HD
HETATM    4  C   UNL     1      64.859   6.513   6.667  1.00  0.00     0.040 A 
HETATM    5  C   UNL     1      65.916   6.618   7.558  1.00  0.00     0.006 A 
HETATM    6  C   UNL     1      66.718   7.642   7.029  1.00  0.00     0.119 A 
HETATM    7  C   UNL     1      63.789   5.473   6.646  1.00  0.00     0.071 C 
ENDROOT
BRANCH   1   8
HETATM    8  C   UNL     1      64.232   7.849   4.597  1.00  0.00     0.056 A 
HETATM    9  C   UNL     1      64.203   6.998   3.483  1.00  0.00     0.031 A 
HETATM   10  C   UNL     1      63.317   7.252   2.436  1.00  0.00     0.002 A 
HETATM   11  C   UNL     1      62.486   8.374   2.477  1.00  0.00     0.000 A 
HETATM   12  C   UNL     1      62.567   9.262   3.546  1.00  0.00     0.002 A 
HETATM   13  C   UNL     1      63.441   9.004   4.604  1.00  0.00     0.031 A 
ENDBRANCH   1   8
BRANCH   5  14
HETATM   14  C   UNL     1      66.187   5.785   8.759  1.00  0.00     0.206 C 
BRANCH  14  15
HETATM   15  O   UNL     1      66.504   4.445   8.408  1.00  0.00    -0.396 OA
HETATM   16  H   UNL     1      65.755   4.048   7.935  1.00  0.00     0.209 HD
ENDBRANCH  14  15
ENDBRANCH   5  14
TORSDOF 3
ENDMDL
MODEL 7
REMARK VINA RESULT:      -4.2      2.004      2.608
REMARK  3 active torsions:
REMARK  status: ('A' for Active; 'I' for Inactive)
REMARK    1  A    between atoms: N_1  and  C_7 
REMARK    2  A    between atoms: C_5  and  C_8 
REMARK    3  A    between atoms: C_8  and  O_10 
ROOT
HETATM    1  N   UNL     1      63.558   7.668   3.455  1.00  0.00    -0.261 N 
HETATM    2  N   UNL     1      64.328   6.573   3.213  1.00  0.00    -0.304 N 
ATOM      3  HN  UNL     1      64.145   5.818   2.551  1.00  0.00     0.186 HD
HETATM    4  C   UNL     1      64.062   8.403   4.525  1.00  0.00     0.040 A 
HETATM    5  C   UNL     1      65.263   7.808   4.883  1.00  0.00     0.006 A 
HETATM    6  C   UNL     1      65.371   6.699   4.027  1.00  0.00     0.119 A 
HETATM    7  C   UNL     1      63.365   9.525   5.216  1.00  0.00     0.071 C 
ENDROOT
BRANCH   1   8
HETATM    8  C   UNL     1      62.378   7.884   2.693  1.00  0.00     0.056 A 
HETATM    9  C   UNL     1      62.464   8.627   1.507  1.00  0.00     0.031 A 
HETATM   10  C   UNL     1      61.347   8.748   0.680  1.00  0.00     0.002 A 
HETATM   11  C   UNL     1      60.133   8.165   1.051  1.00  0.00     0.000 A 
HETATM   12  C   UNL     1      60.026   7.492   2.264  1.00  0.00     0.002 A 
HETATM   13  C   UNL     1      61.144   7.354   3.088  1.00  0.00     0.031 A 
ENDBRANCH   1   8
BRANCH   5  14
HETATM   14  C   UNL     1      66.190   8.202   5.975  1.00  0.00     0.206 C 
BRANCH  14  15
HETATM   15  O   UNL     1      65.884   7.532   7.191  1.00  0.00    -0.396 OA
HETATM   16  H   UNL     1      65.623   6.617   6.999  1.00  0.00     0.209 HD
ENDBRANCH  14  15
ENDBRANCH   5  14
TORSDOF 3
ENDMDL
MODEL 8
REMARK VINA RESULT:      -4.1      1.773      2.160
REMARK  3 active torsions:
REMARK  status: ('A' for Active; 'I' for Inactive)
REMARK    1  A    between atoms: N_1  and  C_7 
REMARK    2  A    between atoms: C_5  and  C_8 
REMARK    3  A    between atoms: C_8  and  O_10 
ROOT
HETATM    1  N   UNL     1      61.393   7.579   4.211  1.00  0.00    -0.261 N 
HETATM    2  N   UNL     1      60.141   7.048   4.218  1.00  0.00    -0.304 N 
ATOM      3  HN  UNL     1      59.308   7.412   3.753  1.00  0.00     0.186 HD
HETATM    4  C   UNL     1      62.235   6.880   5.072  1.00  0.00     0.040 A 
HETATM    5  C   UNL     1      61.509   5.795   5.539  1.00  0.00     0.006 A 
HETATM    6  C   UNL     1      60.237   5.952   4.964  1.00  0.00     0.119 A 
HETATM    7  C   UNL     1      63.600   7.308   5.494  1.00  0.00     0.071 C 
ENDROOT
BRANCH   1   8
HETATM    8  C   UNL     1      61.662   8.742   3.438  1.00  0.00     0.056 A 
HETATM    9  C   UNL     1      61.838   8.609   2.053  1.00  0.00     0.031 A 
HETATM   10  C   UNL     1      61.980   9.747   1.259  1.00  0.00     0.002 A 
HETATM   11  C   UNL     1      61.989  11.015   1.844  1.00  0.00     0.000 A 
HETATM   12  C   UNL     1      61.892  11.144   3.226  1.00  0.00     0.002 A 
HETATM   13  C   UNL     1      61.732  10.011   4.025  1.00  0.00     0.031 A 
ENDBRANCH   1   8
BRANCH   5  14
HETATM   14  C   UNL     1      61.947   4.744   6.495  1.00  0.00     0.206 C 
BRANCH  14  15
HETATM   15  O   UNL     1      62.838   3.820   5.886  1.00  0.00    -0.396 OA
HETATM   16  H   UNL     1      63.744   4.165   5.932  1.00  0.00     0.209 HD
ENDBRANCH  14  15
ENDBRANCH   5  14
TORSDOF 3
ENDMDL
MODEL 9
REMARK VINA RESULT:      -4.1     12.101     13.494
REMARK  3 active torsions:
REMARK  status: ('A' for Active; 'I' for Inactive)
REMARK    1  A    between atoms: N_1  and  C_7 
REMARK    2  A    between atoms: C_5  and  C_8 
REMARK    3  A    between atoms: C_8  and  O_10 
ROOT
HETATM    1  N   UNL     1      56.069   2.179  13.337  1.00  0.00    -0.261 N 
HETATM    2  N   UNL     1      55.563   2.742  14.467  1.00  0.00    -0.304 N 
ATOM      3  HN  UNL     1      55.930   2.669  15.416  1.00  0.00     0.186 HD
HETATM    4  C   UNL     1      55.218   2.386  12.254  1.00  0.00     0.040 A 
HETATM    5  C   UNL     1      54.203   3.217  12.703  1.00  0.00     0.006 A 
HETATM    6  C   UNL     1      54.484   3.408  14.065  1.00  0.00     0.119 A 
HETATM    7  C   UNL     1      55.329   1.726  10.921  1.00  0.00     0.071 C 
ENDROOT
BRANCH   1   8
HETATM    8  C   UNL     1      57.282   1.440  13.399  1.00  0.00     0.056 A 
HETATM    9  C   UNL     1      57.239   0.101  13.811  1.00  0.00     0.031 A 
HETATM   10  C   UNL     1      58.395  -0.678  13.764  1.00  0.00     0.002 A 
HETATM   11  C   UNL     1      59.603  -0.116  13.345  1.00  0.00     0.000 A 
HETATM   12  C   UNL     1      59.664   1.233  13.009  1.00  0.00     0.002 A 
HETATM   13  C   UNL     1      58.508   2.013  13.039  1.00  0.00     0.031 A 
ENDBRANCH   1   8
BRANCH   5  14
HETATM   14  C   UNL     1      53.035   3.728  11.939  1.00  0.00     0.206 C 
BRANCH  14  15
HETATM   15  O   UNL     1      53.384   4.846  11.133  1.00  0.00    -0.396 OA
HETATM   16  H   UNL     1      52.859   4.834  10.317  1.00  0.00     0.209 HD
ENDBRANCH  14  15
ENDBRANCH   5  14
TORSDOF 3
ENDMDL
