MODEL 1
REMARK VINA RESULT:      -4.4      0.000      0.000
REMARK  1 active torsions:
REMARK  status: ('A' for Active; 'I' for Inactive)
REMARK    1  A    between atoms: C_1  and  C_2 
ROOT
HETATM    1  C   UNL     1      62.035  10.426   4.212  1.00  0.00     0.222 C 
HETATM    2  O   UNL     1      61.907  11.737   3.610  1.00  0.00    -0.375 OA
HETATM    3  C   UNL     1      61.863  11.574   2.182  1.00  0.00     0.169 C 
HETATM    4  C   UNL     1      62.469   9.492   3.103  1.00  0.00     0.045 C 
HETATM    5  C   UNL     1      61.789  10.089   1.900  1.00  0.00     0.029 C 
ENDROOT
BRANCH   1   6
HETATM    6  C   UNL     1      63.049  10.483   5.349  1.00  0.00     0.203 C 
HETATM    7  O   UNL     1      63.081  11.344   6.215  1.00  0.00    -0.646 OA
HETATM    8  O   UNL     1      63.926   9.450   5.295  1.00  0.00    -0.646 OA
ENDBRANCH   1   6
TORSDOF 1
ENDMDL
MODEL 2
REMARK VINA RESULT:      -3.9      1.807      2.902
REMARK  1 active torsions:
REMARK  status: ('A' for Active; 'I' for Inactive)
REMARK    1  A    between atoms: C_1  and  C_2 
ROOT
HETATM    1  C   UNL     1      62.134   9.706   2.722  1.00  0.00     0.222 C 
HETATM    2  O   UNL     1      61.072   8.896   3.280  1.00  0.00    -0.375 OA
HETATM    3  C   UNL     1      60.631   7.972   2.271  1.00  0.00     0.169 C 
HETATM    4  C   UNL     1      62.061   9.522   1.221  1.00  0.00     0.045 C 
HETATM    5  C   UNL     1      61.577   8.102   1.098  1.00  0.00     0.029 C 
ENDROOT
BRANCH   1   6
HETATM    6  C   UNL     1      61.941  11.160   3.136  1.00  0.00     0.203 C 
HETATM    7  O   UNL     1      61.838  11.551   4.288  1.00  0.00    -0.646 OA
HETATM    8  O   UNL     1      61.901  11.989   2.063  1.00  0.00    -0.646 OA
ENDBRANCH   1   6
TORSDOF 1
ENDMDL
MODEL 3
REMARK VINA RESULT:      -3.8      1.701      3.099
REMARK  1 active torsions:
REMARK  status: ('A' for Active; 'I' for Inactive)
REMARK    1  A    between atoms: C_1  and  C_2 
ROOT
HETATM    1  C   UNL     1      61.928   9.962   3.823  1.00  0.00     0.222 C 
HETATM    2  O   UNL     1      62.343   9.118   2.722  1.00  0.00    -0.375 OA
HETATM    3  C   UNL     1      63.254   8.129   3.230  1.00  0.00     0.169 C 
HETATM    4  C   UNL     1      62.915   9.711   4.943  1.00  0.00     0.045 C 
HETATM    5  C   UNL     1      63.267   8.262   4.737  1.00  0.00     0.029 C 
ENDROOT
BRANCH   1   6
HETATM    6  C   UNL     1      61.920  11.419   3.376  1.00  0.00     0.203 C 
HETATM    7  O   UNL     1      61.967  11.794   2.215  1.00  0.00    -0.646 OA
HETATM    8  O   UNL     1      61.847  12.269   4.430  1.00  0.00    -0.646 OA
ENDBRANCH   1   6
TORSDOF 1
ENDMDL
MODEL 4
REMARK VINA RESULT:      -3.7      1.976      3.464
REMARK  1 active torsions:
REMARK  status: ('A' for Active; 'I' for Inactive)
REMARK    1  A    between atoms: C_1  and  C_2 
ROOT
HETATM    1  C   UNL     1      63.546   9.488   4.808  1.00  0.00     0.222 C 
HETATM    2  O   UNL     1      64.823   9.336   5.473  1.00  0.00    -0.375 OA
HETATM    3  C   UNL     1      64.947   7.969   5.902  1.00  0.00     0.169 C 
HETATM    4  C   UNL     1      62.722   8.278   5.192  1.00  0.00     0.045 C 
HETATM    5  C   UNL     1      63.773   7.208   5.327  1.00  0.00     0.029 C 
ENDROOT
BRANCH   1   6
HETATM    6  C   UNL     1      62.893  10.794   5.247  1.00  0.00     0.203 C 
HETATM    7  O   UNL     1      62.039  11.395   4.614  1.00  0.00    -0.646 OA
HETATM    8  O   UNL     1      63.371  11.220   6.442  1.00  0.00    -0.646 OA
ENDBRANCH   1   6
TORSDOF 1
ENDMDL
MODEL 5
REMARK VINA RESULT:      -3.3      1.880      2.291
REMARK  1 active torsions:
REMARK  status: ('A' for Active; 'I' for Inactive)
REMARK    1  A    between atoms: C_1  and  C_2 
ROOT
HETATM    1  C   UNL     1      62.819   9.340   3.752  1.00  0.00     0.222 C 
HETATM    2  O   UNL     1      62.462   8.684   2.512  1.00  0.00    -0.375 OA
HETATM    3  C   UNL     1      61.778   9.636   1.679  1.00  0.00     0.169 C 
HETATM    4  C   UNL     1      61.987  10.603   3.818  1.00  0.00     0.045 C 
HETATM    5  C   UNL     1      61.869  10.982   2.365  1.00  0.00     0.029 C 
ENDROOT
BRANCH   1   6
HETATM    6  C   UNL     1      62.543   8.405   4.924  1.00  0.00     0.203 C 
HETATM    7  O   UNL     1      62.972   8.560   6.057  1.00  0.00    -0.646 OA
HETATM    8  O   UNL     1      61.750   7.366   4.564  1.00  0.00    -0.646 OA
ENDBRANCH   1   6
TORSDOF 1
ENDMDL
MODEL 6
REMARK VINA RESULT:      -3.2      5.621      6.849
REMARK  1 active torsions:
REMARK  status: ('A' for Active; 'I' for Inactive)
REMARK    1  A    between atoms: C_1  and  C_2 
ROOT
HETATM    1  C   UNL     1      66.337   6.160   7.182  1.00  0.00     0.222 C 
HETATM    2  O   UNL     1      65.712   7.462   7.076  1.00  0.00    -0.375 OA
HETATM    3  C   UNL     1      66.457   8.244   6.128  1.00  0.00     0.169 C 
HETATM    4  C   UNL     1      67.716   6.302   6.572  1.00  0.00     0.045 C 
HETATM    5  C   UNL     1      67.482   7.327   5.495  1.00  0.00     0.029 C 
ENDROOT
BRANCH   1   6
HETATM    6  C   UNL     1      66.394   5.737   8.646  1.00  0.00     0.203 C 
HETATM    7  O   UNL     1      66.328   6.501   9.597  1.00  0.00    -0.646 OA
HETATM    8  O   UNL     1      66.524   4.394   8.778  1.00  0.00    -0.646 OA
ENDBRANCH   1   6
TORSDOF 1
ENDMDL
MODEL 7
REMARK VINA RESULT:      -3.2      2.271      2.822
REMARK  1 active torsions:
REMARK  status: ('A' for Active; 'I' for Inactive)
REMARK    1  A    between atoms: C_1  and  C_2 
ROOT
HETATM    1  C   UNL     1      63.699   8.955   4.488  1.00  0.00     0.222 C 
HETATM    2  O   UNL     1      62.811   7.962   3.921  1.00  0.00    -0.375 OA
HETATM    3  C   UNL     1      61.575   8.608   3.573  1.00  0.00     0.169 C 
HETATM    4  C   UNL     1      62.832  10.143   4.845  1.00  0.00     0.045 C 
HETATM    5  C   UNL     1      61.772  10.095   3.776  1.00  0.00     0.029 C 
ENDROOT
BRANCH   1   6
HETATM    6  C   UNL     1      64.409   8.372   5.704  1.00  0.00     0.203 C 
HETATM    7  O   UNL     1      63.960   7.488   6.417  1.00  0.00    -0.646 OA
HETATM    8  O   UNL     1      65.617   8.950   5.909  1.00  0.00    -0.646 OA
ENDBRANCH   1   6
TORSDOF 1
ENDMDL
MODEL 8
REMARK VINA RESULT:      -3.2      1.465      2.072
REMARK  1 active torsions:
REMARK  status: ('A' for Active; 'I' for Inactive)
REMARK    1  A    between atoms: C_1  and  C_2 
ROOT
HETATM    1  C   UNL     1      62.902   9.255   3.856  1.00  0.00     0.222 C 
HETATM    2  O   UNL     1      62.246   7.976   3.685  1.00  0.00    -0.375 OA
HETATM    3  C   UNL     1      61.325   8.086   2.587  1.00  0.00     0.169 C 
HETATM    4  C   UNL     1      62.072  10.263   3.091  1.00  0.00     0.045 C 
HETATM    5  C   UNL     1      61.548   9.438   1.945  1.00  0.00     0.029 C 
ENDROOT
BRANCH   1   6
HETATM    6  C   UNL     1      62.992   9.590   5.341  1.00  0.00     0.203 C 
HETATM    7  O   UNL     1      63.103  10.717   5.797  1.00  0.00    -0.646 OA
HETATM    8  O   UNL     1      62.929   8.478   6.113  1.00  0.00    -0.646 OA
ENDBRANCH   1   6
TORSDOF 1
ENDMDL
MODEL 9
REMARK VINA RESULT:      -3.1      1.881      2.540
REMARK  1 active torsions:
REMARK  status: ('A' for Active; 'I' for Inactive)
REMARK    1  A    between atoms: C_1  and  C_2 
ROOT
HETATM    1  C   UNL     1      61.455   9.090   3.344  1.00  0.00     0.222 C 
HETATM    2  O   UNL     1      61.704  10.158   4.289  1.00  0.00    -0.375 OA
HETATM    3  C   UNL     1      61.962  11.363   3.550  1.00  0.00     0.169 C 
HETATM    4  C   UNL     1      61.960   9.584   2.005  1.00  0.00     0.045 C 
HETATM    5  C   UNL     1      61.692  11.063   2.091  1.00  0.00     0.029 C 
ENDROOT
BRANCH   1   6
HETATM    6  C   UNL     1      62.174   7.825   3.800  1.00  0.00     0.203 C 
HETATM    7  O   UNL     1      61.671   6.943   4.480  1.00  0.00    -0.646 OA
HETATM    8  O   UNL     1      63.454   7.784   3.356  1.00  0.00    -0.646 OA
ENDBRANCH   1   6
TORSDOF 1
ENDMDL
