MODEL 1
REMARK VINA RESULT:      -5.1      0.000      0.000
REMARK  3 active torsions:
REMARK  status: ('A' for Active; 'I' for Inactive)
REMARK    1  A    between atoms: N_1  and  C_2 
REMARK    2  A    between atoms: C_8  and  C_14 
REMARK    3  A    between atoms: O_11  and  C_14 
ROOT
HETATM    1  C   UNL     1      62.419   8.691   2.818  1.00  0.00     0.030 A 
HETATM    2  C   UNL     1      63.276   8.340   3.865  1.00  0.00     0.030 A 
HETATM    3  C   UNL     1      61.817   9.953   2.875  1.00  0.00     0.030 A 
HETATM    4  C   UNL     1      62.041  10.830   3.945  1.00  0.00     0.011 A 
HETATM    5  C   UNL     1      63.522   9.217   4.933  1.00  0.00     0.011 A 
HETATM    6  C   UNL     1      62.895  10.463   4.988  1.00  0.00    -0.035 A 
ENDROOT
BRANCH   1   7
HETATM    7  N   UNL     1      62.139   7.843   1.765  1.00  0.00    -0.377 N 
HETATM    8  C   UNL     1      61.582   8.309   0.489  1.00  0.00     0.149 C 
HETATM    9  C   UNL     1      60.173   7.748   0.263  1.00  0.00     0.187 C 
HETATM   10  O   UNL     1      60.137   6.319   0.415  1.00  0.00    -0.388 OA
HETATM   11  C   UNL     1      60.555   5.954   1.740  1.00  0.00     0.187 C 
HETATM   12  C   UNL     1      61.998   6.403   2.022  1.00  0.00     0.149 C 
ENDBRANCH   1   7
BRANCH   6  13
HETATM   13  C   UNL     1      63.091  11.383   6.163  1.00  0.00     0.202 C 
BRANCH  13  14
HETATM   14  O   UNL     1      64.466  11.491   6.501  1.00  0.00    -0.396 OA
HETATM   15  H   UNL     1      64.926  10.674   6.251  1.00  0.00     0.209 HD
ENDBRANCH  13  14
ENDBRANCH   6  13
TORSDOF 3
ENDMDL
MODEL 2
REMARK VINA RESULT:      -4.8      3.809      5.937
REMARK  3 active torsions:
REMARK  status: ('A' for Active; 'I' for Inactive)
REMARK    1  A    between atoms: N_1  and  C_2 
REMARK    2  A    between atoms: C_8  and  C_14 
REMARK    3  A    between atoms: O_11  and  C_14 
ROOT
HETATM    1  C   UNL     1      65.229   7.749   4.742  1.00  0.00     0.030 A 
HETATM    2  C   UNL     1      64.654   7.009   3.705  1.00  0.00     0.030 A 
HETATM    3  C   UNL     1      64.526   8.869   5.200  1.00  0.00     0.030 A 
HETATM    4  C   UNL     1      63.302   9.253   4.635  1.00  0.00     0.011 A 
HETATM    5  C   UNL     1      63.420   7.374   3.143  1.00  0.00     0.011 A 
HETATM    6  C   UNL     1      62.742   8.508   3.595  1.00  0.00    -0.035 A 
ENDROOT
BRANCH   1   7
HETATM    7  N   UNL     1      66.451   7.429   5.299  1.00  0.00    -0.377 N 
HETATM    8  C   UNL     1      67.271   6.303   4.835  1.00  0.00     0.149 C 
HETATM    9  C   UNL     1      67.401   5.229   5.922  1.00  0.00     0.187 C 
HETATM   10  O   UNL     1      67.846   5.785   7.171  1.00  0.00    -0.388 OA
HETATM   11  C   UNL     1      66.911   6.774   7.631  1.00  0.00     0.187 C 
HETATM   12  C   UNL     1      66.785   7.940   6.636  1.00  0.00     0.149 C 
ENDBRANCH   1   7
BRANCH   6  13
HETATM   13  C   UNL     1      61.456   8.954   2.953  1.00  0.00     0.202 C 
BRANCH  13  14
HETATM   14  O   UNL     1      60.968  10.141   3.562  1.00  0.00    -0.396 OA
HETATM   15  H   UNL     1      60.047  10.007   3.838  1.00  0.00     0.209 HD
ENDBRANCH  13  14
ENDBRANCH   6  13
TORSDOF 3
ENDMDL
MODEL 3
REMARK VINA RESULT:      -4.7      3.319      5.427
REMARK  3 active torsions:
REMARK  status: ('A' for Active; 'I' for Inactive)
REMARK    1  A    between atoms: N_1  and  C_2 
REMARK    2  A    between atoms: C_8  and  C_14 
REMARK    3  A    between atoms: O_11  and  C_14 
ROOT
HETATM    1  C   UNL     1      64.446   7.727   4.698  1.00  0.00     0.030 A 
HETATM    2  C   UNL     1      63.729   7.616   3.503  1.00  0.00     0.030 A 
HETATM    3  C   UNL     1      64.241   8.878   5.467  1.00  0.00     0.030 A 
HETATM    4  C   UNL     1      63.369   9.894   5.056  1.00  0.00     0.011 A 
HETATM    5  C   UNL     1      62.839   8.620   3.090  1.00  0.00     0.011 A 
HETATM    6  C   UNL     1      62.663   9.774   3.857  1.00  0.00    -0.035 A 
ENDROOT
BRANCH   1   7
HETATM    7  N   UNL     1      65.345   6.768   5.121  1.00  0.00    -0.377 N 
HETATM    8  C   UNL     1      65.274   6.134   6.443  1.00  0.00     0.149 C 
HETATM    9  C   UNL     1      66.495   6.498   7.297  1.00  0.00     0.187 C 
HETATM   10  O   UNL     1      67.727   6.239   6.603  1.00  0.00    -0.388 OA
HETATM   11  C   UNL     1      67.783   7.012   5.393  1.00  0.00     0.187 C 
HETATM   12  C   UNL     1      66.638   6.645   4.434  1.00  0.00     0.149 C 
ENDBRANCH   1   7
BRANCH   6  13
HETATM   13  C   UNL     1      61.770  10.892   3.390  1.00  0.00     0.202 C 
BRANCH  13  14
HETATM   14  O   UNL     1      62.052  12.094   4.090  1.00  0.00    -0.396 OA
HETATM   15  H   UNL     1      62.837  11.969   4.646  1.00  0.00     0.209 HD
ENDBRANCH  13  14
ENDBRANCH   6  13
TORSDOF 3
ENDMDL
MODEL 4
REMARK VINA RESULT:      -4.6      3.482      5.531
REMARK  3 active torsions:
REMARK  status: ('A' for Active; 'I' for Inactive)
REMARK    1  A    between atoms: N_1  and  C_2 
REMARK    2  A    between atoms: C_8  and  C_14 
REMARK    3  A    between atoms: O_11  and  C_14 
ROOT
HETATM    1  C   UNL     1      64.300   8.043   4.986  1.00  0.00     0.030 A 
HETATM    2  C   UNL     1      64.095   7.308   3.814  1.00  0.00     0.030 A 
HETATM    3  C   UNL     1      63.576   9.231   5.135  1.00  0.00     0.030 A 
HETATM    4  C   UNL     1      62.693   9.686   4.146  1.00  0.00     0.011 A 
HETATM    5  C   UNL     1      63.200   7.745   2.825  1.00  0.00     0.011 A 
HETATM    6  C   UNL     1      62.502   8.946   2.978  1.00  0.00    -0.035 A 
ENDROOT
BRANCH   1   7
HETATM    7  N   UNL     1      65.189   7.652   5.967  1.00  0.00    -0.377 N 
HETATM    8  C   UNL     1      66.610   8.020   5.950  1.00  0.00     0.149 C 
HETATM    9  C   UNL     1      67.500   6.782   5.780  1.00  0.00     0.187 C 
HETATM   10  O   UNL     1      67.185   5.763   6.742  1.00  0.00    -0.388 OA
HETATM   11  C   UNL     1      65.815   5.351   6.594  1.00  0.00     0.187 C 
HETATM   12  C   UNL     1      64.845   6.519   6.837  1.00  0.00     0.149 C 
ENDBRANCH   1   7
BRANCH   6  13
HETATM   13  C   UNL     1      61.597   9.464   1.893  1.00  0.00     0.202 C 
BRANCH  13  14
HETATM   14  O   UNL     1      61.325  10.846   2.075  1.00  0.00    -0.396 OA
HETATM   15  H   UNL     1      61.401  11.305   1.224  1.00  0.00     0.209 HD
ENDBRANCH  13  14
ENDBRANCH   6  13
TORSDOF 3
ENDMDL
MODEL 5
REMARK VINA RESULT:      -4.5      1.234      1.936
REMARK  3 active torsions:
REMARK  status: ('A' for Active; 'I' for Inactive)
REMARK    1  A    between atoms: N_1  and  C_2 
REMARK    2  A    between atoms: C_8  and  C_14 
REMARK    3  A    between atoms: O_11  and  C_14 
ROOT
HETATM    1  C   UNL     1      62.266   8.190   3.182  1.00  0.00     0.030 A 
HETATM    2  C   UNL     1      63.158   7.998   4.241  1.00  0.00     0.030 A 
HETATM    3  C   UNL     1      61.700   9.462   3.040  1.00  0.00     0.030 A 
HETATM    4  C   UNL     1      61.994  10.503   3.931  1.00  0.00     0.011 A 
HETATM    5  C   UNL     1      63.473   9.039   5.129  1.00  0.00     0.011 A 
HETATM    6  C   UNL     1      62.882  10.296   4.988  1.00  0.00    -0.035 A 
ENDROOT
BRANCH   1   7
HETATM    7  N   UNL     1      61.919   7.181   2.306  1.00  0.00    -0.377 N 
HETATM    8  C   UNL     1      61.550   5.831   2.748  1.00  0.00     0.149 C 
HETATM    9  C   UNL     1      62.574   4.793   2.271  1.00  0.00     0.187 C 
HETATM   10  O   UNL     1      62.809   4.888   0.856  1.00  0.00    -0.388 OA
HETATM   11  C   UNL     1      63.310   6.194   0.526  1.00  0.00     0.187 C 
HETATM   12  C   UNL     1      62.301   7.296   0.892  1.00  0.00     0.149 C 
ENDBRANCH   1   7
BRANCH   6  13
HETATM   13  C   UNL     1      63.152  11.399   5.976  1.00  0.00     0.202 C 
BRANCH  13  14
HETATM   14  O   UNL     1      64.517  11.408   6.367  1.00  0.00    -0.396 OA
HETATM   15  H   UNL     1      65.036  10.874   5.745  1.00  0.00     0.209 HD
ENDBRANCH  13  14
ENDBRANCH   6  13
TORSDOF 3
ENDMDL
MODEL 6
REMARK VINA RESULT:      -4.3      2.582      3.595
REMARK  3 active torsions:
REMARK  status: ('A' for Active; 'I' for Inactive)
REMARK    1  A    between atoms: N_1  and  C_2 
REMARK    2  A    between atoms: C_8  and  C_14 
REMARK    3  A    between atoms: O_11  and  C_14 
ROOT
HETATM    1  C   UNL     1      62.985   8.131   4.830  1.00  0.00     0.030 A 
HETATM    2  C   UNL     1      62.862   7.125   5.793  1.00  0.00     0.030 A 
HETATM    3  C   UNL     1      64.259   8.675   4.627  1.00  0.00     0.030 A 
HETATM    4  C   UNL     1      65.369   8.249   5.368  1.00  0.00     0.011 A 
HETATM    5  C   UNL     1      63.971   6.678   6.528  1.00  0.00     0.011 A 
HETATM    6  C   UNL     1      65.231   7.247   6.331  1.00  0.00    -0.035 A 
ENDROOT
BRANCH   1   7
HETATM    7  N   UNL     1      61.910   8.608   4.107  1.00  0.00    -0.377 N 
HETATM    8  C   UNL     1      60.819   7.746   3.636  1.00  0.00     0.149 C 
HETATM    9  C   UNL     1      60.788   7.680   2.105  1.00  0.00     0.187 C 
HETATM   10  O   UNL     1      60.778   8.990   1.514  1.00  0.00    -0.388 OA
HETATM   11  C   UNL     1      61.955   9.716   1.906  1.00  0.00     0.187 C 
HETATM   12  C   UNL     1      62.021   9.907   3.430  1.00  0.00     0.149 C 
ENDBRANCH   1   7
BRANCH   6  13
HETATM   13  C   UNL     1      66.414   6.831   7.164  1.00  0.00     0.202 C 
BRANCH  13  14
HETATM   14  O   UNL     1      67.187   7.958   7.548  1.00  0.00    -0.396 OA
HETATM   15  H   UNL     1      68.024   7.658   7.938  1.00  0.00     0.209 HD
ENDBRANCH  13  14
ENDBRANCH   6  13
TORSDOF 3
ENDMDL
MODEL 7
REMARK VINA RESULT:      -4.2      1.727      2.601
REMARK  3 active torsions:
REMARK  status: ('A' for Active; 'I' for Inactive)
REMARK    1  A    between atoms: N_1  and  C_2 
REMARK    2  A    between atoms: C_8  and  C_14 
REMARK    3  A    between atoms: O_11  and  C_14 
ROOT
HETATM    1  C   UNL     1      62.449   8.276   3.362  1.00  0.00     0.030 A 
HETATM    2  C   UNL     1      63.320   7.211   3.114  1.00  0.00     0.030 A 
HETATM    3  C   UNL     1      62.843   9.219   4.318  1.00  0.00     0.030 A 
HETATM    4  C   UNL     1      64.049   9.099   5.020  1.00  0.00     0.011 A 
HETATM    5  C   UNL     1      64.540   7.090   3.799  1.00  0.00     0.011 A 
HETATM    6  C   UNL     1      64.907   8.026   4.768  1.00  0.00    -0.035 A 
ENDROOT
BRANCH   1   7
HETATM    7  N   UNL     1      61.234   8.411   2.722  1.00  0.00    -0.377 N 
HETATM    8  C   UNL     1      60.015   7.725   3.168  1.00  0.00     0.149 C 
HETATM    9  C   UNL     1      59.540   6.708   2.124  1.00  0.00     0.187 C 
HETATM   10  O   UNL     1      59.418   7.299   0.820  1.00  0.00    -0.388 OA
HETATM   11  C   UNL     1      60.689   7.816   0.392  1.00  0.00     0.187 C 
HETATM   12  C   UNL     1      61.202   8.912   1.341  1.00  0.00     0.149 C 
ENDBRANCH   1   7
BRANCH   6  13
HETATM   13  C   UNL     1      66.175   7.869   5.562  1.00  0.00     0.202 C 
BRANCH  13  14
HETATM   14  O   UNL     1      66.293   8.892   6.540  1.00  0.00    -0.396 OA
HETATM   15  H   UNL     1      65.410   9.224   6.769  1.00  0.00     0.209 HD
ENDBRANCH  13  14
ENDBRANCH   6  13
TORSDOF 3
ENDMDL
MODEL 8
REMARK VINA RESULT:      -4.2      2.236      3.080
REMARK  3 active torsions:
REMARK  status: ('A' for Active; 'I' for Inactive)
REMARK    1  A    between atoms: N_1  and  C_2 
REMARK    2  A    between atoms: C_8  and  C_14 
REMARK    3  A    between atoms: O_11  and  C_14 
ROOT
HETATM    1  C   UNL     1      63.613   7.345   3.380  1.00  0.00     0.030 A 
HETATM    2  C   UNL     1      63.671   8.410   4.284  1.00  0.00     0.030 A 
HETATM    3  C   UNL     1      64.714   6.483   3.329  1.00  0.00     0.030 A 
HETATM    4  C   UNL     1      65.844   6.682   4.133  1.00  0.00     0.011 A 
HETATM    5  C   UNL     1      64.791   8.608   5.108  1.00  0.00     0.011 A 
HETATM    6  C   UNL     1      65.893   7.753   5.028  1.00  0.00    -0.035 A 
ENDROOT
BRANCH   1   7
HETATM    7  N   UNL     1      62.536   7.136   2.541  1.00  0.00    -0.377 N 
HETATM    8  C   UNL     1      62.468   7.677   1.178  1.00  0.00     0.149 C 
HETATM    9  C   UNL     1      61.340   8.707   1.048  1.00  0.00     0.187 C 
HETATM   10  O   UNL     1      60.086   8.188   1.520  1.00  0.00    -0.388 OA
HETATM   11  C   UNL     1      60.196   7.819   2.905  1.00  0.00     0.187 C 
HETATM   12  C   UNL     1      61.250   6.719   3.116  1.00  0.00     0.149 C 
ENDBRANCH   1   7
BRANCH   6  13
HETATM   13  C   UNL     1      67.129   7.997   5.850  1.00  0.00     0.202 C 
BRANCH  13  14
HETATM   14  O   UNL     1      66.842   8.822   6.969  1.00  0.00    -0.396 OA
HETATM   15  H   UNL     1      66.654   8.265   7.742  1.00  0.00     0.209 HD
ENDBRANCH  13  14
ENDBRANCH   6  13
TORSDOF 3
ENDMDL
MODEL 9
REMARK VINA RESULT:      -4.1      4.438      6.039
REMARK  3 active torsions:
REMARK  status: ('A' for Active; 'I' for Inactive)
REMARK    1  A    between atoms: N_1  and  C_2 
REMARK    2  A    between atoms: C_8  and  C_14 
REMARK    3  A    between atoms: O_11  and  C_14 
ROOT
HETATM    1  C   UNL     1      64.867   6.505   6.024  1.00  0.00     0.030 A 
HETATM    2  C   UNL     1      65.558   7.577   5.451  1.00  0.00     0.030 A 
HETATM    3  C   UNL     1      63.494   6.665   6.238  1.00  0.00     0.030 A 
HETATM    4  C   UNL     1      62.830   7.855   5.913  1.00  0.00     0.011 A 
HETATM    5  C   UNL     1      64.900   8.768   5.105  1.00  0.00     0.011 A 
HETATM    6  C   UNL     1      63.533   8.921   5.346  1.00  0.00    -0.035 A 
ENDROOT
BRANCH   1   7
HETATM    7  N   UNL     1      65.489   5.330   6.396  1.00  0.00    -0.377 N 
HETATM    8  C   UNL     1      66.202   5.171   7.670  1.00  0.00     0.149 C 
HETATM    9  C   UNL     1      67.702   4.949   7.440  1.00  0.00     0.187 C 
HETATM   10  O   UNL     1      67.946   3.880   6.511  1.00  0.00    -0.388 OA
HETATM   11  C   UNL     1      67.341   4.181   5.243  1.00  0.00     0.187 C 
HETATM   12  C   UNL     1      65.816   4.334   5.366  1.00  0.00     0.149 C 
ENDBRANCH   1   7
BRANCH   6  13
HETATM   13  C   UNL     1      62.830  10.218   5.050  1.00  0.00     0.202 C 
BRANCH  13  14
HETATM   14  O   UNL     1      63.297  11.256   5.899  1.00  0.00    -0.396 OA
HETATM   15  H   UNL     1      64.224  11.091   6.131  1.00  0.00     0.209 HD
ENDBRANCH  13  14
ENDBRANCH   6  13
TORSDOF 3
ENDMDL
