MODEL 1
REMARK VINA RESULT:      -4.9      0.000      0.000
REMARK  3 active torsions:
REMARK  status: ('A' for Active; 'I' for Inactive)
REMARK    1  A    between atoms: N_1  and  C_2 
REMARK    2  A    between atoms: N_8  and  C_14 
REMARK    3  A    between atoms: C_9  and  C_14 
ROOT
HETATM    1  C   UNL     1      65.262   7.815   4.962  1.00  0.00     0.030 A 
HETATM    2  C   UNL     1      64.738   7.079   3.889  1.00  0.00     0.030 A 
HETATM    3  C   UNL     1      64.555   8.959   5.345  1.00  0.00     0.030 A 
HETATM    4  C   UNL     1      63.583   7.496   3.205  1.00  0.00     0.011 A 
HETATM    5  C   UNL     1      63.399   9.377   4.680  1.00  0.00     0.011 A 
HETATM    6  C   UNL     1      62.901   8.654   3.594  1.00  0.00    -0.033 A 
ENDROOT
BRANCH   1   7
HETATM    7  N   UNL     1      66.457   7.448   5.555  1.00  0.00    -0.377 N 
HETATM    8  C   UNL     1      66.648   7.542   7.011  1.00  0.00     0.149 C 
HETATM    9  C   UNL     1      66.692   6.144   7.641  1.00  0.00     0.187 C 
HETATM   10  O   UNL     1      67.713   5.337   7.032  1.00  0.00    -0.388 OA
HETATM   11  C   UNL     1      67.437   5.171   5.630  1.00  0.00     0.187 C 
HETATM   12  C   UNL     1      67.381   6.519   4.882  1.00  0.00     0.149 C 
ENDBRANCH   1   7
BRANCH   6  13
HETATM   13  C   UNL     1      61.688   9.155   2.847  1.00  0.00     0.270 C 
BRANCH  13  14
HETATM   14  N   UNL     1      61.401  10.555   3.151  1.00  0.00    -0.075 N 
HETATM   15  C   UNL     1      61.781  11.416   2.042  1.00  0.00     0.267 C 
HETATM   16  H   UNL     1      61.926  10.830   3.982  1.00  0.00     0.277 HD
HETATM   17  H   UNL     1      60.399  10.655   3.313  1.00  0.00     0.277 HD
ENDBRANCH  13  14
ENDBRANCH   6  13
TORSDOF 3
ENDMDL
MODEL 2
REMARK VINA RESULT:      -4.7      2.818      6.267
REMARK  3 active torsions:
REMARK  status: ('A' for Active; 'I' for Inactive)
REMARK    1  A    between atoms: N_1  and  C_2 
REMARK    2  A    between atoms: N_8  and  C_14 
REMARK    3  A    between atoms: C_9  and  C_14 
ROOT
HETATM    1  C   UNL     1      63.720   8.032   3.931  1.00  0.00     0.030 A 
HETATM    2  C   UNL     1      64.403   8.684   4.969  1.00  0.00     0.030 A 
HETATM    3  C   UNL     1      64.332   6.895   3.392  1.00  0.00     0.030 A 
HETATM    4  C   UNL     1      65.660   8.241   5.414  1.00  0.00     0.011 A 
HETATM    5  C   UNL     1      65.576   6.438   3.836  1.00  0.00     0.011 A 
HETATM    6  C   UNL     1      66.262   7.111   4.849  1.00  0.00    -0.033 A 
ENDROOT
BRANCH   1   7
HETATM    7  N   UNL     1      62.535   8.542   3.434  1.00  0.00    -0.377 N 
HETATM    8  C   UNL     1      61.897   9.722   4.040  1.00  0.00     0.149 C 
HETATM    9  C   UNL     1      62.017  10.936   3.111  1.00  0.00     0.187 C 
HETATM   10  O   UNL     1      61.463  10.651   1.816  1.00  0.00    -0.388 OA
HETATM   11  C   UNL     1      62.180   9.565   1.204  1.00  0.00     0.187 C 
HETATM   12  C   UNL     1      62.119   8.275   2.046  1.00  0.00     0.149 C 
ENDBRANCH   1   7
BRANCH   6  13
HETATM   13  C   UNL     1      67.634   6.642   5.271  1.00  0.00     0.270 C 
BRANCH  13  14
HETATM   14  N   UNL     1      67.920   6.982   6.664  1.00  0.00    -0.075 N 
HETATM   15  C   UNL     1      67.750   5.823   7.526  1.00  0.00     0.267 C 
HETATM   16  H   UNL     1      67.283   7.719   6.965  1.00  0.00     0.277 HD
HETATM   17  H   UNL     1      68.888   7.298   6.730  1.00  0.00     0.277 HD
ENDBRANCH  13  14
ENDBRANCH   6  13
TORSDOF 3
ENDMDL
MODEL 3
REMARK VINA RESULT:      -4.6      1.137      1.797
REMARK  3 active torsions:
REMARK  status: ('A' for Active; 'I' for Inactive)
REMARK    1  A    between atoms: N_1  and  C_2 
REMARK    2  A    between atoms: N_8  and  C_14 
REMARK    3  A    between atoms: C_9  and  C_14 
ROOT
HETATM    1  C   UNL     1      65.545   7.039   5.489  1.00  0.00     0.030 A 
HETATM    2  C   UNL     1      65.216   8.386   5.696  1.00  0.00     0.030 A 
HETATM    3  C   UNL     1      64.890   6.385   4.440  1.00  0.00     0.030 A 
HETATM    4  C   UNL     1      64.243   9.035   4.916  1.00  0.00     0.011 A 
HETATM    5  C   UNL     1      63.930   7.023   3.650  1.00  0.00     0.011 A 
HETATM    6  C   UNL     1      63.587   8.357   3.882  1.00  0.00    -0.033 A 
ENDROOT
BRANCH   1   7
HETATM    7  N   UNL     1      66.427   6.388   6.333  1.00  0.00    -0.377 N 
HETATM    8  C   UNL     1      66.815   6.968   7.628  1.00  0.00     0.149 C 
HETATM    9  C   UNL     1      66.190   6.176   8.783  1.00  0.00     0.187 C 
HETATM   10  O   UNL     1      66.547   4.786   8.707  1.00  0.00    -0.388 OA
HETATM   11  C   UNL     1      66.056   4.221   7.479  1.00  0.00     0.187 C 
HETATM   12  C   UNL     1      66.631   4.932   6.237  1.00  0.00     0.149 C 
ENDBRANCH   1   7
BRANCH   6  13
HETATM   13  C   UNL     1      62.502   9.011   3.061  1.00  0.00     0.270 C 
BRANCH  13  14
HETATM   14  N   UNL     1      62.099  10.300   3.622  1.00  0.00    -0.075 N 
HETATM   15  C   UNL     1      61.798  11.254   2.565  1.00  0.00     0.267 C 
HETATM   16  H   UNL     1      62.858  10.666   4.196  1.00  0.00     0.277 HD
HETATM   17  H   UNL     1      61.259  10.162   4.185  1.00  0.00     0.277 HD
ENDBRANCH  13  14
ENDBRANCH   6  13
TORSDOF 3
ENDMDL
MODEL 4
REMARK VINA RESULT:      -4.6      1.534      2.175
REMARK  3 active torsions:
REMARK  status: ('A' for Active; 'I' for Inactive)
REMARK    1  A    between atoms: N_1  and  C_2 
REMARK    2  A    between atoms: N_8  and  C_14 
REMARK    3  A    between atoms: C_9  and  C_14 
ROOT
HETATM    1  C   UNL     1      64.286   8.080   4.899  1.00  0.00     0.030 A 
HETATM    2  C   UNL     1      63.537   9.263   4.984  1.00  0.00     0.030 A 
HETATM    3  C   UNL     1      64.111   7.306   3.746  1.00  0.00     0.030 A 
HETATM    4  C   UNL     1      62.623   9.628   3.981  1.00  0.00     0.011 A 
HETATM    5  C   UNL     1      63.214   7.666   2.737  1.00  0.00     0.011 A 
HETATM    6  C   UNL     1      62.451   8.830   2.844  1.00  0.00    -0.033 A 
ENDROOT
BRANCH   1   7
HETATM    7  N   UNL     1      65.102   7.683   5.943  1.00  0.00    -0.377 N 
HETATM    8  C   UNL     1      64.757   6.527   6.785  1.00  0.00     0.149 C 
HETATM    9  C   UNL     1      65.699   5.351   6.501  1.00  0.00     0.187 C 
HETATM   10  O   UNL     1      67.072   5.736   6.680  1.00  0.00    -0.388 OA
HETATM   11  C   UNL     1      67.410   6.793   5.765  1.00  0.00     0.187 C 
HETATM   12  C   UNL     1      66.531   8.044   5.965  1.00  0.00     0.149 C 
ENDBRANCH   1   7
BRANCH   6  13
HETATM   13  C   UNL     1      61.439   9.171   1.775  1.00  0.00     0.270 C 
BRANCH  13  14
HETATM   14  N   UNL     1      60.199   8.414   1.940  1.00  0.00    -0.075 N 
HETATM   15  C   UNL     1      59.591   8.127   0.650  1.00  0.00     0.267 C 
HETATM   16  H   UNL     1      59.547   8.961   2.503  1.00  0.00     0.277 HD
HETATM   17  H   UNL     1      60.415   7.531   2.403  1.00  0.00     0.277 HD
ENDBRANCH  13  14
ENDBRANCH   6  13
TORSDOF 3
ENDMDL
MODEL 5
REMARK VINA RESULT:      -4.3      1.623      2.145
REMARK  3 active torsions:
REMARK  status: ('A' for Active; 'I' for Inactive)
REMARK    1  A    between atoms: N_1  and  C_2 
REMARK    2  A    between atoms: N_8  and  C_14 
REMARK    3  A    between atoms: C_9  and  C_14 
ROOT
HETATM    1  C   UNL     1      64.445   6.831   6.286  1.00  0.00     0.030 A 
HETATM    2  C   UNL     1      63.045   6.846   6.204  1.00  0.00     0.030 A 
HETATM    3  C   UNL     1      65.139   7.597   5.343  1.00  0.00     0.030 A 
HETATM    4  C   UNL     1      62.375   7.561   5.196  1.00  0.00     0.011 A 
HETATM    5  C   UNL     1      64.483   8.322   4.345  1.00  0.00     0.011 A 
HETATM    6  C   UNL     1      63.089   8.307   4.253  1.00  0.00    -0.033 A 
ENDROOT
BRANCH   1   7
HETATM    7  N   UNL     1      65.091   6.038   7.218  1.00  0.00    -0.377 N 
HETATM    8  C   UNL     1      65.201   4.582   7.037  1.00  0.00     0.149 C 
HETATM    9  C   UNL     1      66.646   4.188   6.709  1.00  0.00     0.187 C 
HETATM   10  O   UNL     1      67.551   4.658   7.721  1.00  0.00    -0.388 OA
HETATM   11  C   UNL     1      67.501   6.094   7.796  1.00  0.00     0.187 C 
HETATM   12  C   UNL     1      66.089   6.612   8.137  1.00  0.00     0.149 C 
ENDBRANCH   1   7
BRANCH   6  13
HETATM   13  C   UNL     1      62.400   9.043   3.128  1.00  0.00     0.270 C 
BRANCH  13  14
HETATM   14  N   UNL     1      61.427  10.013   3.630  1.00  0.00    -0.075 N 
HETATM   15  C   UNL     1      62.096  11.189   4.164  1.00  0.00     0.267 C 
HETATM   16  H   UNL     1      60.874   9.579   4.368  1.00  0.00     0.277 HD
HETATM   17  H   UNL     1      60.827  10.302   2.857  1.00  0.00     0.277 HD
ENDBRANCH  13  14
ENDBRANCH   6  13
TORSDOF 3
ENDMDL
MODEL 6
REMARK VINA RESULT:      -4.1      2.801      3.969
REMARK  3 active torsions:
REMARK  status: ('A' for Active; 'I' for Inactive)
REMARK    1  A    between atoms: N_1  and  C_2 
REMARK    2  A    between atoms: N_8  and  C_14 
REMARK    3  A    between atoms: C_9  and  C_14 
ROOT
HETATM    1  C   UNL     1      62.135   8.255   4.052  1.00  0.00     0.030 A 
HETATM    2  C   UNL     1      62.471   8.900   2.853  1.00  0.00     0.030 A 
HETATM    3  C   UNL     1      60.979   7.466   4.040  1.00  0.00     0.030 A 
HETATM    4  C   UNL     1      61.662   8.795   1.709  1.00  0.00     0.011 A 
HETATM    5  C   UNL     1      60.174   7.345   2.904  1.00  0.00     0.011 A 
HETATM    6  C   UNL     1      60.501   8.015   1.723  1.00  0.00    -0.033 A 
ENDROOT
BRANCH   1   7
HETATM    7  N   UNL     1      62.885   8.454   5.198  1.00  0.00    -0.377 N 
HETATM    8  C   UNL     1      62.741   7.574   6.367  1.00  0.00     0.149 C 
HETATM    9  C   UNL     1      63.981   6.686   6.530  1.00  0.00     0.187 C 
HETATM   10  O   UNL     1      65.175   7.481   6.619  1.00  0.00    -0.388 OA
HETATM   11  C   UNL     1      65.346   8.247   5.413  1.00  0.00     0.187 C 
HETATM   12  C   UNL     1      64.158   9.194   5.148  1.00  0.00     0.149 C 
ENDBRANCH   1   7
BRANCH   6  13
HETATM   13  C   UNL     1      59.585   7.924   0.525  1.00  0.00     0.270 C 
BRANCH  13  14
HETATM   14  N   UNL     1      58.386   7.142   0.817  1.00  0.00    -0.075 N 
HETATM   15  C   UNL     1      58.462   5.826   0.200  1.00  0.00     0.267 C 
HETATM   16  H   UNL     1      57.569   7.634   0.453  1.00  0.00     0.277 HD
HETATM   17  H   UNL     1      58.310   7.024   1.827  1.00  0.00     0.277 HD
ENDBRANCH  13  14
ENDBRANCH   6  13
TORSDOF 3
ENDMDL
MODEL 7
REMARK VINA RESULT:      -4.0      2.818      6.245
REMARK  3 active torsions:
REMARK  status: ('A' for Active; 'I' for Inactive)
REMARK    1  A    between atoms: N_1  and  C_2 
REMARK    2  A    between atoms: N_8  and  C_14 
REMARK    3  A    between atoms: C_9  and  C_14 
ROOT
HETATM    1  C   UNL     1      64.381   7.435   3.979  1.00  0.00     0.030 A 
HETATM    2  C   UNL     1      64.777   8.352   4.963  1.00  0.00     0.030 A 
HETATM    3  C   UNL     1      65.044   6.203   3.963  1.00  0.00     0.030 A 
HETATM    4  C   UNL     1      65.821   8.064   5.860  1.00  0.00     0.011 A 
HETATM    5  C   UNL     1      66.074   5.901   4.858  1.00  0.00     0.011 A 
HETATM    6  C   UNL     1      66.482   6.832   5.816  1.00  0.00    -0.033 A 
ENDROOT
BRANCH   1   7
HETATM    7  N   UNL     1      63.425   7.775   3.038  1.00  0.00    -0.377 N 
HETATM    8  C   UNL     1      62.835   6.764   2.149  1.00  0.00     0.149 C 
HETATM    9  C   UNL     1      61.375   6.493   2.534  1.00  0.00     0.187 C 
HETATM   10  O   UNL     1      60.606   7.707   2.526  1.00  0.00    -0.388 OA
HETATM   11  C   UNL     1      61.143   8.634   3.487  1.00  0.00     0.187 C 
HETATM   12  C   UNL     1      62.613   8.995   3.193  1.00  0.00     0.149 C 
ENDBRANCH   1   7
BRANCH   6  13
HETATM   13  C   UNL     1      67.640   6.514   6.732  1.00  0.00     0.270 C 
BRANCH  13  14
HETATM   14  N   UNL     1      67.427   7.038   8.079  1.00  0.00    -0.075 N 
HETATM   15  C   UNL     1      67.761   6.040   9.083  1.00  0.00     0.267 C 
HETATM   16  H   UNL     1      66.447   7.302   8.184  1.00  0.00     0.277 HD
HETATM   17  H   UNL     1      68.030   7.850   8.213  1.00  0.00     0.277 HD
ENDBRANCH  13  14
ENDBRANCH   6  13
TORSDOF 3
ENDMDL
MODEL 8
REMARK VINA RESULT:      -4.0      3.037      6.415
REMARK  3 active torsions:
REMARK  status: ('A' for Active; 'I' for Inactive)
REMARK    1  A    between atoms: N_1  and  C_2 
REMARK    2  A    between atoms: N_8  and  C_14 
REMARK    3  A    between atoms: C_9  and  C_14 
ROOT
HETATM    1  C   UNL     1      62.769   8.368   3.370  1.00  0.00     0.030 A 
HETATM    2  C   UNL     1      63.023   9.306   4.382  1.00  0.00     0.030 A 
HETATM    3  C   UNL     1      63.671   7.305   3.256  1.00  0.00     0.030 A 
HETATM    4  C   UNL     1      64.153   9.204   5.212  1.00  0.00     0.011 A 
HETATM    5  C   UNL     1      64.791   7.187   4.085  1.00  0.00     0.011 A 
HETATM    6  C   UNL     1      65.051   8.141   5.070  1.00  0.00    -0.033 A 
ENDROOT
BRANCH   1   7
HETATM    7  N   UNL     1      61.712   8.541   2.494  1.00  0.00    -0.377 N 
HETATM    8  C   UNL     1      61.939   8.833   1.071  1.00  0.00     0.149 C 
HETATM    9  C   UNL     1      61.568   7.622   0.205  1.00  0.00     0.187 C 
HETATM   10  O   UNL     1      60.211   7.214   0.445  1.00  0.00    -0.388 OA
HETATM   11  C   UNL     1      60.050   6.829   1.821  1.00  0.00     0.187 C 
HETATM   12  C   UNL     1      60.383   7.979   2.794  1.00  0.00     0.149 C 
ENDBRANCH   1   7
BRANCH   6  13
HETATM   13  C   UNL     1      66.300   8.034   5.913  1.00  0.00     0.270 C 
BRANCH  13  14
HETATM   14  N   UNL     1      66.320   6.804   6.702  1.00  0.00    -0.075 N 
HETATM   15  C   UNL     1      67.543   6.054   6.463  1.00  0.00     0.267 C 
HETATM   16  H   UNL     1      65.519   6.228   6.442  1.00  0.00     0.277 HD
HETATM   17  H   UNL     1      66.276   7.050   7.691  1.00  0.00     0.277 HD
ENDBRANCH  13  14
ENDBRANCH   6  13
TORSDOF 3
ENDMDL
MODEL 9
REMARK VINA RESULT:      -4.0      4.526      6.274
REMARK  3 active torsions:
REMARK  status: ('A' for Active; 'I' for Inactive)
REMARK    1  A    between atoms: N_1  and  C_2 
REMARK    2  A    between atoms: N_8  and  C_14 
REMARK    3  A    between atoms: C_9  and  C_14 
ROOT
HETATM    1  C   UNL     1      61.868   7.622   4.432  1.00  0.00     0.030 A 
HETATM    2  C   UNL     1      60.585   7.187   4.071  1.00  0.00     0.030 A 
HETATM    3  C   UNL     1      62.415   7.071   5.596  1.00  0.00     0.030 A 
HETATM    4  C   UNL     1      59.867   6.275   4.864  1.00  0.00     0.011 A 
HETATM    5  C   UNL     1      61.715   6.155   6.385  1.00  0.00     0.011 A 
HETATM    6  C   UNL     1      60.426   5.749   6.034  1.00  0.00    -0.033 A 
ENDROOT
BRANCH   1   7
HETATM    7  N   UNL     1      62.517   8.598   3.697  1.00  0.00    -0.377 N 
HETATM    8  C   UNL     1      62.589   8.528   2.230  1.00  0.00     0.149 C 
HETATM    9  C   UNL     1      61.699   9.604   1.593  1.00  0.00     0.187 C 
HETATM   10  O   UNL     1      62.052  10.912   2.072  1.00  0.00    -0.388 OA
HETATM   11  C   UNL     1      61.864  10.981   3.496  1.00  0.00     0.187 C 
HETATM   12  C   UNL     1      62.725   9.948   4.251  1.00  0.00     0.149 C 
ENDBRANCH   1   7
BRANCH   6  13
HETATM   13  C   UNL     1      59.659   4.808   6.933  1.00  0.00     0.270 C 
BRANCH  13  14
HETATM   14  N   UNL     1      59.594   5.302   8.307  1.00  0.00    -0.075 N 
HETATM   15  C   UNL     1      58.615   6.371   8.428  1.00  0.00     0.267 C 
HETATM   16  H   UNL     1      60.512   5.657   8.578  1.00  0.00     0.277 HD
HETATM   17  H   UNL     1      59.315   4.533   8.917  1.00  0.00     0.277 HD
ENDBRANCH  13  14
ENDBRANCH   6  13
TORSDOF 3
ENDMDL
