MODEL 1
REMARK VINA RESULT:      -4.9      0.000      0.000
REMARK  3 active torsions:
REMARK  status: ('A' for Active; 'I' for Inactive)
REMARK    1  A    between atoms: N_1  and  C_5 
REMARK    2  A    between atoms: C_12  and  C_14 
REMARK    3  A    between atoms: O_13  and  C_14 
ROOT
HETATM    1  C   UNL     1      62.102   9.015   2.905  1.00  0.00     0.039 A 
HETATM    2  C   UNL     1      61.782  10.380   2.916  1.00  0.00     0.030 A 
HETATM    3  C   UNL     1      62.783   8.472   4.004  1.00  0.00     0.030 A 
HETATM    4  C   UNL     1      63.130   9.276   5.096  1.00  0.00     0.011 A 
HETATM    5  C   UNL     1      62.129  11.178   4.012  1.00  0.00     0.011 A 
HETATM    6  C   UNL     1      62.804  10.636   5.111  1.00  0.00    -0.035 A 
ENDROOT
BRANCH   1   7
HETATM    7  N   UNL     1      61.725   8.189   1.806  1.00  0.00    -0.317 N 
HETATM    8  C   UNL     1      60.506   8.153   1.160  1.00  0.00     0.188 A 
HETATM    9  N   UNL     1      60.461   7.255   0.200  1.00  0.00    -0.360 N 
HETATM   10  C   UNL     1      61.697   6.678   0.200  1.00  0.00     0.106 A 
ATOM     11  HN  UNL     1      59.674   7.037  -0.412  1.00  0.00     0.166 HD
HETATM   12  C   UNL     1      62.498   7.241   1.165  1.00  0.00     0.115 A 
ENDBRANCH   1   7
BRANCH   6  13
HETATM   13  C   UNL     1      63.155  11.502   6.292  1.00  0.00     0.202 C 
BRANCH  13  14
HETATM   14  O   UNL     1      64.562  11.534   6.485  1.00  0.00    -0.396 OA
HETATM   15  H   UNL     1      64.958  12.174   5.873  1.00  0.00     0.209 HD
ENDBRANCH  13  14
ENDBRANCH   6  13
TORSDOF 3
ENDMDL
MODEL 2
REMARK VINA RESULT:      -4.8      3.746      5.548
REMARK  3 active torsions:
REMARK  status: ('A' for Active; 'I' for Inactive)
REMARK    1  A    between atoms: N_1  and  C_5 
REMARK    2  A    between atoms: C_12  and  C_14 
REMARK    3  A    between atoms: O_13  and  C_14 
ROOT
HETATM    1  C   UNL     1      64.298   8.075   5.012  1.00  0.00     0.039 A 
HETATM    2  C   UNL     1      63.596   9.282   5.132  1.00  0.00     0.030 A 
HETATM    3  C   UNL     1      64.109   7.293   3.864  1.00  0.00     0.030 A 
HETATM    4  C   UNL     1      63.240   7.715   2.851  1.00  0.00     0.011 A 
HETATM    5  C   UNL     1      62.731   9.699   4.114  1.00  0.00     0.011 A 
HETATM    6  C   UNL     1      62.545   8.922   2.965  1.00  0.00    -0.035 A 
ENDROOT
BRANCH   1   7
HETATM    7  N   UNL     1      65.205   7.657   6.030  1.00  0.00    -0.317 N 
HETATM    8  C   UNL     1      66.456   8.171   6.304  1.00  0.00     0.188 A 
HETATM    9  N   UNL     1      67.062   7.546   7.291  1.00  0.00    -0.360 N 
HETATM   10  C   UNL     1      66.179   6.587   7.695  1.00  0.00     0.106 A 
ATOM     11  HN  UNL     1      67.989   7.736   7.672  1.00  0.00     0.166 HD
HETATM   12  C   UNL     1      65.026   6.642   6.949  1.00  0.00     0.115 A 
ENDBRANCH   1   7
BRANCH   6  13
HETATM   13  C   UNL     1      61.625   9.392   1.869  1.00  0.00     0.202 C 
BRANCH  13  14
HETATM   14  O   UNL     1      61.284  10.758   2.058  1.00  0.00    -0.396 OA
HETATM   15  H   UNL     1      61.616  11.059   2.918  1.00  0.00     0.209 HD
ENDBRANCH  13  14
ENDBRANCH   6  13
TORSDOF 3
ENDMDL
MODEL 3
REMARK VINA RESULT:      -4.8      3.788      5.680
REMARK  3 active torsions:
REMARK  status: ('A' for Active; 'I' for Inactive)
REMARK    1  A    between atoms: N_1  and  C_5 
REMARK    2  A    between atoms: C_12  and  C_14 
REMARK    3  A    between atoms: O_13  and  C_14 
ROOT
HETATM    1  C   UNL     1      64.376   8.052   5.028  1.00  0.00     0.039 A 
HETATM    2  C   UNL     1      64.194   7.257   3.888  1.00  0.00     0.030 A 
HETATM    3  C   UNL     1      63.653   9.247   5.143  1.00  0.00     0.030 A 
HETATM    4  C   UNL     1      62.757   9.636   4.139  1.00  0.00     0.011 A 
HETATM    5  C   UNL     1      63.295   7.651   2.889  1.00  0.00     0.011 A 
HETATM    6  C   UNL     1      62.568   8.841   3.005  1.00  0.00    -0.035 A 
ENDROOT
BRANCH   1   7
HETATM    7  N   UNL     1      65.266   7.642   6.064  1.00  0.00    -0.317 N 
HETATM    8  C   UNL     1      66.517   8.152   6.348  1.00  0.00     0.188 A 
HETATM    9  N   UNL     1      67.105   7.537   7.351  1.00  0.00    -0.360 N 
HETATM   10  C   UNL     1      66.211   6.589   7.756  1.00  0.00     0.106 A 
ATOM     11  HN  UNL     1      68.028   7.726   7.742  1.00  0.00     0.166 HD
HETATM   12  C   UNL     1      65.068   6.641   6.994  1.00  0.00     0.115 A 
ENDBRANCH   1   7
BRANCH   6  13
HETATM   13  C   UNL     1      61.591   9.243   1.932  1.00  0.00     0.202 C 
BRANCH  13  14
HETATM   14  O   UNL     1      61.292  10.628   2.026  1.00  0.00    -0.396 OA
HETATM   15  H   UNL     1      60.807  10.799   2.848  1.00  0.00     0.209 HD
ENDBRANCH  13  14
ENDBRANCH   6  13
TORSDOF 3
ENDMDL
MODEL 4
REMARK VINA RESULT:      -4.4      4.326      5.983
REMARK  3 active torsions:
REMARK  status: ('A' for Active; 'I' for Inactive)
REMARK    1  A    between atoms: N_1  and  C_5 
REMARK    2  A    between atoms: C_12  and  C_14 
REMARK    3  A    between atoms: O_13  and  C_14 
ROOT
HETATM    1  C   UNL     1      64.258   7.023   6.172  1.00  0.00     0.039 A 
HETATM    2  C   UNL     1      64.766   8.100   5.434  1.00  0.00     0.030 A 
HETATM    3  C   UNL     1      62.909   6.673   6.020  1.00  0.00     0.030 A 
HETATM    4  C   UNL     1      62.085   7.383   5.138  1.00  0.00     0.011 A 
HETATM    5  C   UNL     1      63.937   8.804   4.552  1.00  0.00     0.011 A 
HETATM    6  C   UNL     1      62.592   8.453   4.395  1.00  0.00    -0.035 A 
ENDROOT
BRANCH   1   7
HETATM    7  N   UNL     1      65.103   6.281   7.049  1.00  0.00    -0.317 N 
HETATM    8  C   UNL     1      65.109   4.917   7.257  1.00  0.00     0.188 A 
HETATM    9  N   UNL     1      65.991   4.540   8.159  1.00  0.00    -0.360 N 
HETATM   10  C   UNL     1      66.600   5.693   8.559  1.00  0.00     0.106 A 
ATOM     11  HN  UNL     1      66.178   3.592   8.487  1.00  0.00     0.166 HD
HETATM   12  C   UNL     1      66.086   6.775   7.885  1.00  0.00     0.115 A 
ENDBRANCH   1   7
BRANCH   6  13
HETATM   13  C   UNL     1      61.716   9.207   3.429  1.00  0.00     0.202 C 
BRANCH  13  14
HETATM   14  O   UNL     1      61.333  10.459   3.979  1.00  0.00    -0.396 OA
HETATM   15  H   UNL     1      60.655  10.865   3.417  1.00  0.00     0.209 HD
ENDBRANCH  13  14
ENDBRANCH   6  13
TORSDOF 3
ENDMDL
MODEL 5
REMARK VINA RESULT:      -4.4      2.888      3.978
REMARK  3 active torsions:
REMARK  status: ('A' for Active; 'I' for Inactive)
REMARK    1  A    between atoms: N_1  and  C_5 
REMARK    2  A    between atoms: C_12  and  C_14 
REMARK    3  A    between atoms: O_13  and  C_14 
ROOT
HETATM    1  C   UNL     1      63.633   8.342   4.735  1.00  0.00     0.039 A 
HETATM    2  C   UNL     1      64.990   8.647   4.906  1.00  0.00     0.030 A 
HETATM    3  C   UNL     1      63.052   7.358   5.548  1.00  0.00     0.030 A 
HETATM    4  C   UNL     1      63.812   6.699   6.521  1.00  0.00     0.011 A 
HETATM    5  C   UNL     1      65.744   7.986   5.883  1.00  0.00     0.011 A 
HETATM    6  C   UNL     1      65.164   7.009   6.700  1.00  0.00    -0.035 A 
ENDROOT
BRANCH   1   7
HETATM    7  N   UNL     1      62.850   9.032   3.762  1.00  0.00    -0.317 N 
HETATM    8  C   UNL     1      62.125  10.193   3.937  1.00  0.00     0.188 A 
HETATM    9  N   UNL     1      61.480  10.562   2.851  1.00  0.00    -0.360 N 
HETATM   10  C   UNL     1      61.793   9.618   1.918  1.00  0.00     0.106 A 
ATOM     11  HN  UNL     1      60.877  11.377   2.733  1.00  0.00     0.166 HD
HETATM   12  C   UNL     1      62.644   8.675   2.444  1.00  0.00     0.115 A 
ENDBRANCH   1   7
BRANCH   6  13
HETATM   13  C   UNL     1      65.982   6.319   7.759  1.00  0.00     0.202 C 
BRANCH  13  14
HETATM   14  O   UNL     1      67.219   6.990   7.948  1.00  0.00    -0.396 OA
HETATM   15  H   UNL     1      67.709   7.008   7.111  1.00  0.00     0.209 HD
ENDBRANCH  13  14
ENDBRANCH   6  13
TORSDOF 3
ENDMDL
MODEL 6
REMARK VINA RESULT:      -4.3      2.157      3.016
REMARK  3 active torsions:
REMARK  status: ('A' for Active; 'I' for Inactive)
REMARK    1  A    between atoms: N_1  and  C_5 
REMARK    2  A    between atoms: C_12  and  C_14 
REMARK    3  A    between atoms: O_13  and  C_14 
ROOT
HETATM    1  C   UNL     1      63.150   8.082   3.447  1.00  0.00     0.039 A 
HETATM    2  C   UNL     1      64.044   7.015   3.279  1.00  0.00     0.030 A 
HETATM    3  C   UNL     1      63.421   9.042   4.433  1.00  0.00     0.030 A 
HETATM    4  C   UNL     1      64.569   8.941   5.228  1.00  0.00     0.011 A 
HETATM    5  C   UNL     1      65.190   6.921   4.075  1.00  0.00     0.011 A 
HETATM    6  C   UNL     1      65.465   7.882   5.055  1.00  0.00    -0.035 A 
ENDROOT
BRANCH   1   7
HETATM    7  N   UNL     1      61.996   8.201   2.619  1.00  0.00    -0.317 N 
HETATM    8  C   UNL     1      60.675   8.053   2.990  1.00  0.00     0.188 A 
HETATM    9  N   UNL     1      59.840   8.192   1.983  1.00  0.00    -0.360 N 
HETATM   10  C   UNL     1      60.633   8.452   0.903  1.00  0.00     0.106 A 
ATOM     11  HN  UNL     1      58.823   8.122   2.004  1.00  0.00     0.166 HD
HETATM   12  C   UNL     1      61.958   8.478   1.266  1.00  0.00     0.115 A 
ENDBRANCH   1   7
BRANCH   6  13
HETATM   13  C   UNL     1      66.712   7.779   5.893  1.00  0.00     0.202 C 
BRANCH  13  14
HETATM   14  O   UNL     1      66.760   8.832   6.845  1.00  0.00    -0.396 OA
HETATM   15  H   UNL     1      67.641   9.239   6.832  1.00  0.00     0.209 HD
ENDBRANCH  13  14
ENDBRANCH   6  13
TORSDOF 3
ENDMDL
MODEL 7
REMARK VINA RESULT:      -4.1      3.705      5.375
REMARK  3 active torsions:
REMARK  status: ('A' for Active; 'I' for Inactive)
REMARK    1  A    between atoms: N_1  and  C_5 
REMARK    2  A    between atoms: C_12  and  C_14 
REMARK    3  A    between atoms: O_13  and  C_14 
ROOT
HETATM    1  C   UNL     1      62.650   7.728   3.822  1.00  0.00     0.039 A 
HETATM    2  C   UNL     1      61.287   7.844   4.128  1.00  0.00     0.030 A 
HETATM    3  C   UNL     1      63.043   7.723   2.476  1.00  0.00     0.030 A 
HETATM    4  C   UNL     1      62.091   7.842   1.456  1.00  0.00     0.011 A 
HETATM    5  C   UNL     1      60.341   7.964   3.104  1.00  0.00     0.011 A 
HETATM    6  C   UNL     1      60.732   7.966   1.760  1.00  0.00    -0.035 A 
ENDROOT
BRANCH   1   7
HETATM    7  N   UNL     1      63.623   7.635   4.861  1.00  0.00    -0.317 N 
HETATM    8  C   UNL     1      63.461   7.090   6.118  1.00  0.00     0.188 A 
HETATM    9  N   UNL     1      64.543   7.186   6.861  1.00  0.00    -0.360 N 
HETATM   10  C   UNL     1      65.460   7.810   6.067  1.00  0.00     0.106 A 
ATOM     11  HN  UNL     1      64.669   6.865   7.821  1.00  0.00     0.166 HD
HETATM   12  C   UNL     1      64.928   8.083   4.829  1.00  0.00     0.115 A 
ENDBRANCH   1   7
BRANCH   6  13
HETATM   13  C   UNL     1      59.706   8.115   0.669  1.00  0.00     0.202 C 
BRANCH  13  14
HETATM   14  O   UNL     1      58.440   8.448   1.219  1.00  0.00    -0.396 OA
HETATM   15  H   UNL     1      58.428   8.224   2.162  1.00  0.00     0.209 HD
ENDBRANCH  13  14
ENDBRANCH   6  13
TORSDOF 3
ENDMDL
MODEL 8
REMARK VINA RESULT:      -4.1      2.710      3.548
REMARK  3 active torsions:
REMARK  status: ('A' for Active; 'I' for Inactive)
REMARK    1  A    between atoms: N_1  and  C_5 
REMARK    2  A    between atoms: C_12  and  C_14 
REMARK    3  A    between atoms: O_13  and  C_14 
ROOT
HETATM    1  C   UNL     1      62.788   7.570   4.853  1.00  0.00     0.039 A 
HETATM    2  C   UNL     1      63.830   8.406   4.430  1.00  0.00     0.030 A 
HETATM    3  C   UNL     1      63.015   6.697   5.927  1.00  0.00     0.030 A 
HETATM    4  C   UNL     1      64.258   6.668   6.571  1.00  0.00     0.011 A 
HETATM    5  C   UNL     1      65.069   8.374   5.079  1.00  0.00     0.011 A 
HETATM    6  C   UNL     1      65.295   7.508   6.155  1.00  0.00    -0.035 A 
ENDROOT
BRANCH   1   7
HETATM    7  N   UNL     1      61.513   7.618   4.217  1.00  0.00    -0.317 N 
HETATM    8  C   UNL     1      61.078   8.525   3.272  1.00  0.00     0.188 A 
HETATM    9  N   UNL     1      59.832   8.321   2.902  1.00  0.00    -0.360 N 
HETATM   10  C   UNL     1      59.426   7.234   3.618  1.00  0.00     0.106 A 
ATOM     11  HN  UNL     1      59.289   8.859   2.226  1.00  0.00     0.166 HD
HETATM   12  C   UNL     1      60.441   6.772   4.421  1.00  0.00     0.115 A 
ENDBRANCH   1   7
BRANCH   6  13
HETATM   13  C   UNL     1      66.628   7.497   6.856  1.00  0.00     0.202 C 
BRANCH  13  14
HETATM   14  O   UNL     1      67.182   8.805   6.892  1.00  0.00    -0.396 OA
HETATM   15  H   UNL     1      67.212   9.167   5.993  1.00  0.00     0.209 HD
ENDBRANCH  13  14
ENDBRANCH   6  13
TORSDOF 3
ENDMDL
MODEL 9
REMARK VINA RESULT:      -3.9      5.566      6.898
REMARK  3 active torsions:
REMARK  status: ('A' for Active; 'I' for Inactive)
REMARK    1  A    between atoms: N_1  and  C_5 
REMARK    2  A    between atoms: C_12  and  C_14 
REMARK    3  A    between atoms: O_13  and  C_14 
ROOT
HETATM    1  C   UNL     1      65.506   6.524   6.823  1.00  0.00     0.039 A 
HETATM    2  C   UNL     1      66.547   7.059   7.595  1.00  0.00     0.030 A 
HETATM    3  C   UNL     1      65.317   5.135   6.811  1.00  0.00     0.030 A 
HETATM    4  C   UNL     1      66.148   4.297   7.564  1.00  0.00     0.011 A 
HETATM    5  C   UNL     1      67.373   6.216   8.347  1.00  0.00     0.011 A 
HETATM    6  C   UNL     1      67.182   4.830   8.341  1.00  0.00    -0.035 A 
ENDROOT
BRANCH   1   7
HETATM    7  N   UNL     1      64.640   7.379   6.078  1.00  0.00    -0.317 N 
HETATM    8  C   UNL     1      63.270   7.281   5.948  1.00  0.00     0.188 A 
HETATM    9  N   UNL     1      62.763   8.206   5.162  1.00  0.00    -0.360 N 
HETATM   10  C   UNL     1      63.832   8.952   4.762  1.00  0.00     0.106 A 
ATOM     11  HN  UNL     1      61.784   8.338   4.908  1.00  0.00     0.166 HD
HETATM   12  C   UNL     1      64.995   8.477   5.320  1.00  0.00     0.115 A 
ENDBRANCH   1   7
BRANCH   6  13
HETATM   13  C   UNL     1      68.066   3.936   9.169  1.00  0.00     0.202 C 
BRANCH  13  14
HETATM   14  O   UNL     1      67.471   2.656   9.328  1.00  0.00    -0.396 OA
HETATM   15  H   UNL     1      66.729   2.566   8.711  1.00  0.00     0.209 HD
ENDBRANCH  13  14
ENDBRANCH   6  13
TORSDOF 3
ENDMDL
