MODEL 1
REMARK VINA RESULT:      -5.0      0.000      0.000
REMARK  2 active torsions:
REMARK  status: ('A' for Active; 'I' for Inactive)
REMARK    1  A    between atoms: N_1  and  C_4 
REMARK    2  A    between atoms: C_10  and  N_11 
ROOT
HETATM    1  C   UNL     1      63.557   8.771   4.805  1.00  0.00     0.056 A 
HETATM    2  C   UNL     1      63.129  10.029   5.252  1.00  0.00     0.034 A 
HETATM    3  C   UNL     1      63.213   8.355   3.514  1.00  0.00     0.034 A 
HETATM    4  C   UNL     1      61.978  10.420   3.146  1.00  0.00     0.025 A 
HETATM    5  C   UNL     1      62.368  10.854   4.414  1.00  0.00     0.031 A 
HETATM    6  C   UNL     1      62.445   9.186   2.690  1.00  0.00     0.031 A 
ENDROOT
BRANCH   1   7
HETATM    7  N   UNL     1      64.348   7.952   5.659  1.00  0.00    -0.268 N 
HETATM    8  N   UNL     1      65.589   8.342   6.058  1.00  0.00    -0.305 N 
HETATM    9  C   UNL     1      66.021   7.355   6.842  1.00  0.00     0.109 A 
ATOM     10  HN  UNL     1      66.081   9.201   5.812  1.00  0.00     0.186 HD
HETATM   11  C   UNL     1      65.090   6.315   6.960  1.00  0.00     0.038 A 
HETATM   12  C   UNL     1      64.025   6.718   6.189  1.00  0.00     0.118 A 
ENDBRANCH   1   7
BRANCH   4  13
HETATM   13  N   UNL     1      61.338  11.298   2.264  1.00  0.00    -0.399 N 
HETATM   14  H   UNL     1      60.560  10.993   1.744  1.00  0.00     0.156 HD
HETATM   15  H   UNL     1      61.667  12.221   2.163  1.00  0.00     0.156 HD
ENDBRANCH   4  13
TORSDOF 2
ENDMDL
MODEL 2
REMARK VINA RESULT:      -4.8      2.478      4.641
REMARK  2 active torsions:
REMARK  status: ('A' for Active; 'I' for Inactive)
REMARK    1  A    between atoms: N_1  and  C_4 
REMARK    2  A    between atoms: C_10  and  N_11 
ROOT
HETATM    1  C   UNL     1      62.439   9.168   3.114  1.00  0.00     0.056 A 
HETATM    2  C   UNL     1      63.363   8.659   4.036  1.00  0.00     0.034 A 
HETATM    3  C   UNL     1      61.908  10.447   3.319  1.00  0.00     0.034 A 
HETATM    4  C   UNL     1      63.181  10.677   5.381  1.00  0.00     0.025 A 
HETATM    5  C   UNL     1      63.748   9.423   5.145  1.00  0.00     0.031 A 
HETATM    6  C   UNL     1      62.295  11.197   4.436  1.00  0.00     0.031 A 
ENDROOT
BRANCH   1   7
HETATM    7  N   UNL     1      62.073   8.390   1.980  1.00  0.00    -0.268 N 
HETATM    8  N   UNL     1      62.868   7.380   1.534  1.00  0.00    -0.305 N 
HETATM    9  C   UNL     1      62.219   6.874   0.485  1.00  0.00     0.109 A 
ATOM     10  HN  UNL     1      63.763   7.076   1.917  1.00  0.00     0.186 HD
HETATM   11  C   UNL     1      61.014   7.539   0.226  1.00  0.00     0.038 A 
HETATM   12  C   UNL     1      60.943   8.511   1.195  1.00  0.00     0.118 A 
ENDBRANCH   1   7
BRANCH   4  13
HETATM   13  N   UNL     1      63.668  11.491   6.409  1.00  0.00    -0.399 N 
HETATM   14  H   UNL     1      64.545  11.929   6.317  1.00  0.00     0.156 HD
HETATM   15  H   UNL     1      63.133  11.627   7.225  1.00  0.00     0.156 HD
ENDBRANCH   4  13
TORSDOF 2
ENDMDL
MODEL 3
REMARK VINA RESULT:      -4.7      0.441      1.453
REMARK  2 active torsions:
REMARK  status: ('A' for Active; 'I' for Inactive)
REMARK    1  A    between atoms: N_1  and  C_4 
REMARK    2  A    between atoms: C_10  and  N_11 
ROOT
HETATM    1  C   UNL     1      63.777   8.562   4.911  1.00  0.00     0.056 A 
HETATM    2  C   UNL     1      63.506   8.010   3.651  1.00  0.00     0.034 A 
HETATM    3  C   UNL     1      63.215   9.799   5.247  1.00  0.00     0.034 A 
HETATM    4  C   UNL     1      62.164   9.949   3.056  1.00  0.00     0.025 A 
HETATM    5  C   UNL     1      62.683   8.691   2.745  1.00  0.00     0.031 A 
HETATM    6  C   UNL     1      62.401  10.472   4.328  1.00  0.00     0.031 A 
ENDROOT
BRANCH   1   7
HETATM    7  N   UNL     1      64.597   7.850   5.830  1.00  0.00    -0.268 N 
HETATM    8  N   UNL     1      65.833   8.305   6.171  1.00  0.00    -0.305 N 
HETATM    9  C   UNL     1      66.297   7.410   7.042  1.00  0.00     0.109 A 
ATOM     10  HN  UNL     1      66.301   9.146   5.834  1.00  0.00     0.186 HD
HETATM   11  C   UNL     1      65.393   6.367   7.276  1.00  0.00     0.038 A 
HETATM   12  C   UNL     1      64.310   6.667   6.484  1.00  0.00     0.118 A 
ENDBRANCH   1   7
BRANCH   4  13
HETATM   13  N   UNL     1      61.235  10.560   2.207  1.00  0.00    -0.399 N 
HETATM   14  H   UNL     1      61.526  11.266   1.585  1.00  0.00     0.156 HD
HETATM   15  H   UNL     1      60.289  10.284   2.231  1.00  0.00     0.156 HD
ENDBRANCH   4  13
TORSDOF 2
ENDMDL
MODEL 4
REMARK VINA RESULT:      -4.2      1.614      5.061
REMARK  2 active torsions:
REMARK  status: ('A' for Active; 'I' for Inactive)
REMARK    1  A    between atoms: N_1  and  C_4 
REMARK    2  A    between atoms: C_10  and  N_11 
ROOT
HETATM    1  C   UNL     1      63.406   8.529   4.686  1.00  0.00     0.056 A 
HETATM    2  C   UNL     1      64.794   8.617   4.860  1.00  0.00     0.034 A 
HETATM    3  C   UNL     1      62.683   7.599   5.443  1.00  0.00     0.034 A 
HETATM    4  C   UNL     1      64.734   6.821   6.499  1.00  0.00     0.025 A 
HETATM    5  C   UNL     1      65.443   7.786   5.781  1.00  0.00     0.031 A 
HETATM    6  C   UNL     1      63.347   6.768   6.353  1.00  0.00     0.031 A 
ENDROOT
BRANCH   1   7
HETATM    7  N   UNL     1      62.755   9.395   3.763  1.00  0.00    -0.268 N 
HETATM    8  N   UNL     1      62.531   9.013   2.477  1.00  0.00    -0.305 N 
HETATM    9  C   UNL     1      61.905  10.048   1.918  1.00  0.00     0.109 A 
ATOM     10  HN  UNL     1      62.786   8.129   2.036  1.00  0.00     0.186 HD
HETATM   11  C   UNL     1      61.720  11.111   2.811  1.00  0.00     0.038 A 
HETATM   12  C   UNL     1      62.277  10.671   3.988  1.00  0.00     0.118 A 
ENDBRANCH   1   7
BRANCH   4  13
HETATM   13  N   UNL     1      65.362   6.090   7.513  1.00  0.00    -0.399 N 
HETATM   14  H   UNL     1      64.832   5.495   8.091  1.00  0.00     0.156 HD
HETATM   15  H   UNL     1      66.334   6.171   7.648  1.00  0.00     0.156 HD
ENDBRANCH   4  13
TORSDOF 2
ENDMDL
MODEL 5
REMARK VINA RESULT:      -4.2      1.736      5.309
REMARK  2 active torsions:
REMARK  status: ('A' for Active; 'I' for Inactive)
REMARK    1  A    between atoms: N_1  and  C_4 
REMARK    2  A    between atoms: C_10  and  N_11 
ROOT
HETATM    1  C   UNL     1      65.021   7.882   5.534  1.00  0.00     0.056 A 
HETATM    2  C   UNL     1      66.338   7.991   5.066  1.00  0.00     0.034 A 
HETATM    3  C   UNL     1      64.730   6.943   6.531  1.00  0.00     0.034 A 
HETATM    4  C   UNL     1      67.048   6.198   6.548  1.00  0.00     0.025 A 
HETATM    5  C   UNL     1      67.344   7.171   5.592  1.00  0.00     0.031 A 
HETATM    6  C   UNL     1      65.744   6.124   7.042  1.00  0.00     0.031 A 
ENDROOT
BRANCH   1   7
HETATM    7  N   UNL     1      64.013   8.736   5.007  1.00  0.00    -0.268 N 
HETATM    8  N   UNL     1      63.658   9.884   5.644  1.00  0.00    -0.305 N 
HETATM    9  C   UNL     1      62.713  10.423   4.875  1.00  0.00     0.109 A 
ATOM     10  HN  UNL     1      64.032  10.252   6.519  1.00  0.00     0.186 HD
HETATM   11  C   UNL     1      62.432   9.646   3.744  1.00  0.00     0.038 A 
HETATM   12  C   UNL     1      63.274   8.565   3.852  1.00  0.00     0.118 A 
ENDBRANCH   1   7
BRANCH   4  13
HETATM   13  N   UNL     1      68.075   5.478   7.167  1.00  0.00    -0.399 N 
HETATM   14  H   UNL     1      68.812   5.956   7.611  1.00  0.00     0.156 HD
HETATM   15  H   UNL     1      68.060   4.493   7.160  1.00  0.00     0.156 HD
ENDBRANCH   4  13
TORSDOF 2
ENDMDL
MODEL 6
REMARK VINA RESULT:      -4.1      1.693      5.082
REMARK  2 active torsions:
REMARK  status: ('A' for Active; 'I' for Inactive)
REMARK    1  A    between atoms: N_1  and  C_4 
REMARK    2  A    between atoms: C_10  and  N_11 
ROOT
HETATM    1  C   UNL     1      64.288   8.160   5.469  1.00  0.00     0.056 A 
HETATM    2  C   UNL     1      63.699   7.020   6.033  1.00  0.00     0.034 A 
HETATM    3  C   UNL     1      65.682   8.219   5.355  1.00  0.00     0.034 A 
HETATM    4  C   UNL     1      65.890   6.036   6.412  1.00  0.00     0.025 A 
HETATM    5  C   UNL     1      64.498   5.959   6.475  1.00  0.00     0.031 A 
HETATM    6  C   UNL     1      66.469   7.153   5.809  1.00  0.00     0.031 A 
ENDROOT
BRANCH   1   7
HETATM    7  N   UNL     1      63.464   9.223   5.004  1.00  0.00    -0.268 N 
HETATM    8  N   UNL     1      63.370  10.393   5.690  1.00  0.00    -0.305 N 
HETATM    9  C   UNL     1      62.537  11.144   4.971  1.00  0.00     0.109 A 
ATOM     10  HN  UNL     1      63.835  10.642   6.564  1.00  0.00     0.186 HD
HETATM   11  C   UNL     1      62.072  10.486   3.826  1.00  0.00     0.038 A 
HETATM   12  C   UNL     1      62.676   9.252   3.870  1.00  0.00     0.118 A 
ENDBRANCH   1   7
BRANCH   4  13
HETATM   13  N   UNL     1      66.676   4.922   6.726  1.00  0.00    -0.399 N 
HETATM   14  H   UNL     1      67.294   4.954   7.491  1.00  0.00     0.156 HD
HETATM   15  H   UNL     1      66.611   4.104   6.180  1.00  0.00     0.156 HD
ENDBRANCH   4  13
TORSDOF 2
ENDMDL
MODEL 7
REMARK VINA RESULT:      -4.0      2.148      5.218
REMARK  2 active torsions:
REMARK  status: ('A' for Active; 'I' for Inactive)
REMARK    1  A    between atoms: N_1  and  C_4 
REMARK    2  A    between atoms: C_10  and  N_11 
ROOT
HETATM    1  C   UNL     1      62.958   8.085   3.169  1.00  0.00     0.056 A 
HETATM    2  C   UNL     1      63.961   7.115   3.306  1.00  0.00     0.034 A 
HETATM    3  C   UNL     1      62.903   9.140   4.086  1.00  0.00     0.034 A 
HETATM    4  C   UNL     1      64.809   8.228   5.296  1.00  0.00     0.025 A 
HETATM    5  C   UNL     1      64.892   7.206   4.348  1.00  0.00     0.031 A 
HETATM    6  C   UNL     1      63.836   9.215   5.128  1.00  0.00     0.031 A 
ENDROOT
BRANCH   1   7
HETATM    7  N   UNL     1      62.031   7.992   2.093  1.00  0.00    -0.268 N 
HETATM    8  N   UNL     1      60.880   8.717   2.091  1.00  0.00    -0.305 N 
HETATM    9  C   UNL     1      60.276   8.394   0.948  1.00  0.00     0.109 A 
ATOM     10  HN  UNL     1      60.552   9.366   2.806  1.00  0.00     0.186 HD
HETATM   11  C   UNL     1      61.004   7.460   0.200  1.00  0.00     0.038 A 
HETATM   12  C   UNL     1      62.125   7.212   0.957  1.00  0.00     0.118 A 
ENDBRANCH   1   7
BRANCH   4  13
HETATM   13  N   UNL     1      65.819   8.393   6.249  1.00  0.00    -0.399 N 
HETATM   14  H   UNL     1      65.858   7.799   7.033  1.00  0.00     0.156 HD
HETATM   15  H   UNL     1      66.491   9.104   6.136  1.00  0.00     0.156 HD
ENDBRANCH   4  13
TORSDOF 2
ENDMDL
MODEL 8
REMARK VINA RESULT:      -3.9      1.877      2.384
REMARK  2 active torsions:
REMARK  status: ('A' for Active; 'I' for Inactive)
REMARK    1  A    between atoms: N_1  and  C_4 
REMARK    2  A    between atoms: C_10  and  N_11 
ROOT
HETATM    1  C   UNL     1      63.650   7.891   4.610  1.00  0.00     0.056 A 
HETATM    2  C   UNL     1      62.771   6.823   4.833  1.00  0.00     0.034 A 
HETATM    3  C   UNL     1      63.177   9.036   3.959  1.00  0.00     0.034 A 
HETATM    4  C   UNL     1      60.976   8.024   3.714  1.00  0.00     0.025 A 
HETATM    5  C   UNL     1      61.438   6.905   4.410  1.00  0.00     0.031 A 
HETATM    6  C   UNL     1      61.844   9.102   3.534  1.00  0.00     0.031 A 
ENDROOT
BRANCH   1   7
HETATM    7  N   UNL     1      64.996   7.803   5.064  1.00  0.00    -0.268 N 
HETATM    8  N   UNL     1      65.400   8.438   6.197  1.00  0.00    -0.305 N 
HETATM    9  C   UNL     1      66.691   8.130   6.318  1.00  0.00     0.109 A 
ATOM     10  HN  UNL     1      64.839   9.021   6.818  1.00  0.00     0.186 HD
HETATM   11  C   UNL     1      67.148   7.310   5.279  1.00  0.00     0.038 A 
HETATM   12  C   UNL     1      66.044   7.116   4.483  1.00  0.00     0.118 A 
ENDBRANCH   1   7
BRANCH   4  13
HETATM   13  N   UNL     1      59.616   8.160   3.417  1.00  0.00    -0.399 N 
HETATM   14  H   UNL     1      59.138   7.435   2.954  1.00  0.00     0.156 HD
HETATM   15  H   UNL     1      59.136   8.982   3.672  1.00  0.00     0.156 HD
ENDBRANCH   4  13
TORSDOF 2
ENDMDL
MODEL 9
REMARK VINA RESULT:      -3.7      5.305      7.206
REMARK  2 active torsions:
REMARK  status: ('A' for Active; 'I' for Inactive)
REMARK    1  A    between atoms: N_1  and  C_4 
REMARK    2  A    between atoms: C_10  and  N_11 
ROOT
HETATM    1  C   UNL     1      67.631   4.117   8.066  1.00  0.00     0.056 A 
HETATM    2  C   UNL     1      67.334   5.187   8.920  1.00  0.00     0.034 A 
HETATM    3  C   UNL     1      67.795   4.364   6.698  1.00  0.00     0.034 A 
HETATM    4  C   UNL     1      67.316   6.726   7.037  1.00  0.00     0.025 A 
HETATM    5  C   UNL     1      67.205   6.484   8.407  1.00  0.00     0.031 A 
HETATM    6  C   UNL     1      67.656   5.664   6.198  1.00  0.00     0.031 A 
ENDROOT
BRANCH   1   7
HETATM    7  N   UNL     1      67.781   2.808   8.603  1.00  0.00    -0.268 N 
HETATM    8  N   UNL     1      67.701   2.582   9.943  1.00  0.00    -0.305 N 
HETATM    9  C   UNL     1      67.874   1.268  10.078  1.00  0.00     0.109 A 
ATOM     10  HN  UNL     1      67.544   3.268  10.681  1.00  0.00     0.186 HD
HETATM   11  C   UNL     1      68.075   0.623   8.852  1.00  0.00     0.038 A 
HETATM   12  C   UNL     1      68.016   1.631   7.919  1.00  0.00     0.118 A 
ENDBRANCH   1   7
BRANCH   4  13
HETATM   13  N   UNL     1      67.323   8.037   6.548  1.00  0.00    -0.399 N 
HETATM   14  H   UNL     1      66.488   8.558   6.524  1.00  0.00     0.156 HD
HETATM   15  H   UNL     1      68.164   8.439   6.229  1.00  0.00     0.156 HD
ENDBRANCH   4  13
TORSDOF 2
ENDMDL
