MODEL 1
REMARK VINA RESULT:      -5.3      0.000      0.000
REMARK  3 active torsions:
REMARK  status: ('A' for Active; 'I' for Inactive)
REMARK    1  A    between atoms: C_3  and  C_7 
REMARK    2  A    between atoms: C_5  and  C_8 
REMARK    3  A    between atoms: C_8  and  O_9 
ROOT
HETATM    1  N   UNK     1      64.736   8.478   5.426  1.00  0.00    -0.351 N 
ATOM      2  HN  UNK     1      65.386   9.218   5.160  1.00  0.00     0.166 HD
HETATM    3  C   UNK     1      63.494   8.371   4.985  1.00  0.00     0.084 A 
HETATM    4  S   UNK     1      62.642   6.991   5.582  1.00  0.00    -0.081 SA
HETATM    5  C   UNK     1      65.034   7.439   6.304  1.00  0.00     0.040 A 
HETATM    6  C   UNK     1      64.004   6.543   6.508  1.00  0.00     0.079 A 
ENDROOT
BRANCH   3   7
HETATM    7  C   UNK     1      62.855   9.285   4.019  1.00  0.00    -0.002 A 
HETATM    8  C   UNK     1      62.477  10.574   4.429  1.00  0.00     0.014 A 
HETATM    9  C   UNK     1      61.898  11.473   3.525  1.00  0.00     0.001 A 
HETATM   10  C   UNK     1      61.677  11.093   2.203  1.00  0.00     0.000 A 
HETATM   11  C   UNK     1      62.025   9.812   1.785  1.00  0.00     0.001 A 
HETATM   12  C   UNK     1      62.606   8.915   2.688  1.00  0.00     0.014 A 
ENDBRANCH   3   7
BRANCH   5  13
HETATM   13  C   UNK     1      66.386   7.389   6.936  1.00  0.00     0.221 C 
BRANCH  13  14
HETATM   14  O   UNK     1      66.907   8.693   7.168  1.00  0.00    -0.395 OA
HETATM   15  H   UNK     1      66.663   8.985   8.061  1.00  0.00     0.209 HD
ENDBRANCH  13  14
ENDBRANCH   5  13
TORSDOF 3
ENDMDL
MODEL 2
REMARK VINA RESULT:      -5.1      1.418      1.563
REMARK  3 active torsions:
REMARK  status: ('A' for Active; 'I' for Inactive)
REMARK    1  A    between atoms: C_3  and  C_7 
REMARK    2  A    between atoms: C_5  and  C_8 
REMARK    3  A    between atoms: C_8  and  O_9 
ROOT
HETATM    1  N   UNK     1      64.803   7.811   6.433  1.00  0.00    -0.351 N 
ATOM      2  HN  UNK     1      64.405   8.423   7.146  1.00  0.00     0.166 HD
HETATM    3  C   UNK     1      64.509   7.864   5.144  1.00  0.00     0.084 A 
HETATM    4  S   UNK     1      65.368   6.725   4.169  1.00  0.00    -0.081 SA
HETATM    5  C   UNK     1      65.732   6.804   6.680  1.00  0.00     0.040 A 
HETATM    6  C   UNK     1      66.142   6.109   5.560  1.00  0.00     0.079 A 
ENDROOT
BRANCH   3   7
HETATM    7  C   UNK     1      63.581   8.830   4.525  1.00  0.00    -0.002 A 
HETATM    8  C   UNK     1      63.269  10.023   5.198  1.00  0.00     0.014 A 
HETATM    9  C   UNK     1      62.416  10.971   4.620  1.00  0.00     0.001 A 
HETATM   10  C   UNK     1      61.854  10.736   3.367  1.00  0.00     0.000 A 
HETATM   11  C   UNK     1      62.135   9.550   2.695  1.00  0.00     0.001 A 
HETATM   12  C   UNK     1      62.988   8.604   3.272  1.00  0.00     0.014 A 
ENDBRANCH   3   7
BRANCH   5  13
HETATM   13  C   UNK     1      66.182   6.562   8.083  1.00  0.00     0.221 C 
BRANCH  13  14
HETATM   14  O   UNK     1      67.311   7.361   8.419  1.00  0.00    -0.395 OA
HETATM   15  H   UNK     1      67.011   8.214   8.770  1.00  0.00     0.209 HD
ENDBRANCH  13  14
ENDBRANCH   5  13
TORSDOF 3
ENDMDL
MODEL 3
REMARK VINA RESULT:      -5.0      2.283      5.131
REMARK  3 active torsions:
REMARK  status: ('A' for Active; 'I' for Inactive)
REMARK    1  A    between atoms: C_3  and  C_7 
REMARK    2  A    between atoms: C_5  and  C_8 
REMARK    3  A    between atoms: C_8  and  O_9 
ROOT
HETATM    1  N   UNK     1      64.443   9.094   5.508  1.00  0.00    -0.351 N 
ATOM      2  HN  UNK     1      65.057   9.318   6.291  1.00  0.00     0.166 HD
HETATM    3  C   UNK     1      64.556   8.021   4.743  1.00  0.00     0.084 A 
HETATM    4  S   UNK     1      63.349   7.890   3.515  1.00  0.00    -0.081 SA
HETATM    5  C   UNK     1      63.368   9.877   5.094  1.00  0.00     0.040 A 
HETATM    6  C   UNK     1      62.668   9.372   4.017  1.00  0.00     0.079 A 
ENDROOT
BRANCH   3   7
HETATM    7  C   UNK     1      65.568   6.961   4.914  1.00  0.00    -0.002 A 
HETATM    8  C   UNK     1      66.021   6.633   6.203  1.00  0.00     0.014 A 
HETATM    9  C   UNK     1      66.957   5.610   6.397  1.00  0.00     0.001 A 
HETATM   10  C   UNK     1      67.463   4.908   5.305  1.00  0.00     0.000 A 
HETATM   11  C   UNK     1      67.042   5.233   4.019  1.00  0.00     0.001 A 
HETATM   12  C   UNK     1      66.106   6.254   3.826  1.00  0.00     0.014 A 
ENDBRANCH   3   7
BRANCH   5  13
HETATM   13  C   UNK     1      63.081  11.153   5.815  1.00  0.00     0.221 C 
BRANCH  13  14
HETATM   14  O   UNK     1      64.227  11.635   6.508  1.00  0.00    -0.395 OA
HETATM   15  H   UNK     1      64.740  12.213   5.922  1.00  0.00     0.209 HD
ENDBRANCH  13  14
ENDBRANCH   5  13
TORSDOF 3
ENDMDL
MODEL 4
REMARK VINA RESULT:      -4.6      2.400      5.613
REMARK  3 active torsions:
REMARK  status: ('A' for Active; 'I' for Inactive)
REMARK    1  A    between atoms: C_3  and  C_7 
REMARK    2  A    between atoms: C_5  and  C_8 
REMARK    3  A    between atoms: C_8  and  O_9 
ROOT
HETATM    1  N   UNK     1      64.046   9.209   5.409  1.00  0.00    -0.351 N 
ATOM      2  HN  UNK     1      64.312   9.773   6.216  1.00  0.00     0.166 HD
HETATM    3  C   UNK     1      64.573   8.035   5.102  1.00  0.00     0.084 A 
HETATM    4  S   UNK     1      63.898   7.296   3.694  1.00  0.00    -0.081 SA
HETATM    5  C   UNK     1      63.078   9.568   4.474  1.00  0.00     0.040 A 
HETATM    6  C   UNK     1      62.875   8.645   3.469  1.00  0.00     0.079 A 
ENDROOT
BRANCH   3   7
HETATM    7  C   UNK     1      65.608   7.339   5.889  1.00  0.00    -0.002 A 
HETATM    8  C   UNK     1      65.272   6.768   7.129  1.00  0.00     0.014 A 
HETATM    9  C   UNK     1      66.226   6.074   7.881  1.00  0.00     0.001 A 
HETATM   10  C   UNK     1      67.533   5.950   7.414  1.00  0.00     0.000 A 
HETATM   11  C   UNK     1      67.889   6.527   6.199  1.00  0.00     0.001 A 
HETATM   12  C   UNK     1      66.935   7.219   5.445  1.00  0.00     0.014 A 
ENDBRANCH   3   7
BRANCH   5  13
HETATM   13  C   UNK     1      62.375  10.877   4.626  1.00  0.00     0.221 C 
BRANCH  13  14
HETATM   14  O   UNK     1      61.353  11.043   3.648  1.00  0.00    -0.395 OA
HETATM   15  H   UNK     1      61.688  11.591   2.921  1.00  0.00     0.209 HD
ENDBRANCH  13  14
ENDBRANCH   5  13
TORSDOF 3
ENDMDL
MODEL 5
REMARK VINA RESULT:      -4.4      9.076     11.456
REMARK  3 active torsions:
REMARK  status: ('A' for Active; 'I' for Inactive)
REMARK    1  A    between atoms: C_3  and  C_7 
REMARK    2  A    between atoms: C_5  and  C_8 
REMARK    3  A    between atoms: C_8  and  O_9 
ROOT
HETATM    1  N   UNK     1      58.567   3.990  10.466  1.00  0.00    -0.351 N 
ATOM      2  HN  UNK     1      58.953   4.585  11.199  1.00  0.00     0.166 HD
HETATM    3  C   UNK     1      58.107   2.764  10.653  1.00  0.00     0.084 A 
HETATM    4  S   UNK     1      57.481   2.012   9.230  1.00  0.00    -0.081 SA
HETATM    5  C   UNK     1      58.450   4.355   9.127  1.00  0.00     0.040 A 
HETATM    6  C   UNK     1      57.886   3.394   8.313  1.00  0.00     0.079 A 
ENDROOT
BRANCH   3   7
HETATM    7  C   UNK     1      58.053   2.068  11.953  1.00  0.00    -0.002 A 
HETATM    8  C   UNK     1      59.225   1.924  12.714  1.00  0.00     0.014 A 
HETATM    9  C   UNK     1      59.196   1.296  13.965  1.00  0.00     0.001 A 
HETATM   10  C   UNK     1      57.999   0.794  14.469  1.00  0.00     0.000 A 
HETATM   11  C   UNK     1      56.831   0.909  13.720  1.00  0.00     0.001 A 
HETATM   12  C   UNK     1      56.860   1.537  12.471  1.00  0.00     0.014 A 
ENDBRANCH   3   7
BRANCH   5  13
HETATM   13  C   UNK     1      58.937   5.701   8.698  1.00  0.00     0.221 C 
BRANCH  13  14
HETATM   14  O   UNK     1      58.646   6.700   9.669  1.00  0.00    -0.395 OA
HETATM   15  H   UNK     1      59.063   6.462  10.512  1.00  0.00     0.209 HD
ENDBRANCH  13  14
ENDBRANCH   5  13
TORSDOF 3
ENDMDL
MODEL 6
REMARK VINA RESULT:      -4.3      2.859      5.556
REMARK  3 active torsions:
REMARK  status: ('A' for Active; 'I' for Inactive)
REMARK    1  A    between atoms: C_3  and  C_7 
REMARK    2  A    between atoms: C_5  and  C_8 
REMARK    3  A    between atoms: C_8  and  O_9 
ROOT
HETATM    1  N   UNK     1      63.094   8.477   3.214  1.00  0.00    -0.351 N 
ATOM      2  HN  UNK     1      63.406   7.637   2.726  1.00  0.00     0.166 HD
HETATM    3  C   UNK     1      63.466   8.822   4.435  1.00  0.00     0.084 A 
HETATM    4  S   UNK     1      62.803  10.319   4.987  1.00  0.00    -0.081 SA
HETATM    5  C   UNK     1      62.217   9.422   2.686  1.00  0.00     0.040 A 
HETATM    6  C   UNK     1      61.944  10.486   3.521  1.00  0.00     0.079 A 
ENDROOT
BRANCH   3   7
HETATM    7  C   UNK     1      64.411   8.066   5.280  1.00  0.00    -0.002 A 
HETATM    8  C   UNK     1      65.787   8.334   5.194  1.00  0.00     0.014 A 
HETATM    9  C   UNK     1      66.702   7.654   6.007  1.00  0.00     0.001 A 
HETATM   10  C   UNK     1      66.257   6.688   6.907  1.00  0.00     0.000 A 
HETATM   11  C   UNK     1      64.900   6.394   6.990  1.00  0.00     0.001 A 
HETATM   12  C   UNK     1      63.985   7.075   6.179  1.00  0.00     0.014 A 
ENDBRANCH   3   7
BRANCH   5  13
HETATM   13  C   UNK     1      61.657   9.206   1.318  1.00  0.00     0.221 C 
BRANCH  13  14
HETATM   14  O   UNK     1      60.262   8.926   1.358  1.00  0.00    -0.395 OA
HETATM   15  H   UNK     1      60.041   8.286   0.664  1.00  0.00     0.209 HD
ENDBRANCH  13  14
ENDBRANCH   5  13
TORSDOF 3
ENDMDL
MODEL 7
REMARK VINA RESULT:      -4.3      2.146      2.495
REMARK  3 active torsions:
REMARK  status: ('A' for Active; 'I' for Inactive)
REMARK    1  A    between atoms: C_3  and  C_7 
REMARK    2  A    between atoms: C_5  and  C_8 
REMARK    3  A    between atoms: C_8  and  O_9 
ROOT
HETATM    1  N   UNK     1      62.541   6.591   4.682  1.00  0.00    -0.351 N 
ATOM      2  HN  UNK     1      61.664   6.318   4.239  1.00  0.00     0.166 HD
HETATM    3  C   UNK     1      63.164   7.740   4.478  1.00  0.00     0.084 A 
HETATM    4  S   UNK     1      64.614   7.939   5.396  1.00  0.00    -0.081 SA
HETATM    5  C   UNK     1      63.251   5.806   5.587  1.00  0.00     0.040 A 
HETATM    6  C   UNK     1      64.408   6.384   6.069  1.00  0.00     0.079 A 
ENDROOT
BRANCH   3   7
HETATM    7  C   UNK     1      62.680   8.822   3.600  1.00  0.00    -0.002 A 
HETATM    8  C   UNK     1      62.357  10.073   4.153  1.00  0.00     0.014 A 
HETATM    9  C   UNK     1      61.926  11.128   3.338  1.00  0.00     0.001 A 
HETATM   10  C   UNK     1      61.799  10.944   1.963  1.00  0.00     0.000 A 
HETATM   11  C   UNK     1      62.094   9.706   1.401  1.00  0.00     0.001 A 
HETATM   12  C   UNK     1      62.526   8.653   2.214  1.00  0.00     0.014 A 
ENDBRANCH   3   7
BRANCH   5  13
HETATM   13  C   UNK     1      62.728   4.452   5.938  1.00  0.00     0.221 C 
BRANCH  13  14
HETATM   14  O   UNK     1      63.491   3.845   6.975  1.00  0.00    -0.395 OA
HETATM   15  H   UNK     1      63.952   4.532   7.481  1.00  0.00     0.209 HD
ENDBRANCH  13  14
ENDBRANCH   5  13
TORSDOF 3
ENDMDL
MODEL 8
REMARK VINA RESULT:      -4.2     11.680     12.719
REMARK  3 active torsions:
REMARK  status: ('A' for Active; 'I' for Inactive)
REMARK    1  A    between atoms: C_3  and  C_7 
REMARK    2  A    between atoms: C_5  and  C_8 
REMARK    3  A    between atoms: C_8  and  O_9 
ROOT
HETATM    1  N   UNK     1      63.377  -0.516  13.142  1.00  0.00    -0.351 N 
ATOM      2  HN  UNK     1      63.346  -0.546  14.161  1.00  0.00     0.166 HD
HETATM    3  C   UNK     1      62.314  -0.474  12.356  1.00  0.00     0.084 A 
HETATM    4  S   UNK     1      62.677  -0.393  10.669  1.00  0.00    -0.081 SA
HETATM    5  C   UNK     1      64.545  -0.514  12.383  1.00  0.00     0.040 A 
HETATM    6  C   UNK     1      64.347  -0.457  11.019  1.00  0.00     0.079 A 
ENDROOT
BRANCH   3   7
HETATM    7  C   UNK     1      60.915  -0.436  12.823  1.00  0.00    -0.002 A 
HETATM    8  C   UNK     1      60.314  -1.608  13.312  1.00  0.00     0.014 A 
HETATM    9  C   UNK     1      58.998  -1.594  13.791  1.00  0.00     0.001 A 
HETATM   10  C   UNK     1      58.261  -0.412  13.778  1.00  0.00     0.000 A 
HETATM   11  C   UNK     1      58.833   0.754  13.278  1.00  0.00     0.001 A 
HETATM   12  C   UNK     1      60.148   0.740  12.801  1.00  0.00     0.014 A 
ENDBRANCH   3   7
BRANCH   5  13
HETATM   13  C   UNK     1      65.863  -0.582  13.082  1.00  0.00     0.221 C 
BRANCH  13  14
HETATM   14  O   UNK     1      66.272   0.694  13.560  1.00  0.00    -0.395 OA
HETATM   15  H   UNK     1      67.215   0.667  13.788  1.00  0.00     0.209 HD
ENDBRANCH  13  14
ENDBRANCH   5  13
TORSDOF 3
ENDMDL
MODEL 9
REMARK VINA RESULT:      -4.2      3.253      3.908
REMARK  3 active torsions:
REMARK  status: ('A' for Active; 'I' for Inactive)
REMARK    1  A    between atoms: C_3  and  C_7 
REMARK    2  A    between atoms: C_5  and  C_8 
REMARK    3  A    between atoms: C_8  and  O_9 
ROOT
HETATM    1  N   UNK     1      60.789   6.883   4.558  1.00  0.00    -0.351 N 
ATOM      2  HN  UNK     1      59.970   6.899   3.950  1.00  0.00     0.166 HD
HETATM    3  C   UNK     1      61.784   7.753   4.506  1.00  0.00     0.084 A 
HETATM    4  S   UNK     1      63.020   7.494   5.685  1.00  0.00    -0.081 SA
HETATM    5  C   UNK     1      61.017   5.940   5.558  1.00  0.00     0.040 A 
HETATM    6  C   UNK     1      62.189   6.120   6.264  1.00  0.00     0.079 A 
ENDROOT
BRANCH   3   7
HETATM    7  C   UNK     1      61.859   8.901   3.583  1.00  0.00    -0.002 A 
HETATM    8  C   UNK     1      61.958   8.676   2.199  1.00  0.00     0.014 A 
HETATM    9  C   UNK     1      61.998   9.747   1.299  1.00  0.00     0.001 A 
HETATM   10  C   UNK     1      61.953  11.058   1.767  1.00  0.00     0.000 A 
HETATM   11  C   UNK     1      61.876  11.301   3.135  1.00  0.00     0.001 A 
HETATM   12  C   UNK     1      61.834  10.231   4.035  1.00  0.00     0.014 A 
ENDBRANCH   3   7
BRANCH   5  13
HETATM   13  C   UNK     1      60.018   4.850   5.766  1.00  0.00     0.221 C 
BRANCH  13  14
HETATM   14  O   UNK     1      58.769   5.360   6.218  1.00  0.00    -0.395 OA
HETATM   15  H   UNK     1      58.059   4.749   5.963  1.00  0.00     0.209 HD
ENDBRANCH  13  14
ENDBRANCH   5  13
TORSDOF 3
ENDMDL
