MODEL 1
REMARK VINA RESULT:      -5.2      0.000      0.000
REMARK  3 active torsions:
REMARK  status: ('A' for Active; 'I' for Inactive)
REMARK    1  A    between atoms: N_1  and  C_3 
REMARK    2  A    between atoms: C_12  and  C_15 
REMARK    3  A    between atoms: O_14  and  C_15 
ROOT
HETATM    1  C   UNL     1      63.740   8.311   4.690  1.00  0.00     0.030 A 
HETATM    2  C   UNL     1      63.389   7.962   3.378  1.00  0.00     0.030 A 
HETATM    3  C   UNL     1      63.270   9.546   5.162  1.00  0.00     0.030 A 
HETATM    4  C   UNL     1      62.504  10.402   4.366  1.00  0.00     0.011 A 
HETATM    5  C   UNL     1      62.614   8.810   2.573  1.00  0.00     0.011 A 
HETATM    6  C   UNL     1      62.175  10.042   3.057  1.00  0.00    -0.035 A 
ENDROOT
BRANCH   1   7
HETATM    7  N   UNL     1      64.571   7.539   5.483  1.00  0.00    -0.378 N 
HETATM    8  C   UNL     1      65.951   7.952   5.778  1.00  0.00     0.150 C 
HETATM    9  C   UNL     1      66.380   7.355   7.142  1.00  0.00     0.254 C 
HETATM   10  N   UNL     1      66.242   5.881   7.204  1.00  0.00    -0.072 N 
HETATM   11  C   UNL     1      64.856   5.499   6.842  1.00  0.00     0.254 C 
HETATM   12  C   UNL     1      66.566   5.399   8.547  1.00  0.00     0.269 C 
HETATM   13  H   UNL     1      66.890   5.454   6.543  1.00  0.00     0.279 HD
HETATM   14  C   UNL     1      64.406   6.072   5.477  1.00  0.00     0.150 C 
ENDBRANCH   1   7
BRANCH   6  15
HETATM   15  C   UNL     1      61.377  10.982   2.193  1.00  0.00     0.202 C 
BRANCH  15  16
HETATM   16  O   UNL     1      62.138  12.142   1.878  1.00  0.00    -0.396 OA
HETATM   17  H   UNL     1      62.911  12.189   2.460  1.00  0.00     0.209 HD
ENDBRANCH  15  16
ENDBRANCH   6  15
TORSDOF 3
ENDMDL
MODEL 2
REMARK VINA RESULT:      -4.9      2.244      2.885
REMARK  3 active torsions:
REMARK  status: ('A' for Active; 'I' for Inactive)
REMARK    1  A    between atoms: N_1  and  C_3 
REMARK    2  A    between atoms: C_12  and  C_15 
REMARK    3  A    between atoms: O_14  and  C_15 
ROOT
HETATM    1  C   UNL     1      62.442   7.926   3.945  1.00  0.00     0.030 A 
HETATM    2  C   UNL     1      61.143   7.410   4.069  1.00  0.00     0.030 A 
HETATM    3  C   UNL     1      62.762   8.544   2.726  1.00  0.00     0.030 A 
HETATM    4  C   UNL     1      61.844   8.630   1.675  1.00  0.00     0.011 A 
HETATM    5  C   UNL     1      60.213   7.498   3.023  1.00  0.00     0.011 A 
HETATM    6  C   UNL     1      60.560   8.099   1.813  1.00  0.00    -0.035 A 
ENDROOT
BRANCH   1   7
HETATM    7  N   UNL     1      63.412   7.783   4.923  1.00  0.00    -0.378 N 
HETATM    8  C   UNL     1      63.128   7.094   6.190  1.00  0.00     0.150 C 
HETATM    9  C   UNL     1      64.440   6.484   6.741  1.00  0.00     0.254 C 
HETATM   10  N   UNL     1      65.524   7.481   6.910  1.00  0.00    -0.072 N 
HETATM   11  C   UNL     1      65.739   8.197   5.629  1.00  0.00     0.254 C 
HETATM   12  C   UNL     1      66.758   6.820   7.335  1.00  0.00     0.269 C 
HETATM   13  H   UNL     1      65.254   8.152   7.628  1.00  0.00     0.279 HD
HETATM   14  C   UNL     1      64.445   8.828   5.062  1.00  0.00     0.150 C 
ENDBRANCH   1   7
BRANCH   6  15
HETATM   15  C   UNL     1      59.587   8.165   0.666  1.00  0.00     0.202 C 
BRANCH  15  16
HETATM   16  O   UNL     1      58.256   8.315   1.145  1.00  0.00    -0.396 OA
HETATM   17  H   UNL     1      57.752   8.869   0.530  1.00  0.00     0.209 HD
ENDBRANCH  15  16
ENDBRANCH   6  15
TORSDOF 3
ENDMDL
MODEL 3
REMARK VINA RESULT:      -4.9      1.268      1.392
REMARK  3 active torsions:
REMARK  status: ('A' for Active; 'I' for Inactive)
REMARK    1  A    between atoms: N_1  and  C_3 
REMARK    2  A    between atoms: C_12  and  C_15 
REMARK    3  A    between atoms: O_14  and  C_15 
ROOT
HETATM    1  C   UNL     1      64.617   7.621   4.960  1.00  0.00     0.030 A 
HETATM    2  C   UNL     1      64.173   7.093   3.739  1.00  0.00     0.030 A 
HETATM    3  C   UNL     1      64.074   8.856   5.348  1.00  0.00     0.030 A 
HETATM    4  C   UNL     1      63.149   9.541   4.556  1.00  0.00     0.011 A 
HETATM    5  C   UNL     1      63.239   7.769   2.940  1.00  0.00     0.011 A 
HETATM    6  C   UNL     1      62.728   9.005   3.337  1.00  0.00    -0.035 A 
ENDROOT
BRANCH   1   7
HETATM    7  N   UNL     1      65.598   7.024   5.733  1.00  0.00    -0.378 N 
HETATM    8  C   UNL     1      66.450   7.812   6.635  1.00  0.00     0.150 C 
HETATM    9  C   UNL     1      66.915   6.915   7.809  1.00  0.00     0.254 C 
HETATM   10  N   UNL     1      67.608   5.683   7.365  1.00  0.00    -0.072 N 
HETATM   11  C   UNL     1      66.744   4.947   6.411  1.00  0.00     0.254 C 
HETATM   12  C   UNL     1      67.926   4.838   8.516  1.00  0.00     0.269 C 
HETATM   13  H   UNL     1      68.479   5.937   6.901  1.00  0.00     0.279 HD
HETATM   14  C   UNL     1      66.276   5.818   5.220  1.00  0.00     0.150 C 
ENDBRANCH   1   7
BRANCH   6  15
HETATM   15  C   UNL     1      61.757   9.763   2.473  1.00  0.00     0.202 C 
BRANCH  15  16
HETATM   16  O   UNL     1      61.242  10.892   3.167  1.00  0.00    -0.396 OA
HETATM   17  H   UNL     1      60.350  10.694   3.490  1.00  0.00     0.209 HD
ENDBRANCH  15  16
ENDBRANCH   6  15
TORSDOF 3
ENDMDL
MODEL 4
REMARK VINA RESULT:      -4.7      1.718      2.251
REMARK  3 active torsions:
REMARK  status: ('A' for Active; 'I' for Inactive)
REMARK    1  A    between atoms: N_1  and  C_3 
REMARK    2  A    between atoms: C_12  and  C_15 
REMARK    3  A    between atoms: O_14  and  C_15 
ROOT
HETATM    1  C   UNL     1      64.891   7.607   4.845  1.00  0.00     0.030 A 
HETATM    2  C   UNL     1      64.125   8.767   5.031  1.00  0.00     0.030 A 
HETATM    3  C   UNL     1      64.600   6.834   3.710  1.00  0.00     0.030 A 
HETATM    4  C   UNL     1      63.586   7.185   2.813  1.00  0.00     0.011 A 
HETATM    5  C   UNL     1      63.111   9.131   4.134  1.00  0.00     0.011 A 
HETATM    6  C   UNL     1      62.826   8.337   3.023  1.00  0.00    -0.035 A 
ENDROOT
BRANCH   1   7
HETATM    7  N   UNL     1      65.841   7.171   5.752  1.00  0.00    -0.378 N 
HETATM    8  C   UNL     1      66.510   8.104   6.670  1.00  0.00     0.150 C 
HETATM    9  C   UNL     1      66.938   7.341   7.949  1.00  0.00     0.254 C 
HETATM   10  N   UNL     1      67.795   6.166   7.669  1.00  0.00    -0.072 N 
HETATM   11  C   UNL     1      67.115   5.280   6.694  1.00  0.00     0.254 C 
HETATM   12  C   UNL     1      68.075   5.437   8.906  1.00  0.00     0.269 C 
HETATM   13  H   UNL     1      68.680   6.481   7.273  1.00  0.00     0.279 HD
HETATM   14  C   UNL     1      66.688   6.015   5.401  1.00  0.00     0.150 C 
ENDBRANCH   1   7
BRANCH   6  15
HETATM   15  C   UNL     1      61.714   8.693   2.073  1.00  0.00     0.202 C 
BRANCH  15  16
HETATM   16  O   UNL     1      60.493   8.880   2.776  1.00  0.00    -0.396 OA
HETATM   17  H   UNL     1      60.656   9.405   3.574  1.00  0.00     0.209 HD
ENDBRANCH  15  16
ENDBRANCH   6  15
TORSDOF 3
ENDMDL
MODEL 5
REMARK VINA RESULT:      -4.6      1.534      2.596
REMARK  3 active torsions:
REMARK  status: ('A' for Active; 'I' for Inactive)
REMARK    1  A    between atoms: N_1  and  C_3 
REMARK    2  A    between atoms: C_12  and  C_15 
REMARK    3  A    between atoms: O_14  and  C_15 
ROOT
HETATM    1  C   UNL     1      64.294   7.001   5.872  1.00  0.00     0.030 A 
HETATM    2  C   UNL     1      64.827   8.247   5.512  1.00  0.00     0.030 A 
HETATM    3  C   UNL     1      62.975   6.738   5.469  1.00  0.00     0.030 A 
HETATM    4  C   UNL     1      62.217   7.673   4.758  1.00  0.00     0.011 A 
HETATM    5  C   UNL     1      64.077   9.189   4.793  1.00  0.00     0.011 A 
HETATM    6  C   UNL     1      62.762   8.914   4.419  1.00  0.00    -0.035 A 
ENDROOT
BRANCH   1   7
HETATM    7  N   UNL     1      64.974   6.081   6.653  1.00  0.00    -0.378 N 
HETATM    8  C   UNL     1      64.473   4.712   6.837  1.00  0.00     0.150 C 
HETATM    9  C   UNL     1      65.668   3.767   7.116  1.00  0.00     0.254 C 
HETATM   10  N   UNL     1      66.491   4.191   8.273  1.00  0.00    -0.072 N 
HETATM   11  C   UNL     1      66.926   5.595   8.080  1.00  0.00     0.254 C 
HETATM   12  C   UNL     1      67.655   3.315   8.414  1.00  0.00     0.269 C 
HETATM   13  H   UNL     1      65.934   4.127   9.124  1.00  0.00     0.279 HD
HETATM   14  C   UNL     1      65.750   6.564   7.812  1.00  0.00     0.150 C 
ENDBRANCH   1   7
BRANCH   6  15
HETATM   15  C   UNL     1      61.930   9.929   3.683  1.00  0.00     0.202 C 
BRANCH  15  16
HETATM   16  O   UNL     1      61.944  11.178   4.362  1.00  0.00    -0.396 OA
HETATM   17  H   UNL     1      62.383  11.841   3.810  1.00  0.00     0.209 HD
ENDBRANCH  15  16
ENDBRANCH   6  15
TORSDOF 3
ENDMDL
MODEL 6
REMARK VINA RESULT:      -4.4      3.232      6.157
REMARK  3 active torsions:
REMARK  status: ('A' for Active; 'I' for Inactive)
REMARK    1  A    between atoms: N_1  and  C_3 
REMARK    2  A    between atoms: C_12  and  C_15 
REMARK    3  A    between atoms: O_14  and  C_15 
ROOT
HETATM    1  C   UNL     1      63.270   7.637   4.548  1.00  0.00     0.030 A 
HETATM    2  C   UNL     1      63.176   6.635   5.524  1.00  0.00     0.030 A 
HETATM    3  C   UNL     1      64.443   8.408   4.545  1.00  0.00     0.030 A 
HETATM    4  C   UNL     1      65.466   8.205   5.476  1.00  0.00     0.011 A 
HETATM    5  C   UNL     1      64.200   6.419   6.458  1.00  0.00     0.011 A 
HETATM    6  C   UNL     1      65.349   7.209   6.448  1.00  0.00    -0.035 A 
ENDROOT
BRANCH   1   7
HETATM    7  N   UNL     1      62.246   7.935   3.665  1.00  0.00    -0.378 N 
HETATM    8  C   UNL     1      62.267   9.157   2.848  1.00  0.00     0.150 C 
HETATM    9  C   UNL     1      61.465   8.913   1.546  1.00  0.00     0.254 C 
HETATM   10  N   UNL     1      60.074   8.463   1.792  1.00  0.00    -0.072 N 
HETATM   11  C   UNL     1      60.091   7.266   2.668  1.00  0.00     0.254 C 
HETATM   12  C   UNL     1      59.411   8.155   0.525  1.00  0.00     0.269 C 
HETATM   13  H   UNL     1      59.556   9.209   2.254  1.00  0.00     0.279 HD
HETATM   14  C   UNL     1      60.876   7.487   3.983  1.00  0.00     0.150 C 
ENDBRANCH   1   7
BRANCH   6  15
HETATM   15  C   UNL     1      66.439   7.018   7.469  1.00  0.00     0.202 C 
BRANCH  15  16
HETATM   16  O   UNL     1      67.244   8.185   7.568  1.00  0.00    -0.396 OA
HETATM   17  H   UNL     1      67.471   8.343   8.497  1.00  0.00     0.209 HD
ENDBRANCH  15  16
ENDBRANCH   6  15
TORSDOF 3
ENDMDL
MODEL 7
REMARK VINA RESULT:      -4.0      3.795      5.936
REMARK  3 active torsions:
REMARK  status: ('A' for Active; 'I' for Inactive)
REMARK    1  A    between atoms: N_1  and  C_3 
REMARK    2  A    between atoms: C_12  and  C_15 
REMARK    3  A    between atoms: O_14  and  C_15 
ROOT
HETATM    1  C   UNL     1      62.768   7.069   5.214  1.00  0.00     0.030 A 
HETATM    2  C   UNL     1      63.446   6.380   6.230  1.00  0.00     0.030 A 
HETATM    3  C   UNL     1      63.495   8.052   4.524  1.00  0.00     0.030 A 
HETATM    4  C   UNL     1      64.824   8.349   4.839  1.00  0.00     0.011 A 
HETATM    5  C   UNL     1      64.782   6.666   6.548  1.00  0.00     0.011 A 
HETATM    6  C   UNL     1      65.479   7.660   5.863  1.00  0.00    -0.035 A 
ENDROOT
BRANCH   1   7
HETATM    7  N   UNL     1      61.427   6.874   4.929  1.00  0.00    -0.378 N 
HETATM    8  C   UNL     1      60.661   5.787   5.555  1.00  0.00     0.150 C 
HETATM    9  C   UNL     1      59.168   6.195   5.630  1.00  0.00     0.254 C 
HETATM   10  N   UNL     1      58.594   6.560   4.314  1.00  0.00    -0.072 N 
HETATM   11  C   UNL     1      59.428   7.614   3.688  1.00  0.00     0.254 C 
HETATM   12  C   UNL     1      57.219   7.031   4.475  1.00  0.00     0.269 C 
HETATM   13  H   UNL     1      58.586   5.739   3.711  1.00  0.00     0.279 HD
HETATM   14  C   UNL     1      60.923   7.227   3.588  1.00  0.00     0.150 C 
ENDBRANCH   1   7
BRANCH   6  15
HETATM   15  C   UNL     1      66.899   8.007   6.218  1.00  0.00     0.202 C 
BRANCH  15  16
HETATM   16  O   UNL     1      66.938   8.862   7.354  1.00  0.00    -0.396 OA
HETATM   17  H   UNL     1      67.662   9.498   7.256  1.00  0.00     0.209 HD
ENDBRANCH  15  16
ENDBRANCH   6  15
TORSDOF 3
ENDMDL
MODEL 8
REMARK VINA RESULT:      -4.0      2.239      3.297
REMARK  3 active torsions:
REMARK  status: ('A' for Active; 'I' for Inactive)
REMARK    1  A    between atoms: N_1  and  C_3 
REMARK    2  A    between atoms: C_12  and  C_15 
REMARK    3  A    between atoms: O_14  and  C_15 
ROOT
HETATM    1  C   UNL     1      63.141   7.410   3.628  1.00  0.00     0.030 A 
HETATM    2  C   UNL     1      63.233   8.364   4.653  1.00  0.00     0.030 A 
HETATM    3  C   UNL     1      62.595   7.844   2.411  1.00  0.00     0.030 A 
HETATM    4  C   UNL     1      62.145   9.154   2.224  1.00  0.00     0.011 A 
HETATM    5  C   UNL     1      62.791   9.682   4.474  1.00  0.00     0.011 A 
HETATM    6  C   UNL     1      62.233  10.086   3.261  1.00  0.00    -0.035 A 
ENDROOT
BRANCH   1   7
HETATM    7  N   UNL     1      63.488   6.081   3.796  1.00  0.00    -0.378 N 
HETATM    8  C   UNL     1      62.501   5.003   3.633  1.00  0.00     0.150 C 
HETATM    9  C   UNL     1      63.229   3.710   3.191  1.00  0.00     0.254 C 
HETATM   10  N   UNL     1      64.311   3.302   4.116  1.00  0.00    -0.072 N 
HETATM   11  C   UNL     1      65.252   4.433   4.304  1.00  0.00     0.254 C 
HETATM   12  C   UNL     1      65.019   2.136   3.586  1.00  0.00     0.269 C 
HETATM   13  H   UNL     1      63.907   3.051   5.017  1.00  0.00     0.279 HD
HETATM   14  C   UNL     1      64.553   5.736   4.758  1.00  0.00     0.150 C 
ENDBRANCH   1   7
BRANCH   6  15
HETATM   15  C   UNL     1      61.717  11.486   3.064  1.00  0.00     0.202 C 
BRANCH  15  16
HETATM   16  O   UNL     1      62.167  12.017   1.825  1.00  0.00    -0.396 OA
HETATM   17  H   UNL     1      62.893  12.640   1.984  1.00  0.00     0.209 HD
ENDBRANCH  15  16
ENDBRANCH   6  15
TORSDOF 3
ENDMDL
MODEL 9
REMARK VINA RESULT:      -4.0      5.938      7.960
REMARK  3 active torsions:
REMARK  status: ('A' for Active; 'I' for Inactive)
REMARK    1  A    between atoms: N_1  and  C_3 
REMARK    2  A    between atoms: C_12  and  C_15 
REMARK    3  A    between atoms: O_14  and  C_15 
ROOT
HETATM    1  C   UNL     1      59.144   6.156   5.551  1.00  0.00     0.030 A 
HETATM    2  C   UNL     1      60.252   5.795   6.332  1.00  0.00     0.030 A 
HETATM    3  C   UNL     1      57.883   5.767   6.027  1.00  0.00     0.030 A 
HETATM    4  C   UNL     1      57.729   5.039   7.211  1.00  0.00     0.011 A 
HETATM    5  C   UNL     1      60.108   5.072   7.524  1.00  0.00     0.011 A 
HETATM    6  C   UNL     1      58.845   4.678   7.968  1.00  0.00    -0.035 A 
ENDROOT
BRANCH   1   7
HETATM    7  N   UNL     1      59.254   6.796   4.328  1.00  0.00    -0.378 N 
HETATM    8  C   UNL     1      60.508   7.439   3.908  1.00  0.00     0.150 C 
HETATM    9  C   UNL     1      60.588   7.437   2.362  1.00  0.00     0.254 C 
HETATM   10  N   UNL     1      59.420   8.078   1.714  1.00  0.00    -0.072 N 
HETATM   11  C   UNL     1      58.173   7.444   2.207  1.00  0.00     0.254 C 
HETATM   12  C   UNL     1      59.513   7.948   0.260  1.00  0.00     0.269 C 
HETATM   13  H   UNL     1      59.406   9.069   1.950  1.00  0.00     0.279 HD
HETATM   14  C   UNL     1      58.061   7.444   3.751  1.00  0.00     0.150 C 
ENDBRANCH   1   7
BRANCH   6  15
HETATM   15  C   UNL     1      58.676   3.867   9.224  1.00  0.00     0.202 C 
BRANCH  15  16
HETATM   16  O   UNL     1      58.646   4.711  10.367  1.00  0.00    -0.396 OA
HETATM   17  H   UNL     1      59.257   4.370  11.038  1.00  0.00     0.209 HD
ENDBRANCH  15  16
ENDBRANCH   6  15
TORSDOF 3
ENDMDL
