MODEL 1
REMARK VINA RESULT:      -5.2      0.000      0.000
REMARK  2 active torsions:
REMARK  status: ('A' for Active; 'I' for Inactive)
REMARK    1  A    between atoms: C_1  and  C_5 
REMARK    2  A    between atoms: C_6  and  C_12 
ROOT
HETATM    1  S   UNL     1      63.179   9.673   5.128  1.00  0.00    -0.081 SA
HETATM    2  C   UNL     1      63.404   8.019   4.770  1.00  0.00     0.033 A 
HETATM    3  C   UNL     1      62.401   9.972   3.634  1.00  0.00     0.082 A 
HETATM    4  C   UNL     1      62.860   7.684   3.548  1.00  0.00     0.023 A 
HETATM    5  C   UNL     1      62.257   8.805   2.906  1.00  0.00     0.027 A 
ENDROOT
BRANCH   2   6
HETATM    6  C   UNL     1      64.116   7.039   5.651  1.00  0.00     0.056 A 
HETATM    7  N   UNL     1      64.976   7.464   6.652  1.00  0.00    -0.353 N 
HETATM    8  C   UNL     1      65.414   6.428   7.336  1.00  0.00     0.047 A 
ATOM      9  HN  UNL     1      65.230   8.435   6.832  1.00  0.00     0.166 HD
HETATM   10  S   UNL     1      64.897   4.891   6.764  1.00  0.00    -0.087 SA
HETATM   11  C   UNL     1      66.273   6.514   8.547  1.00  0.00     0.076 C 
HETATM   12  C   UNL     1      63.960   5.669   5.562  1.00  0.00     0.082 A 
ENDBRANCH   2   6
BRANCH   3  13
HETATM   13  C   UNL     1      62.005  11.319   3.300  1.00  0.00     0.216 C 
HETATM   14  O   UNL     1      61.820  11.816   2.200  1.00  0.00    -0.643 OA
HETATM   15  O   UNL     1      61.809  12.064   4.413  1.00  0.00    -0.643 OA
ENDBRANCH   3  13
TORSDOF 2
ENDMDL
MODEL 2
REMARK VINA RESULT:      -5.0      1.286      1.579
REMARK  2 active torsions:
REMARK  status: ('A' for Active; 'I' for Inactive)
REMARK    1  A    between atoms: C_1  and  C_5 
REMARK    2  A    between atoms: C_6  and  C_12 
ROOT
HETATM    1  S   UNL     1      63.648   9.219   5.082  1.00  0.00    -0.081 SA
HETATM    2  C   UNL     1      64.401   7.716   4.787  1.00  0.00     0.033 A 
HETATM    3  C   UNL     1      62.814   9.183   3.589  1.00  0.00     0.082 A 
HETATM    4  C   UNL     1      63.996   7.170   3.588  1.00  0.00     0.023 A 
HETATM    5  C   UNL     1      63.058   8.003   2.910  1.00  0.00     0.027 A 
ENDROOT
BRANCH   2   6
HETATM    6  C   UNL     1      65.396   7.061   5.696  1.00  0.00     0.056 A 
HETATM    7  N   UNL     1      65.350   7.252   7.069  1.00  0.00    -0.353 N 
HETATM    8  C   UNL     1      66.271   6.515   7.653  1.00  0.00     0.047 A 
ATOM      9  HN  UNL     1      64.701   7.872   7.553  1.00  0.00     0.166 HD
HETATM   10  S   UNL     1      67.295   5.629   6.594  1.00  0.00    -0.087 SA
HETATM   11  C   UNL     1      66.446   6.389   9.125  1.00  0.00     0.076 C 
HETATM   12  C   UNL     1      66.395   6.213   5.260  1.00  0.00     0.082 A 
ENDBRANCH   2   6
BRANCH   3  13
HETATM   13  C   UNL     1      61.998  10.311   3.207  1.00  0.00     0.216 C 
HETATM   14  O   UNL     1      61.581  11.227   3.898  1.00  0.00    -0.643 OA
HETATM   15  O   UNL     1      61.718  10.289   1.883  1.00  0.00    -0.643 OA
ENDBRANCH   3  13
TORSDOF 2
ENDMDL
MODEL 3
REMARK VINA RESULT:      -4.7      3.999      6.353
REMARK  2 active torsions:
REMARK  status: ('A' for Active; 'I' for Inactive)
REMARK    1  A    between atoms: C_1  and  C_5 
REMARK    2  A    between atoms: C_6  and  C_12 
ROOT
HETATM    1  S   UNL     1      63.939   6.528   6.402  1.00  0.00    -0.081 SA
HETATM    2  C   UNL     1      64.451   7.873   5.483  1.00  0.00     0.033 A 
HETATM    3  C   UNL     1      65.512   6.252   7.017  1.00  0.00     0.082 A 
HETATM    4  C   UNL     1      65.791   8.137   5.670  1.00  0.00     0.023 A 
HETATM    5  C   UNL     1      66.396   7.218   6.577  1.00  0.00     0.027 A 
ENDROOT
BRANCH   2   6
HETATM    6  C   UNL     1      63.574   8.671   4.567  1.00  0.00     0.056 A 
HETATM    7  N   UNL     1      63.347   8.271   3.259  1.00  0.00    -0.353 N 
HETATM    8  C   UNL     1      62.487   9.085   2.685  1.00  0.00     0.047 A 
ATOM      9  HN  UNL     1      63.782   7.465   2.809  1.00  0.00     0.166 HD
HETATM   10  S   UNL     1      61.976  10.419   3.642  1.00  0.00    -0.087 SA
HETATM   11  C   UNL     1      61.932   8.903   1.317  1.00  0.00     0.076 C 
HETATM   12  C   UNL     1      62.914   9.824   4.945  1.00  0.00     0.082 A 
ENDBRANCH   2   6
BRANCH   3  13
HETATM   13  C   UNL     1      65.746   5.112   7.872  1.00  0.00     0.216 C 
HETATM   14  O   UNL     1      66.489   5.013   8.835  1.00  0.00    -0.643 OA
HETATM   15  O   UNL     1      64.984   4.056   7.502  1.00  0.00    -0.643 OA
ENDBRANCH   3  13
TORSDOF 2
ENDMDL
MODEL 4
REMARK VINA RESULT:      -4.7      3.976      6.179
REMARK  2 active torsions:
REMARK  status: ('A' for Active; 'I' for Inactive)
REMARK    1  A    between atoms: C_1  and  C_5 
REMARK    2  A    between atoms: C_6  and  C_12 
ROOT
HETATM    1  S   UNL     1      64.294   6.590   6.561  1.00  0.00    -0.081 SA
HETATM    2  C   UNL     1      64.666   7.787   5.403  1.00  0.00     0.033 A 
HETATM    3  C   UNL     1      65.833   6.712   7.298  1.00  0.00     0.082 A 
HETATM    4  C   UNL     1      65.929   8.305   5.594  1.00  0.00     0.023 A 
HETATM    5  C   UNL     1      66.592   7.704   6.705  1.00  0.00     0.027 A 
ENDROOT
BRANCH   2   6
HETATM    6  C   UNL     1      63.755   8.224   4.296  1.00  0.00     0.056 A 
HETATM    7  N   UNL     1      63.141   9.467   4.320  1.00  0.00    -0.353 N 
HETATM    8  C   UNL     1      62.459   9.649   3.208  1.00  0.00     0.047 A 
ATOM      9  HN  UNL     1      63.207  10.139   5.084  1.00  0.00     0.166 HD
HETATM   10  S   UNL     1      62.441   8.317   2.122  1.00  0.00    -0.087 SA
HETATM   11  C   UNL     1      61.757  10.909   2.843  1.00  0.00     0.076 C 
HETATM   12  C   UNL     1      63.482   7.460   3.178  1.00  0.00     0.082 A 
ENDBRANCH   2   6
BRANCH   3  13
HETATM   13  C   UNL     1      66.169   5.825   8.386  1.00  0.00     0.216 C 
HETATM   14  O   UNL     1      66.036   4.613   8.459  1.00  0.00    -0.643 OA
HETATM   15  O   UNL     1      66.722   6.502   9.419  1.00  0.00    -0.643 OA
ENDBRANCH   3  13
TORSDOF 2
ENDMDL
MODEL 5
REMARK VINA RESULT:      -4.5      2.027      2.452
REMARK  2 active torsions:
REMARK  status: ('A' for Active; 'I' for Inactive)
REMARK    1  A    between atoms: C_1  and  C_5 
REMARK    2  A    between atoms: C_6  and  C_12 
ROOT
HETATM    1  S   UNL     1      63.633   7.472   3.382  1.00  0.00    -0.081 SA
HETATM    2  C   UNL     1      64.271   8.173   4.801  1.00  0.00     0.033 A 
HETATM    3  C   UNL     1      62.477   8.719   3.192  1.00  0.00     0.082 A 
HETATM    4  C   UNL     1      63.644   9.361   5.109  1.00  0.00     0.023 A 
HETATM    5  C   UNL     1      62.628   9.690   4.164  1.00  0.00     0.027 A 
ENDROOT
BRANCH   2   6
HETATM    6  C   UNL     1      65.366   7.579   5.635  1.00  0.00     0.056 A 
HETATM    7  N   UNL     1      65.210   7.397   7.001  1.00  0.00    -0.353 N 
HETATM    8  C   UNL     1      66.270   6.791   7.494  1.00  0.00     0.047 A 
ATOM      9  HN  UNL     1      64.397   7.690   7.543  1.00  0.00     0.166 HD
HETATM   10  S   UNL     1      67.540   6.489   6.376  1.00  0.00    -0.087 SA
HETATM   11  C   UNL     1      66.407   6.343   8.906  1.00  0.00     0.076 C 
HETATM   12  C   UNL     1      66.575   7.148   5.125  1.00  0.00     0.082 A 
ENDBRANCH   2   6
BRANCH   3  13
HETATM   13  C   UNL     1      61.521   8.638   2.114  1.00  0.00     0.216 C 
HETATM   14  O   UNL     1      60.502   7.969   2.039  1.00  0.00    -0.643 OA
HETATM   15  O   UNL     1      61.859   9.462   1.094  1.00  0.00    -0.643 OA
ENDBRANCH   3  13
TORSDOF 2
ENDMDL
MODEL 6
REMARK VINA RESULT:      -4.4      3.870      5.936
REMARK  2 active torsions:
REMARK  status: ('A' for Active; 'I' for Inactive)
REMARK    1  A    between atoms: C_1  and  C_5 
REMARK    2  A    between atoms: C_6  and  C_12 
ROOT
HETATM    1  S   UNL     1      63.446   7.447   3.878  1.00  0.00    -0.081 SA
HETATM    2  C   UNL     1      62.149   8.494   3.512  1.00  0.00     0.033 A 
HETATM    3  C   UNL     1      64.186   8.598   4.906  1.00  0.00     0.082 A 
HETATM    4  C   UNL     1      62.250   9.689   4.191  1.00  0.00     0.023 A 
HETATM    5  C   UNL     1      63.412   9.737   5.017  1.00  0.00     0.027 A 
ENDROOT
BRANCH   2   6
HETATM    6  C   UNL     1      61.035   8.180   2.559  1.00  0.00     0.056 A 
HETATM    7  N   UNL     1      59.804   7.733   3.015  1.00  0.00    -0.353 N 
HETATM    8  C   UNL     1      58.972   7.605   2.003  1.00  0.00     0.047 A 
ATOM      9  HN  UNL     1      59.576   7.534   3.989  1.00  0.00     0.166 HD
HETATM   10  S   UNL     1      59.639   7.920   0.450  1.00  0.00    -0.087 SA
HETATM   11  C   UNL     1      57.535   7.244   2.129  1.00  0.00     0.076 C 
HETATM   12  C   UNL     1      61.127   8.333   1.190  1.00  0.00     0.082 A 
ENDBRANCH   2   6
BRANCH   3  13
HETATM   13  C   UNL     1      65.461   8.290   5.509  1.00  0.00     0.216 C 
HETATM   14  O   UNL     1      66.585   8.496   5.079  1.00  0.00    -0.643 OA
HETATM   15  O   UNL     1      65.304   7.716   6.725  1.00  0.00    -0.643 OA
ENDBRANCH   3  13
TORSDOF 2
ENDMDL
MODEL 7
REMARK VINA RESULT:      -4.2      4.341      5.558
REMARK  2 active torsions:
REMARK  status: ('A' for Active; 'I' for Inactive)
REMARK    1  A    between atoms: C_1  and  C_5 
REMARK    2  A    between atoms: C_6  and  C_12 
ROOT
HETATM    1  S   UNL     1      59.177   7.219   2.811  1.00  0.00    -0.081 SA
HETATM    2  C   UNL     1      60.514   8.151   2.304  1.00  0.00     0.033 A 
HETATM    3  C   UNL     1      58.497   7.198   1.241  1.00  0.00     0.082 A 
HETATM    4  C   UNL     1      60.470   8.413   0.952  1.00  0.00     0.023 A 
HETATM    5  C   UNL     1      59.320   7.838   0.333  1.00  0.00     0.027 A 
ENDROOT
BRANCH   2   6
HETATM    6  C   UNL     1      61.604   8.650   3.205  1.00  0.00     0.056 A 
HETATM    7  N   UNL     1      61.538   9.909   3.783  1.00  0.00    -0.353 N 
HETATM    8  C   UNL     1      62.565  10.084   4.588  1.00  0.00     0.047 A 
ATOM      9  HN  UNL     1      60.804  10.596   3.610  1.00  0.00     0.166 HD
HETATM   10  S   UNL     1      63.705   8.798   4.627  1.00  0.00    -0.087 SA
HETATM   11  C   UNL     1      62.766  11.276   5.456  1.00  0.00     0.076 C 
HETATM   12  C   UNL     1      62.718   7.910   3.547  1.00  0.00     0.082 A 
ENDBRANCH   2   6
BRANCH   3  13
HETATM   13  C   UNL     1      57.217   6.564   1.033  1.00  0.00     0.216 C 
HETATM   14  O   UNL     1      56.108   7.071   0.984  1.00  0.00    -0.643 OA
HETATM   15  O   UNL     1      57.353   5.229   0.854  1.00  0.00    -0.643 OA
ENDBRANCH   3  13
TORSDOF 2
ENDMDL
MODEL 8
REMARK VINA RESULT:      -4.0      4.169      5.975
REMARK  2 active torsions:
REMARK  status: ('A' for Active; 'I' for Inactive)
REMARK    1  A    between atoms: C_1  and  C_5 
REMARK    2  A    between atoms: C_6  and  C_12 
ROOT
HETATM    1  S   UNL     1      62.222   7.249   4.433  1.00  0.00    -0.081 SA
HETATM    2  C   UNL     1      61.104   8.195   3.557  1.00  0.00     0.033 A 
HETATM    3  C   UNL     1      63.300   8.563   4.628  1.00  0.00     0.082 A 
HETATM    4  C   UNL     1      61.520   9.504   3.446  1.00  0.00     0.023 A 
HETATM    5  C   UNL     1      62.775   9.722   4.089  1.00  0.00     0.027 A 
ENDROOT
BRANCH   2   6
HETATM    6  C   UNL     1      59.829   7.683   2.959  1.00  0.00     0.056 A 
HETATM    7  N   UNL     1      58.754   7.323   3.757  1.00  0.00    -0.353 N 
HETATM    8  C   UNL     1      57.731   6.983   3.002  1.00  0.00     0.047 A 
ATOM      9  HN  UNL     1      58.756   7.322   4.777  1.00  0.00     0.166 HD
HETATM   10  S   UNL     1      58.025   6.987   1.308  1.00  0.00    -0.087 SA
HETATM   11  C   UNL     1      56.377   6.639   3.515  1.00  0.00     0.076 C 
HETATM   12  C   UNL     1      59.613   7.557   1.600  1.00  0.00     0.082 A 
ENDBRANCH   2   6
BRANCH   3  13
HETATM   13  C   UNL     1      64.567   8.347   5.285  1.00  0.00     0.216 C 
HETATM   14  O   UNL     1      65.219   7.319   5.379  1.00  0.00    -0.643 OA
HETATM   15  O   UNL     1      65.041   9.493   5.828  1.00  0.00    -0.643 OA
ENDBRANCH   3  13
TORSDOF 2
ENDMDL
MODEL 9
REMARK VINA RESULT:      -4.0      3.312      4.025
REMARK  2 active torsions:
REMARK  status: ('A' for Active; 'I' for Inactive)
REMARK    1  A    between atoms: C_1  and  C_5 
REMARK    2  A    between atoms: C_6  and  C_12 
ROOT
HETATM    1  S   UNL     1      61.278   6.824   2.587  1.00  0.00    -0.081 SA
HETATM    2  C   UNL     1      62.568   7.932   2.729  1.00  0.00     0.033 A 
HETATM    3  C   UNL     1      60.444   7.817   1.470  1.00  0.00     0.082 A 
HETATM    4  C   UNL     1      62.392   9.027   1.909  1.00  0.00     0.023 A 
HETATM    5  C   UNL     1      61.180   8.946   1.162  1.00  0.00     0.027 A 
ENDROOT
BRANCH   2   6
HETATM    6  C   UNL     1      63.748   7.766   3.638  1.00  0.00     0.056 A 
HETATM    7  N   UNL     1      64.668   6.747   3.443  1.00  0.00    -0.353 N 
HETATM    8  C   UNL     1      65.648   6.857   4.315  1.00  0.00     0.047 A 
ATOM      9  HN  UNL     1      64.596   6.021   2.730  1.00  0.00     0.166 HD
HETATM   10  S   UNL     1      65.477   8.122   5.467  1.00  0.00    -0.087 SA
HETATM   11  C   UNL     1      66.862   5.999   4.336  1.00  0.00     0.076 C 
HETATM   12  C   UNL     1      64.026   8.605   4.699  1.00  0.00     0.082 A 
ENDBRANCH   2   6
BRANCH   3  13
HETATM   13  C   UNL     1      59.143   7.410   0.997  1.00  0.00     0.216 C 
HETATM   14  O   UNL     1      58.056   7.927   1.198  1.00  0.00    -0.643 OA
HETATM   15  O   UNL     1      59.227   6.310   0.212  1.00  0.00    -0.643 OA
ENDBRANCH   3  13
TORSDOF 2
ENDMDL
