MODEL 1
REMARK VINA RESULT:      -5.0      0.000      0.000
REMARK  3 active torsions:
REMARK  status: ('A' for Active; 'I' for Inactive)
REMARK    1  A    between atoms: N_1  and  C_4 
REMARK    2  A    between atoms: C_12  and  C_14 
REMARK    3  A    between atoms: O_13  and  C_14 
ROOT
HETATM    1  C   UNL     1      63.683   8.583   4.914  1.00  0.00     0.056 A 
HETATM    2  C   UNL     1      63.388   8.122   3.622  1.00  0.00     0.032 A 
HETATM    3  C   UNL     1      63.208   9.837   5.316  1.00  0.00     0.032 A 
HETATM    4  C   UNL     1      62.459  10.624   4.436  1.00  0.00     0.011 A 
HETATM    5  C   UNL     1      62.635   8.911   2.747  1.00  0.00     0.011 A 
HETATM    6  C   UNL     1      62.169  10.173   3.144  1.00  0.00    -0.035 A 
ENDROOT
BRANCH   1   7
HETATM    7  N   UNL     1      64.473   7.779   5.785  1.00  0.00    -0.268 N 
HETATM    8  N   UNL     1      65.678   8.214   6.243  1.00  0.00    -0.305 N 
HETATM    9  C   UNL     1      66.102   7.249   7.057  1.00  0.00     0.109 A 
ATOM     10  HN  UNL     1      66.153   9.086   6.012  1.00  0.00     0.186 HD
HETATM   11  C   UNL     1      65.206   6.173   7.129  1.00  0.00     0.038 A 
HETATM   12  C   UNL     1      64.174   6.531   6.295  1.00  0.00     0.118 A 
ENDBRANCH   1   7
BRANCH   6  13
HETATM   13  C   UNL     1      61.374  11.025   2.192  1.00  0.00     0.202 C 
BRANCH  13  14
HETATM   14  O   UNL     1      62.109  12.184   1.818  1.00  0.00    -0.396 OA
HETATM   15  H   UNL     1      61.589  12.976   2.025  1.00  0.00     0.209 HD
ENDBRANCH  13  14
ENDBRANCH   6  13
TORSDOF 3
ENDMDL
MODEL 2
REMARK VINA RESULT:      -5.0      0.565      1.035
REMARK  3 active torsions:
REMARK  status: ('A' for Active; 'I' for Inactive)
REMARK    1  A    between atoms: N_1  and  C_4 
REMARK    2  A    between atoms: C_12  and  C_14 
REMARK    3  A    between atoms: O_13  and  C_14 
ROOT
HETATM    1  C   UNL     1      63.863   8.750   4.976  1.00  0.00     0.056 A 
HETATM    2  C   UNL     1      63.537   8.238   3.712  1.00  0.00     0.032 A 
HETATM    3  C   UNL     1      63.348   9.993   5.362  1.00  0.00     0.032 A 
HETATM    4  C   UNL     1      62.530  10.720   4.492  1.00  0.00     0.011 A 
HETATM    5  C   UNL     1      62.715   8.967   2.846  1.00  0.00     0.011 A 
HETATM    6  C   UNL     1      62.209  10.218   3.227  1.00  0.00    -0.035 A 
ENDROOT
BRANCH   1   7
HETATM    7  N   UNL     1      64.723   8.008   5.836  1.00  0.00    -0.268 N 
HETATM    8  N   UNL     1      64.222   7.105   6.722  1.00  0.00    -0.305 N 
HETATM    9  C   UNL     1      65.293   6.573   7.309  1.00  0.00     0.109 A 
ATOM     10  HN  UNL     1      63.243   6.884   6.898  1.00  0.00     0.186 HD
HETATM   11  C   UNL     1      66.493   7.126   6.841  1.00  0.00     0.038 A 
HETATM   12  C   UNL     1      66.101   8.052   5.905  1.00  0.00     0.118 A 
ENDBRANCH   1   7
BRANCH   6  13
HETATM   13  C   UNL     1      61.339  11.005   2.284  1.00  0.00     0.202 C 
BRANCH  13  14
HETATM   14  O   UNL     1      62.029  12.148   1.796  1.00  0.00    -0.396 OA
HETATM   15  H   UNL     1      61.622  12.442   0.966  1.00  0.00     0.209 HD
ENDBRANCH  13  14
ENDBRANCH   6  13
TORSDOF 3
ENDMDL
MODEL 3
REMARK VINA RESULT:      -4.8      3.058      4.608
REMARK  3 active torsions:
REMARK  status: ('A' for Active; 'I' for Inactive)
REMARK    1  A    between atoms: N_1  and  C_4 
REMARK    2  A    between atoms: C_12  and  C_14 
REMARK    3  A    between atoms: O_13  and  C_14 
ROOT
HETATM    1  C   UNL     1      62.408   8.649   3.006  1.00  0.00     0.056 A 
HETATM    2  C   UNL     1      63.298   8.356   4.049  1.00  0.00     0.032 A 
HETATM    3  C   UNL     1      61.771   9.895   2.982  1.00  0.00     0.032 A 
HETATM    4  C   UNL     1      62.011  10.831   3.993  1.00  0.00     0.011 A 
HETATM    5  C   UNL     1      63.539   9.296   5.056  1.00  0.00     0.011 A 
HETATM    6  C   UNL     1      62.891  10.540   5.041  1.00  0.00    -0.035 A 
ENDROOT
BRANCH   1   7
HETATM    7  N   UNL     1      62.154   7.672   2.001  1.00  0.00    -0.268 N 
HETATM    8  N   UNL     1      62.599   6.393   2.135  1.00  0.00    -0.305 N 
HETATM    9  C   UNL     1      62.142   5.758   1.057  1.00  0.00     0.109 A 
ATOM     10  HN  UNL     1      63.158   6.006   2.894  1.00  0.00     0.186 HD
HETATM   11  C   UNL     1      61.421   6.602   0.201  1.00  0.00     0.038 A 
HETATM   12  C   UNL     1      61.452   7.827   0.821  1.00  0.00     0.118 A 
ENDBRANCH   1   7
BRANCH   6  13
HETATM   13  C   UNL     1      63.141  11.541   6.137  1.00  0.00     0.202 C 
BRANCH  13  14
HETATM   14  O   UNL     1      64.513  11.548   6.511  1.00  0.00    -0.396 OA
HETATM   15  H   UNL     1      64.628  11.034   7.325  1.00  0.00     0.209 HD
ENDBRANCH  13  14
ENDBRANCH   6  13
TORSDOF 3
ENDMDL
MODEL 4
REMARK VINA RESULT:      -4.7      1.097      1.932
REMARK  3 active torsions:
REMARK  status: ('A' for Active; 'I' for Inactive)
REMARK    1  A    between atoms: N_1  and  C_4 
REMARK    2  A    between atoms: C_12  and  C_14 
REMARK    3  A    between atoms: O_13  and  C_14 
ROOT
HETATM    1  C   UNL     1      64.251   8.131   4.938  1.00  0.00     0.056 A 
HETATM    2  C   UNL     1      63.563   9.340   5.115  1.00  0.00     0.032 A 
HETATM    3  C   UNL     1      64.047   7.394   3.766  1.00  0.00     0.032 A 
HETATM    4  C   UNL     1      63.157   7.852   2.789  1.00  0.00     0.011 A 
HETATM    5  C   UNL     1      62.677   9.797   4.133  1.00  0.00     0.011 A 
HETATM    6  C   UNL     1      62.461   9.053   2.964  1.00  0.00    -0.035 A 
ENDROOT
BRANCH   1   7
HETATM    7  N   UNL     1      65.130   7.666   5.958  1.00  0.00    -0.268 N 
HETATM    8  N   UNL     1      64.664   6.944   7.013  1.00  0.00    -0.305 N 
HETATM    9  C   UNL     1      65.749   6.639   7.724  1.00  0.00     0.109 A 
ATOM     10  HN  UNL     1      63.697   6.691   7.214  1.00  0.00     0.186 HD
HETATM   11  C   UNL     1      66.922   7.167   7.168  1.00  0.00     0.038 A 
HETATM   12  C   UNL     1      66.499   7.831   6.042  1.00  0.00     0.118 A 
ENDBRANCH   1   7
BRANCH   6  13
HETATM   13  C   UNL     1      61.494   9.541   1.920  1.00  0.00     0.202 C 
BRANCH  13  14
HETATM   14  O   UNL     1      61.322  10.949   2.010  1.00  0.00    -0.396 OA
HETATM   15  H   UNL     1      60.379  11.155   2.095  1.00  0.00     0.209 HD
ENDBRANCH  13  14
ENDBRANCH   6  13
TORSDOF 3
ENDMDL
MODEL 5
REMARK VINA RESULT:      -4.5      3.117      5.590
REMARK  3 active torsions:
REMARK  status: ('A' for Active; 'I' for Inactive)
REMARK    1  A    between atoms: N_1  and  C_4 
REMARK    2  A    between atoms: C_12  and  C_14 
REMARK    3  A    between atoms: O_13  and  C_14 
ROOT
HETATM    1  C   UNL     1      64.054   8.290   5.114  1.00  0.00     0.056 A 
HETATM    2  C   UNL     1      63.555   7.224   5.878  1.00  0.00     0.032 A 
HETATM    3  C   UNL     1      65.397   8.661   5.254  1.00  0.00     0.032 A 
HETATM    4  C   UNL     1      66.227   7.984   6.154  1.00  0.00     0.011 A 
HETATM    5  C   UNL     1      64.390   6.548   6.773  1.00  0.00     0.011 A 
HETATM    6  C   UNL     1      65.732   6.926   6.924  1.00  0.00    -0.035 A 
ENDROOT
BRANCH   1   7
HETATM    7  N   UNL     1      63.185   8.986   4.226  1.00  0.00    -0.268 N 
HETATM    8  N   UNL     1      62.631  10.178   4.575  1.00  0.00    -0.305 N 
HETATM    9  C   UNL     1      61.934  10.557   3.505  1.00  0.00     0.109 A 
ATOM     10  HN  UNL     1      62.727  10.673   5.461  1.00  0.00     0.186 HD
HETATM   11  C   UNL     1      62.001   9.624   2.461  1.00  0.00     0.038 A 
HETATM   12  C   UNL     1      62.801   8.619   2.951  1.00  0.00     0.118 A 
ENDBRANCH   1   7
BRANCH   6  13
HETATM   13  C   UNL     1      66.620   6.205   7.902  1.00  0.00     0.202 C 
BRANCH  13  14
HETATM   14  O   UNL     1      67.471   7.121   8.580  1.00  0.00    -0.396 OA
HETATM   15  H   UNL     1      67.987   6.647   9.251  1.00  0.00     0.209 HD
ENDBRANCH  13  14
ENDBRANCH   6  13
TORSDOF 3
ENDMDL
MODEL 6
REMARK VINA RESULT:      -4.0      3.336      5.598
REMARK  3 active torsions:
REMARK  status: ('A' for Active; 'I' for Inactive)
REMARK    1  A    between atoms: N_1  and  C_4 
REMARK    2  A    between atoms: C_12  and  C_14 
REMARK    3  A    between atoms: O_13  and  C_14 
ROOT
HETATM    1  C   UNL     1      63.118   7.888   3.245  1.00  0.00     0.056 A 
HETATM    2  C   UNL     1      63.209   8.934   4.175  1.00  0.00     0.032 A 
HETATM    3  C   UNL     1      64.099   6.890   3.241  1.00  0.00     0.032 A 
HETATM    4  C   UNL     1      65.164   6.942   4.146  1.00  0.00     0.011 A 
HETATM    5  C   UNL     1      64.273   8.980   5.081  1.00  0.00     0.011 A 
HETATM    6  C   UNL     1      65.264   7.988   5.070  1.00  0.00    -0.035 A 
ENDROOT
BRANCH   1   7
HETATM    7  N   UNL     1      62.042   7.868   2.311  1.00  0.00    -0.268 N 
HETATM    8  N   UNL     1      61.174   6.822   2.260  1.00  0.00    -0.305 N 
HETATM    9  C   UNL     1      60.286   7.160   1.327  1.00  0.00     0.109 A 
ATOM     10  HN  UNL     1      61.198   5.967   2.814  1.00  0.00     0.186 HD
HETATM   11  C   UNL     1      60.565   8.404   0.744  1.00  0.00     0.038 A 
HETATM   12  C   UNL     1      61.703   8.834   1.384  1.00  0.00     0.118 A 
ENDBRANCH   1   7
BRANCH   6  13
HETATM   13  C   UNL     1      66.416   8.052   6.036  1.00  0.00     0.202 C 
BRANCH  13  14
HETATM   14  O   UNL     1      66.041   7.529   7.304  1.00  0.00    -0.396 OA
HETATM   15  H   UNL     1      66.801   7.077   7.704  1.00  0.00     0.209 HD
ENDBRANCH  13  14
ENDBRANCH   6  13
TORSDOF 3
ENDMDL
MODEL 7
REMARK VINA RESULT:      -4.0      2.690      3.215
REMARK  3 active torsions:
REMARK  status: ('A' for Active; 'I' for Inactive)
REMARK    1  A    between atoms: N_1  and  C_4 
REMARK    2  A    between atoms: C_12  and  C_14 
REMARK    3  A    between atoms: O_13  and  C_14 
ROOT
HETATM    1  C   UNL     1      62.684   7.941   3.058  1.00  0.00     0.056 A 
HETATM    2  C   UNL     1      61.572   7.155   3.396  1.00  0.00     0.032 A 
HETATM    3  C   UNL     1      62.622   8.760   1.925  1.00  0.00     0.032 A 
HETATM    4  C   UNL     1      61.470   8.785   1.133  1.00  0.00     0.011 A 
HETATM    5  C   UNL     1      60.420   7.186   2.603  1.00  0.00     0.011 A 
HETATM    6  C   UNL     1      60.361   7.997   1.460  1.00  0.00    -0.035 A 
ENDROOT
BRANCH   1   7
HETATM    7  N   UNL     1      63.860   7.879   3.860  1.00  0.00    -0.268 N 
HETATM    8  N   UNL     1      64.126   8.833   4.791  1.00  0.00    -0.305 N 
HETATM    9  C   UNL     1      65.255   8.434   5.375  1.00  0.00     0.109 A 
ATOM     10  HN  UNL     1      63.582   9.670   4.997  1.00  0.00     0.186 HD
HETATM   11  C   UNL     1      65.751   7.242   4.830  1.00  0.00     0.038 A 
HETATM   12  C   UNL     1      64.845   6.911   3.851  1.00  0.00     0.118 A 
ENDBRANCH   1   7
BRANCH   6  13
HETATM   13  C   UNL     1      59.125   8.012   0.602  1.00  0.00     0.202 C 
BRANCH  13  14
HETATM   14  O   UNL     1      57.954   8.077   1.406  1.00  0.00    -0.396 OA
HETATM   15  H   UNL     1      58.205   8.224   2.331  1.00  0.00     0.209 HD
ENDBRANCH  13  14
ENDBRANCH   6  13
TORSDOF 3
ENDMDL
MODEL 8
REMARK VINA RESULT:      -3.9      3.273      5.200
REMARK  3 active torsions:
REMARK  status: ('A' for Active; 'I' for Inactive)
REMARK    1  A    between atoms: N_1  and  C_4 
REMARK    2  A    between atoms: C_12  and  C_14 
REMARK    3  A    between atoms: O_13  and  C_14 
ROOT
HETATM    1  C   UNL     1      61.595   8.714   3.390  1.00  0.00     0.056 A 
HETATM    2  C   UNL     1      61.605  10.104   3.575  1.00  0.00     0.032 A 
HETATM    3  C   UNL     1      62.502   7.923   4.105  1.00  0.00     0.032 A 
HETATM    4  C   UNL     1      63.415   8.515   4.984  1.00  0.00     0.011 A 
HETATM    5  C   UNL     1      62.517  10.691   4.459  1.00  0.00     0.011 A 
HETATM    6  C   UNL     1      63.435   9.901   5.166  1.00  0.00    -0.035 A 
ENDROOT
BRANCH   1   7
HETATM    7  N   UNL     1      60.678   8.132   2.467  1.00  0.00    -0.268 N 
HETATM    8  N   UNL     1      60.122   8.871   1.470  1.00  0.00    -0.305 N 
HETATM    9  C   UNL     1      59.373   8.009   0.784  1.00  0.00     0.109 A 
ATOM     10  HN  UNL     1      60.249   9.866   1.287  1.00  0.00     0.186 HD
HETATM   11  C   UNL     1      59.409   6.716   1.324  1.00  0.00     0.038 A 
HETATM   12  C   UNL     1      60.244   6.823   2.411  1.00  0.00     0.118 A 
ENDBRANCH   1   7
BRANCH   6  13
HETATM   13  C   UNL     1      64.425  10.541   6.102  1.00  0.00     0.202 C 
BRANCH  13  14
HETATM   14  O   UNL     1      63.906  11.753   6.634  1.00  0.00    -0.396 OA
HETATM   15  H   UNL     1      62.939  11.697   6.681  1.00  0.00     0.209 HD
ENDBRANCH  13  14
ENDBRANCH   6  13
TORSDOF 3
ENDMDL
MODEL 9
REMARK VINA RESULT:      -3.8      3.559      5.548
REMARK  3 active torsions:
REMARK  status: ('A' for Active; 'I' for Inactive)
REMARK    1  A    between atoms: N_1  and  C_4 
REMARK    2  A    between atoms: C_12  and  C_14 
REMARK    3  A    between atoms: O_13  and  C_14 
ROOT
HETATM    1  C   UNL     1      62.571   7.971   2.872  1.00  0.00     0.056 A 
HETATM    2  C   UNL     1      63.573   6.991   2.919  1.00  0.00     0.032 A 
HETATM    3  C   UNL     1      62.612   9.035   3.781  1.00  0.00     0.032 A 
HETATM    4  C   UNL     1      63.634   9.111   4.733  1.00  0.00     0.011 A 
HETATM    5  C   UNL     1      64.596   7.074   3.870  1.00  0.00     0.011 A 
HETATM    6  C   UNL     1      64.632   8.132   4.790  1.00  0.00    -0.035 A 
ENDROOT
BRANCH   1   7
HETATM    7  N   UNL     1      61.521   7.859   1.915  1.00  0.00    -0.268 N 
HETATM    8  N   UNL     1      60.481   8.736   1.907  1.00  0.00    -0.305 N 
HETATM    9  C   UNL     1      59.734   8.369   0.868  1.00  0.00     0.109 A 
ATOM     10  HN  UNL     1      60.311   9.504   2.555  1.00  0.00     0.186 HD
HETATM   11  C   UNL     1      60.252   7.251   0.200  1.00  0.00     0.038 A 
HETATM   12  C   UNL     1      61.393   6.934   0.898  1.00  0.00     0.118 A 
ENDBRANCH   1   7
BRANCH   6  13
HETATM   13  C   UNL     1      65.725   8.206   5.821  1.00  0.00     0.202 C 
BRANCH  13  14
HETATM   14  O   UNL     1      66.196   6.906   6.151  1.00  0.00    -0.396 OA
HETATM   15  H   UNL     1      66.827   6.610   5.476  1.00  0.00     0.209 HD
ENDBRANCH  13  14
ENDBRANCH   6  13
TORSDOF 3
ENDMDL
