MODEL 1
REMARK VINA RESULT:      -5.3      0.000      0.000
REMARK  3 active torsions:
REMARK  status: ('A' for Active; 'I' for Inactive)
REMARK    1  A    between atoms: C_3  and  C_7 
REMARK    2  A    between atoms: C_5  and  C_8 
REMARK    3  A    between atoms: C_8  and  N_9 
ROOT
HETATM    1  N   UNL     1      64.740   8.334   5.198  1.00  0.00    -0.351 N 
ATOM      2  HN  UNL     1      65.431   8.983   4.822  1.00  0.00     0.166 HD
HETATM    3  C   UNL     1      63.462   8.315   4.863  1.00  0.00     0.084 A 
HETATM    4  S   UNL     1      62.539   7.066   5.618  1.00  0.00    -0.081 SA
HETATM    5  C   UNL     1      65.008   7.342   6.137  1.00  0.00     0.042 A 
HETATM    6  C   UNL     1      63.922   6.560   6.476  1.00  0.00     0.078 A 
ENDROOT
BRANCH   3   7
HETATM    7  C   UNL     1      62.834   9.219   3.885  1.00  0.00    -0.002 A 
HETATM    8  C   UNL     1      62.446  10.510   4.272  1.00  0.00     0.014 A 
HETATM    9  C   UNL     1      61.883  11.397   3.348  1.00  0.00     0.001 A 
HETATM   10  C   UNL     1      61.688  10.999   2.028  1.00  0.00     0.000 A 
HETATM   11  C   UNL     1      62.042   9.714   1.630  1.00  0.00     0.001 A 
HETATM   12  C   UNL     1      62.606   8.830   2.552  1.00  0.00     0.014 A 
ENDBRANCH   3   7
BRANCH   5  13
HETATM   13  C   UNL     1      66.390   7.206   6.689  1.00  0.00     0.286 C 
BRANCH  13  14
HETATM   14  N   UNL     1      66.891   8.533   7.038  1.00  0.00    -0.074 N 
HETATM   15  H   UNL     1      66.928   8.626   8.054  1.00  0.00     0.274 HD
HETATM   16  H   UNL     1      66.267   9.243   6.655  1.00  0.00     0.274 HD
HETATM   17  H   UNL     1      67.826   8.657   6.651  1.00  0.00     0.274 HD
ENDBRANCH  13  14
ENDBRANCH   5  13
TORSDOF 3
ENDMDL
MODEL 2
REMARK VINA RESULT:      -5.2      0.481      1.420
REMARK  3 active torsions:
REMARK  status: ('A' for Active; 'I' for Inactive)
REMARK    1  A    between atoms: C_3  and  C_7 
REMARK    2  A    between atoms: C_5  and  C_8 
REMARK    3  A    between atoms: C_8  and  N_9 
ROOT
HETATM    1  N   UNL     1      64.778   8.323   5.760  1.00  0.00    -0.351 N 
ATOM      2  HN  UNL     1      65.367   9.153   5.689  1.00  0.00     0.166 HD
HETATM    3  C   UNL     1      63.613   8.172   5.156  1.00  0.00     0.084 A 
HETATM    4  S   UNL     1      62.865   6.636   5.413  1.00  0.00    -0.081 SA
HETATM    5  C   UNL     1      65.087   7.190   6.508  1.00  0.00     0.042 A 
HETATM    6  C   UNL     1      64.153   6.176   6.430  1.00  0.00     0.078 A 
ENDROOT
BRANCH   3   7
HETATM    7  C   UNL     1      62.984   9.169   4.274  1.00  0.00    -0.002 A 
HETATM    8  C   UNL     1      62.713   8.849   2.936  1.00  0.00     0.014 A 
HETATM    9  C   UNL     1      62.080   9.770   2.093  1.00  0.00     0.001 A 
HETATM   10  C   UNL     1      61.723  11.026   2.575  1.00  0.00     0.000 A 
HETATM   11  C   UNL     1      62.005  11.372   3.893  1.00  0.00     0.001 A 
HETATM   12  C   UNL     1      62.635  10.452   4.734  1.00  0.00     0.014 A 
ENDBRANCH   3   7
BRANCH   5  13
HETATM   13  C   UNL     1      66.348   7.158   7.309  1.00  0.00     0.286 C 
BRANCH  13  14
HETATM   14  N   UNL     1      66.993   8.467   7.224  1.00  0.00    -0.074 N 
HETATM   15  H   UNL     1      66.315   9.195   7.452  1.00  0.00     0.274 HD
HETATM   16  H   UNL     1      67.342   8.612   6.277  1.00  0.00     0.274 HD
HETATM   17  H   UNL     1      67.769   8.507   7.883  1.00  0.00     0.274 HD
ENDBRANCH  13  14
ENDBRANCH   5  13
TORSDOF 3
ENDMDL
MODEL 3
REMARK VINA RESULT:      -5.1      1.387      1.539
REMARK  3 active torsions:
REMARK  status: ('A' for Active; 'I' for Inactive)
REMARK    1  A    between atoms: C_3  and  C_7 
REMARK    2  A    between atoms: C_5  and  C_8 
REMARK    3  A    between atoms: C_8  and  N_9 
ROOT
HETATM    1  N   UNL     1      64.704   7.827   6.369  1.00  0.00    -0.351 N 
ATOM      2  HN  UNL     1      64.416   8.490   7.089  1.00  0.00     0.166 HD
HETATM    3  C   UNL     1      64.337   7.884   5.101  1.00  0.00     0.084 A 
HETATM    4  S   UNL     1      65.028   6.659   4.098  1.00  0.00    -0.081 SA
HETATM    5  C   UNL     1      65.539   6.733   6.583  1.00  0.00     0.042 A 
HETATM    6  C   UNL     1      65.818   5.992   5.453  1.00  0.00     0.078 A 
ENDROOT
BRANCH   3   7
HETATM    7  C   UNL     1      63.465   8.918   4.521  1.00  0.00    -0.002 A 
HETATM    8  C   UNL     1      63.214  10.102   5.230  1.00  0.00     0.014 A 
HETATM    9  C   UNL     1      62.420  11.114   4.679  1.00  0.00     0.001 A 
HETATM   10  C   UNL     1      61.855  10.948   3.417  1.00  0.00     0.000 A 
HETATM   11  C   UNL     1      62.071   9.770   2.708  1.00  0.00     0.001 A 
HETATM   12  C   UNL     1      62.865   8.762   3.258  1.00  0.00     0.014 A 
ENDBRANCH   3   7
BRANCH   5  13
HETATM   13  C   UNL     1      66.045   6.452   7.960  1.00  0.00     0.286 C 
BRANCH  13  14
HETATM   14  N   UNL     1      67.188   7.323   8.229  1.00  0.00    -0.074 N 
HETATM   15  H   UNL     1      66.878   8.136   8.761  1.00  0.00     0.274 HD
HETATM   16  H   UNL     1      67.596   7.629   7.345  1.00  0.00     0.274 HD
HETATM   17  H   UNL     1      67.886   6.810   8.767  1.00  0.00     0.274 HD
ENDBRANCH  13  14
ENDBRANCH   5  13
TORSDOF 3
ENDMDL
MODEL 4
REMARK VINA RESULT:      -4.8      1.898      5.657
REMARK  3 active torsions:
REMARK  status: ('A' for Active; 'I' for Inactive)
REMARK    1  A    between atoms: C_3  and  C_7 
REMARK    2  A    between atoms: C_5  and  C_8 
REMARK    3  A    between atoms: C_8  and  N_9 
ROOT
HETATM    1  N   UNL     1      64.444   9.007   5.775  1.00  0.00    -0.351 N 
ATOM      2  HN  UNL     1      64.822   9.433   6.621  1.00  0.00     0.166 HD
HETATM    3  C   UNL     1      64.841   7.852   5.270  1.00  0.00     0.084 A 
HETATM    4  S   UNL     1      63.980   7.352   3.859  1.00  0.00    -0.081 SA
HETATM    5  C   UNL     1      63.438   9.559   4.987  1.00  0.00     0.042 A 
HETATM    6  C   UNL     1      63.064   8.788   3.905  1.00  0.00     0.078 A 
ENDROOT
BRANCH   3   7
HETATM    7  C   UNL     1      65.882   6.990   5.853  1.00  0.00    -0.002 A 
HETATM    8  C   UNL     1      66.501   6.009   5.065  1.00  0.00     0.014 A 
HETATM    9  C   UNL     1      67.520   5.206   5.590  1.00  0.00     0.001 A 
HETATM   10  C   UNL     1      67.923   5.365   6.914  1.00  0.00     0.000 A 
HETATM   11  C   UNL     1      67.303   6.316   7.719  1.00  0.00     0.001 A 
HETATM   12  C   UNL     1      66.288   7.118   7.194  1.00  0.00     0.014 A 
ENDBRANCH   3   7
BRANCH   5  13
HETATM   13  C   UNL     1      62.865  10.890   5.353  1.00  0.00     0.286 C 
BRANCH  13  14
HETATM   14  N   UNL     1      63.737  11.524   6.339  1.00  0.00    -0.074 N 
HETATM   15  H   UNL     1      64.482  12.029   5.859  1.00  0.00     0.274 HD
HETATM   16  H   UNL     1      64.144  10.808   6.942  1.00  0.00     0.274 HD
HETATM   17  H   UNL     1      63.194  12.176   6.905  1.00  0.00     0.274 HD
ENDBRANCH  13  14
ENDBRANCH   5  13
TORSDOF 3
ENDMDL
MODEL 5
REMARK VINA RESULT:      -4.6      2.140      3.132
REMARK  3 active torsions:
REMARK  status: ('A' for Active; 'I' for Inactive)
REMARK    1  A    between atoms: C_3  and  C_7 
REMARK    2  A    between atoms: C_5  and  C_8 
REMARK    3  A    between atoms: C_8  and  N_9 
ROOT
HETATM    1  N   UNL     1      61.679   7.193   5.197  1.00  0.00    -0.351 N 
ATOM      2  HN  UNL     1      60.681   7.273   5.002  1.00  0.00     0.166 HD
HETATM    3  C   UNL     1      62.613   7.977   4.688  1.00  0.00     0.084 A 
HETATM    4  S   UNL     1      64.213   7.643   5.245  1.00  0.00    -0.081 SA
HETATM    5  C   UNL     1      62.252   6.242   6.038  1.00  0.00     0.042 A 
HETATM    6  C   UNL     1      63.621   6.346   6.177  1.00  0.00     0.078 A 
ENDROOT
BRANCH   3   7
HETATM    7  C   UNL     1      62.362   9.098   3.767  1.00  0.00    -0.002 A 
HETATM    8  C   UNL     1      62.283   8.867   2.387  1.00  0.00     0.014 A 
HETATM    9  C   UNL     1      62.006   9.913   1.499  1.00  0.00     0.001 A 
HETATM   10  C   UNL     1      61.820  11.206   1.980  1.00  0.00     0.000 A 
HETATM   11  C   UNL     1      61.920  11.461   3.344  1.00  0.00     0.001 A 
HETATM   12  C   UNL     1      62.194  10.417   4.230  1.00  0.00     0.014 A 
ENDBRANCH   3   7
BRANCH   5  13
HETATM   13  C   UNL     1      61.380   5.222   6.696  1.00  0.00     0.286 C 
BRANCH  13  14
HETATM   14  N   UNL     1      60.265   5.905   7.348  1.00  0.00    -0.074 N 
HETATM   15  H   UNL     1      60.208   5.608   8.323  1.00  0.00     0.274 HD
HETATM   16  H   UNL     1      59.396   5.670   6.869  1.00  0.00     0.274 HD
HETATM   17  H   UNL     1      60.414   6.913   7.308  1.00  0.00     0.274 HD
ENDBRANCH  13  14
ENDBRANCH   5  13
TORSDOF 3
ENDMDL
MODEL 6
REMARK VINA RESULT:      -4.5      1.989      2.640
REMARK  3 active torsions:
REMARK  status: ('A' for Active; 'I' for Inactive)
REMARK    1  A    between atoms: C_3  and  C_7 
REMARK    2  A    between atoms: C_5  and  C_8 
REMARK    3  A    between atoms: C_8  and  N_9 
ROOT
HETATM    1  N   UNL     1      64.244   6.553   5.945  1.00  0.00    -0.351 N 
ATOM      2  HN  UNL     1      63.319   6.131   5.854  1.00  0.00     0.166 HD
HETATM    3  C   UNL     1      64.591   7.723   5.441  1.00  0.00     0.084 A 
HETATM    4  S   UNL     1      66.208   8.211   5.804  1.00  0.00    -0.081 SA
HETATM    5  C   UNL     1      65.318   5.977   6.617  1.00  0.00     0.042 A 
HETATM    6  C   UNL     1      66.464   6.746   6.638  1.00  0.00     0.078 A 
ENDROOT
BRANCH   3   7
HETATM    7  C   UNL     1      63.698   8.612   4.678  1.00  0.00    -0.002 A 
HETATM    8  C   UNL     1      63.284   8.249   3.388  1.00  0.00     0.014 A 
HETATM    9  C   UNL     1      62.405   9.061   2.663  1.00  0.00     0.001 A 
HETATM   10  C   UNL     1      61.940  10.253   3.213  1.00  0.00     0.000 A 
HETATM   11  C   UNL     1      62.359  10.643   4.482  1.00  0.00     0.001 A 
HETATM   12  C   UNL     1      63.236   9.831   5.206  1.00  0.00     0.014 A 
ENDBRANCH   3   7
BRANCH   5  13
HETATM   13  C   UNL     1      65.160   4.626   7.236  1.00  0.00     0.286 C 
BRANCH  13  14
HETATM   14  N   UNL     1      66.111   4.499   8.339  1.00  0.00    -0.074 N 
HETATM   15  H   UNL     1      67.061   4.605   7.981  1.00  0.00     0.274 HD
HETATM   16  H   UNL     1      66.010   3.580   8.770  1.00  0.00     0.274 HD
HETATM   17  H   UNL     1      65.926   5.223   9.032  1.00  0.00     0.274 HD
ENDBRANCH  13  14
ENDBRANCH   5  13
TORSDOF 3
ENDMDL
MODEL 7
REMARK VINA RESULT:      -4.5      1.097      1.097
REMARK  3 active torsions:
REMARK  status: ('A' for Active; 'I' for Inactive)
REMARK    1  A    between atoms: C_3  and  C_7 
REMARK    2  A    between atoms: C_5  and  C_8 
REMARK    3  A    between atoms: C_8  and  N_9 
ROOT
HETATM    1  N   UNL     1      64.977   7.297   4.371  1.00  0.00    -0.351 N 
ATOM      2  HN  UNL     1      65.537   7.499   3.543  1.00  0.00     0.166 HD
HETATM    3  C   UNL     1      63.779   7.798   4.613  1.00  0.00     0.084 A 
HETATM    4  S   UNL     1      63.043   7.230   6.069  1.00  0.00    -0.081 SA
HETATM    5  C   UNL     1      65.367   6.453   5.407  1.00  0.00     0.042 A 
HETATM    6  C   UNL     1      64.432   6.303   6.412  1.00  0.00     0.078 A 
ENDROOT
BRANCH   3   7
HETATM    7  C   UNL     1      63.055   8.720   3.722  1.00  0.00    -0.002 A 
HETATM    8  C   UNL     1      62.604   9.955   4.208  1.00  0.00     0.014 A 
HETATM    9  C   UNL     1      61.948  10.862   3.367  1.00  0.00     0.001 A 
HETATM   10  C   UNL     1      61.723  10.537   2.032  1.00  0.00     0.000 A 
HETATM   11  C   UNL     1      62.140   9.306   1.536  1.00  0.00     0.001 A 
HETATM   12  C   UNL     1      62.796   8.403   2.376  1.00  0.00     0.014 A 
ENDBRANCH   3   7
BRANCH   5  13
HETATM   13  C   UNL     1      66.711   5.802   5.360  1.00  0.00     0.286 C 
BRANCH  13  14
HETATM   14  N   UNL     1      67.513   6.299   6.476  1.00  0.00    -0.074 N 
HETATM   15  H   UNL     1      67.812   7.255   6.281  1.00  0.00     0.274 HD
HETATM   16  H   UNL     1      68.333   5.704   6.597  1.00  0.00     0.274 HD
HETATM   17  H   UNL     1      66.955   6.285   7.329  1.00  0.00     0.274 HD
ENDBRANCH  13  14
ENDBRANCH   5  13
TORSDOF 3
ENDMDL
MODEL 8
REMARK VINA RESULT:      -4.4      1.884      5.510
REMARK  3 active torsions:
REMARK  status: ('A' for Active; 'I' for Inactive)
REMARK    1  A    between atoms: C_3  and  C_7 
REMARK    2  A    between atoms: C_5  and  C_8 
REMARK    3  A    between atoms: C_8  and  N_9 
ROOT
HETATM    1  N   UNL     1      63.818   9.292   4.857  1.00  0.00    -0.351 N 
ATOM      2  HN  UNL     1      64.112   9.928   5.599  1.00  0.00     0.166 HD
HETATM    3  C   UNL     1      64.372   8.119   4.606  1.00  0.00     0.084 A 
HETATM    4  S   UNL     1      63.627   7.233   3.324  1.00  0.00    -0.081 SA
HETATM    5  C   UNL     1      62.776   9.536   3.966  1.00  0.00     0.042 A 
HETATM    6  C   UNL     1      62.537   8.518   3.066  1.00  0.00     0.078 A 
ENDROOT
BRANCH   3   7
HETATM    7  C   UNL     1      65.494   7.537   5.361  1.00  0.00    -0.002 A 
HETATM    8  C   UNL     1      65.257   6.909   6.593  1.00  0.00     0.014 A 
HETATM    9  C   UNL     1      66.304   6.315   7.307  1.00  0.00     0.001 A 
HETATM   10  C   UNL     1      67.602   6.354   6.805  1.00  0.00     0.000 A 
HETATM   11  C   UNL     1      67.861   6.994   5.597  1.00  0.00     0.001 A 
HETATM   12  C   UNL     1      66.816   7.585   4.884  1.00  0.00     0.014 A 
ENDBRANCH   3   7
BRANCH   5  13
HETATM   13  C   UNL     1      62.030  10.829   4.043  1.00  0.00     0.286 C 
BRANCH  13  14
HETATM   14  N   UNL     1      61.604  11.207   2.698  1.00  0.00    -0.074 N 
HETATM   15  H   UNL     1      60.910  11.952   2.759  1.00  0.00     0.274 HD
HETATM   16  H   UNL     1      61.195  10.398   2.231  1.00  0.00     0.274 HD
HETATM   17  H   UNL     1      62.410  11.536   2.166  1.00  0.00     0.274 HD
ENDBRANCH  13  14
ENDBRANCH   5  13
TORSDOF 3
ENDMDL
MODEL 9
REMARK VINA RESULT:      -4.2      2.137      5.532
REMARK  3 active torsions:
REMARK  status: ('A' for Active; 'I' for Inactive)
REMARK    1  A    between atoms: C_3  and  C_7 
REMARK    2  A    between atoms: C_5  and  C_8 
REMARK    3  A    between atoms: C_8  and  N_9 
ROOT
HETATM    1  N   UNL     1      63.173   8.476   3.222  1.00  0.00    -0.351 N 
ATOM      2  HN  UNL     1      63.507   7.668   2.696  1.00  0.00     0.166 HD
HETATM    3  C   UNL     1      63.537   8.776   4.456  1.00  0.00     0.084 A 
HETATM    4  S   UNL     1      62.853  10.238   5.072  1.00  0.00    -0.081 SA
HETATM    5  C   UNL     1      62.267   9.418   2.742  1.00  0.00     0.042 A 
HETATM    6  C   UNL     1      61.983  10.444   3.620  1.00  0.00     0.078 A 
ENDROOT
BRANCH   3   7
HETATM    7  C   UNL     1      64.493   8.002   5.265  1.00  0.00    -0.002 A 
HETATM    8  C   UNL     1      65.872   8.198   5.099  1.00  0.00     0.014 A 
HETATM    9  C   UNL     1      66.795   7.500   5.886  1.00  0.00     0.001 A 
HETATM   10  C   UNL     1      66.351   6.588   6.839  1.00  0.00     0.000 A 
HETATM   11  C   UNL     1      64.988   6.361   7.002  1.00  0.00     0.001 A 
HETATM   12  C   UNL     1      64.067   7.058   6.218  1.00  0.00     0.014 A 
ENDBRANCH   3   7
BRANCH   5  13
HETATM   13  C   UNL     1      61.689   9.253   1.374  1.00  0.00     0.286 C 
BRANCH  13  14
HETATM   14  N   UNL     1      60.299   8.821   1.498  1.00  0.00    -0.074 N 
HETATM   15  H   UNL     1      60.101   8.589   2.472  1.00  0.00     0.274 HD
HETATM   16  H   UNL     1      60.145   7.998   0.915  1.00  0.00     0.274 HD
HETATM   17  H   UNL     1      59.681   9.573   1.195  1.00  0.00     0.274 HD
ENDBRANCH  13  14
ENDBRANCH   5  13
TORSDOF 3
ENDMDL
