MODEL 1
REMARK VINA RESULT:      -5.2      0.000      0.000
REMARK  2 active torsions:
REMARK  status: ('A' for Active; 'I' for Inactive)
REMARK    1  A    between atoms: N_1  and  C_5 
REMARK    2  A    between atoms: C_8  and  C_9 
ROOT
HETATM    1  C   UNL     1      64.362   8.170   5.177  1.00  0.00     0.039 A 
HETATM    2  C   UNL     1      62.646   9.280   3.228  1.00  0.00     0.009 A 
HETATM    3  C   UNL     1      63.749   9.414   5.389  1.00  0.00     0.031 A 
HETATM    4  C   UNL     1      64.098   7.481   3.986  1.00  0.00     0.031 A 
HETATM    5  C   UNL     1      63.246   8.032   3.021  1.00  0.00     0.017 A 
HETATM    6  C   UNL     1      62.900   9.966   4.419  1.00  0.00     0.017 A 
ENDROOT
BRANCH   1   7
HETATM    7  N   UNL     1      65.254   7.625   6.147  1.00  0.00    -0.317 N 
HETATM    8  C   UNL     1      66.534   8.050   6.443  1.00  0.00     0.188 A 
HETATM    9  N   UNL     1      67.118   7.312   7.360  1.00  0.00    -0.360 N 
HETATM   10  C   UNL     1      66.192   6.369   7.696  1.00  0.00     0.106 A 
ATOM     11  HN  UNL     1      68.059   7.420   7.738  1.00  0.00     0.166 HD
HETATM   12  C   UNL     1      65.034   6.547   6.979  1.00  0.00     0.115 A 
ENDBRANCH   1   7
BRANCH   2  13
HETATM   13  C   UNL     1      61.764   9.834   2.158  1.00  0.00     0.155 C 
HETATM   14  O   UNL     1      61.072   9.076   1.483  1.00  0.00    -0.293 OA
HETATM   15  C   UNL     1      61.751  11.321   1.920  1.00  0.00     0.096 C 
ENDBRANCH   2  13
TORSDOF 2
ENDMDL
MODEL 2
REMARK VINA RESULT:      -5.1      0.126      1.295
REMARK  2 active torsions:
REMARK  status: ('A' for Active; 'I' for Inactive)
REMARK    1  A    between atoms: N_1  and  C_5 
REMARK    2  A    between atoms: C_8  and  C_9 
ROOT
HETATM    1  C   UNL     1      64.442   8.146   5.187  1.00  0.00     0.039 A 
HETATM    2  C   UNL     1      62.695   9.139   3.204  1.00  0.00     0.009 A 
HETATM    3  C   UNL     1      64.194   7.411   4.019  1.00  0.00     0.031 A 
HETATM    4  C   UNL     1      63.817   9.390   5.348  1.00  0.00     0.031 A 
HETATM    5  C   UNL     1      62.952   9.881   4.363  1.00  0.00     0.017 A 
HETATM    6  C   UNL     1      63.324   7.902   3.037  1.00  0.00     0.017 A 
ENDROOT
BRANCH   1   7
HETATM    7  N   UNL     1      65.298   7.628   6.204  1.00  0.00    -0.317 N 
HETATM    8  C   UNL     1      66.561   8.069   6.542  1.00  0.00     0.188 A 
HETATM    9  N   UNL     1      67.113   7.355   7.498  1.00  0.00    -0.360 N 
HETATM   10  C   UNL     1      66.180   6.413   7.817  1.00  0.00     0.106 A 
ATOM     11  HN  UNL     1      68.037   7.479   7.912  1.00  0.00     0.166 HD
HETATM   12  C   UNL     1      65.051   6.566   7.049  1.00  0.00     0.115 A 
ENDBRANCH   1   7
BRANCH   2  13
HETATM   13  C   UNL     1      61.747   9.698   2.194  1.00  0.00     0.155 C 
HETATM   14  O   UNL     1      60.990   8.947   1.585  1.00  0.00    -0.293 OA
HETATM   15  C   UNL     1      61.750  11.182   1.934  1.00  0.00     0.096 C 
ENDBRANCH   2  13
TORSDOF 2
ENDMDL
MODEL 3
REMARK VINA RESULT:      -5.0      1.744      2.337
REMARK  2 active torsions:
REMARK  status: ('A' for Active; 'I' for Inactive)
REMARK    1  A    between atoms: N_1  and  C_5 
REMARK    2  A    between atoms: C_8  and  C_9 
ROOT
HETATM    1  C   UNL     1      64.539   7.061   6.318  1.00  0.00     0.039 A 
HETATM    2  C   UNL     1      63.001   8.730   4.638  1.00  0.00     0.009 A 
HETATM    3  C   UNL     1      63.160   6.853   6.172  1.00  0.00     0.031 A 
HETATM    4  C   UNL     1      65.144   8.104   5.605  1.00  0.00     0.031 A 
HETATM    5  C   UNL     1      64.380   8.930   4.771  1.00  0.00     0.017 A 
HETATM    6  C   UNL     1      62.397   7.684   5.341  1.00  0.00     0.017 A 
ENDROOT
BRANCH   1   7
HETATM    7  N   UNL     1      65.310   6.238   7.192  1.00  0.00    -0.317 N 
HETATM    8  C   UNL     1      65.284   4.862   7.289  1.00  0.00     0.188 A 
HETATM    9  N   UNL     1      66.084   4.401   8.225  1.00  0.00    -0.360 N 
HETATM   10  C   UNL     1      66.672   5.507   8.762  1.00  0.00     0.106 A 
ATOM     11  HN  UNL     1      66.232   3.428   8.492  1.00  0.00     0.166 HD
HETATM   12  C   UNL     1      66.228   6.647   8.137  1.00  0.00     0.115 A 
ENDBRANCH   1   7
BRANCH   2  13
HETATM   13  C   UNL     1      62.228   9.653   3.755  1.00  0.00     0.155 C 
HETATM   14  O   UNL     1      61.755  10.688   4.216  1.00  0.00    -0.293 OA
HETATM   15  C   UNL     1      62.033   9.284   2.307  1.00  0.00     0.096 C 
ENDBRANCH   2  13
TORSDOF 2
ENDMDL
MODEL 4
REMARK VINA RESULT:      -4.8      3.121      5.937
REMARK  2 active torsions:
REMARK  status: ('A' for Active; 'I' for Inactive)
REMARK    1  A    between atoms: N_1  and  C_5 
REMARK    2  A    between atoms: C_8  and  C_9 
ROOT
HETATM    1  C   UNL     1      63.560   8.298   4.817  1.00  0.00     0.039 A 
HETATM    2  C   UNL     1      65.002   6.744   6.682  1.00  0.00     0.009 A 
HETATM    3  C   UNL     1      62.945   7.228   5.482  1.00  0.00     0.031 A 
HETATM    4  C   UNL     1      64.900   8.592   5.104  1.00  0.00     0.031 A 
HETATM    5  C   UNL     1      65.613   7.821   6.030  1.00  0.00     0.017 A 
HETATM    6  C   UNL     1      63.662   6.455   6.406  1.00  0.00     0.017 A 
ENDROOT
BRANCH   1   7
HETATM    7  N   UNL     1      62.842   9.062   3.850  1.00  0.00    -0.317 N 
HETATM    8  C   UNL     1      62.216  10.278   4.038  1.00  0.00     0.188 A 
HETATM    9  N   UNL     1      61.599  10.707   2.958  1.00  0.00    -0.360 N 
HETATM   10  C   UNL     1      61.832   9.750   2.016  1.00  0.00     0.106 A 
ATOM     11  HN  UNL     1      61.064  11.568   2.850  1.00  0.00     0.166 HD
HETATM   12  C   UNL     1      62.605   8.737   2.531  1.00  0.00     0.115 A 
ENDBRANCH   1   7
BRANCH   2  13
HETATM   13  C   UNL     1      65.812   5.940   7.644  1.00  0.00     0.155 C 
HETATM   14  O   UNL     1      65.481   4.786   7.908  1.00  0.00    -0.293 OA
HETATM   15  C   UNL     1      67.021   6.569   8.285  1.00  0.00     0.096 C 
ENDBRANCH   2  13
TORSDOF 2
ENDMDL
MODEL 5
REMARK VINA RESULT:      -4.8      3.447      5.907
REMARK  2 active torsions:
REMARK  status: ('A' for Active; 'I' for Inactive)
REMARK    1  A    between atoms: N_1  and  C_5 
REMARK    2  A    between atoms: C_8  and  C_9 
ROOT
HETATM    1  C   UNL     1      62.756   8.155   3.285  1.00  0.00     0.039 A 
HETATM    2  C   UNL     1      65.066   8.078   4.908  1.00  0.00     0.009 A 
HETATM    3  C   UNL     1      62.980   9.140   4.257  1.00  0.00     0.031 A 
HETATM    4  C   UNL     1      63.706   7.137   3.123  1.00  0.00     0.031 A 
HETATM    5  C   UNL     1      64.852   7.102   3.928  1.00  0.00     0.017 A 
HETATM    6  C   UNL     1      64.125   9.100   5.065  1.00  0.00     0.017 A 
ENDROOT
BRANCH   1   7
HETATM    7  N   UNL     1      61.574   8.175   2.488  1.00  0.00    -0.317 N 
HETATM    8  C   UNL     1      60.285   7.893   2.892  1.00  0.00     0.188 A 
HETATM    9  N   UNL     1      59.415   7.957   1.908  1.00  0.00    -0.360 N 
HETATM   10  C   UNL     1      60.148   8.306   0.813  1.00  0.00     0.106 A 
ATOM     11  HN  UNL     1      58.411   7.783   1.954  1.00  0.00     0.166 HD
HETATM   12  C   UNL     1      61.473   8.461   1.142  1.00  0.00     0.115 A 
ENDBRANCH   1   7
BRANCH   2  13
HETATM   13  C   UNL     1      66.292   7.982   5.755  1.00  0.00     0.155 C 
HETATM   14  O   UNL     1      66.469   8.785   6.668  1.00  0.00    -0.293 OA
HETATM   15  C   UNL     1      67.299   6.902   5.461  1.00  0.00     0.096 C 
ENDBRANCH   2  13
TORSDOF 2
ENDMDL
MODEL 6
REMARK VINA RESULT:      -4.5      1.495      2.315
REMARK  2 active torsions:
REMARK  status: ('A' for Active; 'I' for Inactive)
REMARK    1  A    between atoms: N_1  and  C_5 
REMARK    2  A    between atoms: C_8  and  C_9 
ROOT
HETATM    1  C   UNL     1      65.232   6.990   6.690  1.00  0.00     0.039 A 
HETATM    2  C   UNL     1      63.537   8.345   4.884  1.00  0.00     0.009 A 
HETATM    3  C   UNL     1      65.704   8.082   5.950  1.00  0.00     0.031 A 
HETATM    4  C   UNL     1      63.898   6.589   6.528  1.00  0.00     0.031 A 
HETATM    5  C   UNL     1      63.059   7.263   5.633  1.00  0.00     0.017 A 
HETATM    6  C   UNL     1      64.864   8.753   5.050  1.00  0.00     0.017 A 
ENDROOT
BRANCH   1   7
HETATM    7  N   UNL     1      66.097   6.284   7.578  1.00  0.00    -0.317 N 
HETATM    8  C   UNL     1      66.961   6.821   8.511  1.00  0.00     0.188 A 
HETATM    9  N   UNL     1      67.658   5.906   9.148  1.00  0.00    -0.360 N 
HETATM   10  C   UNL     1      67.235   4.718   8.630  1.00  0.00     0.106 A 
ATOM     11  HN  UNL     1      68.361   6.052   9.871  1.00  0.00     0.166 HD
HETATM   12  C   UNL     1      66.267   4.919   7.676  1.00  0.00     0.115 A 
ENDBRANCH   1   7
BRANCH   2  13
HETATM   13  C   UNL     1      62.608   9.016   3.926  1.00  0.00     0.155 C 
HETATM   14  O   UNL     1      62.196   8.403   2.944  1.00  0.00    -0.293 OA
HETATM   15  C   UNL     1      62.204  10.444   4.181  1.00  0.00     0.096 C 
ENDBRANCH   2  13
TORSDOF 2
ENDMDL
MODEL 7
REMARK VINA RESULT:      -4.3      3.650      5.726
REMARK  2 active torsions:
REMARK  status: ('A' for Active; 'I' for Inactive)
REMARK    1  A    between atoms: N_1  and  C_5 
REMARK    2  A    between atoms: C_8  and  C_9 
ROOT
HETATM    1  C   UNL     1      62.405   7.504   4.807  1.00  0.00     0.039 A 
HETATM    2  C   UNL     1      65.050   7.815   5.746  1.00  0.00     0.009 A 
HETATM    3  C   UNL     1      63.217   8.542   4.327  1.00  0.00     0.031 A 
HETATM    4  C   UNL     1      62.935   6.614   5.752  1.00  0.00     0.031 A 
HETATM    5  C   UNL     1      64.247   6.770   6.215  1.00  0.00     0.017 A 
HETATM    6  C   UNL     1      64.528   8.699   4.796  1.00  0.00     0.017 A 
ENDROOT
BRANCH   1   7
HETATM    7  N   UNL     1      61.059   7.367   4.357  1.00  0.00    -0.317 N 
HETATM    8  C   UNL     1      60.412   8.122   3.400  1.00  0.00     0.188 A 
HETATM    9  N   UNL     1      59.154   7.775   3.240  1.00  0.00    -0.360 N 
HETATM   10  C   UNL     1      58.959   6.746   4.112  1.00  0.00     0.106 A 
ATOM     11  HN  UNL     1      58.473   8.187   2.602  1.00  0.00     0.166 HD
HETATM   12  C   UNL     1      60.114   6.464   4.800  1.00  0.00     0.115 A 
ENDBRANCH   1   7
BRANCH   2  13
HETATM   13  C   UNL     1      66.435   7.950   6.288  1.00  0.00     0.155 C 
HETATM   14  O   UNL     1      66.738   8.941   6.949  1.00  0.00    -0.293 OA
HETATM   15  C   UNL     1      67.440   6.867   6.000  1.00  0.00     0.096 C 
ENDBRANCH   2  13
TORSDOF 2
ENDMDL
MODEL 8
REMARK VINA RESULT:      -4.3      4.119      6.165
REMARK  2 active torsions:
REMARK  status: ('A' for Active; 'I' for Inactive)
REMARK    1  A    between atoms: N_1  and  C_5 
REMARK    2  A    between atoms: C_8  and  C_9 
ROOT
HETATM    1  C   UNL     1      60.757   7.828   3.626  1.00  0.00     0.039 A 
HETATM    2  C   UNL     1      63.342   8.412   4.600  1.00  0.00     0.009 A 
HETATM    3  C   UNL     1      61.456   8.954   3.169  1.00  0.00     0.031 A 
HETATM    4  C   UNL     1      61.370   6.988   4.567  1.00  0.00     0.031 A 
HETATM    5  C   UNL     1      62.653   7.279   5.047  1.00  0.00     0.017 A 
HETATM    6  C   UNL     1      62.737   9.246   3.655  1.00  0.00     0.017 A 
ENDROOT
BRANCH   1   7
HETATM    7  N   UNL     1      59.438   7.551   3.159  1.00  0.00    -0.317 N 
HETATM    8  C   UNL     1      59.015   7.454   1.849  1.00  0.00     0.188 A 
HETATM    9  N   UNL     1      57.723   7.230   1.745  1.00  0.00    -0.360 N 
HETATM   10  C   UNL     1      57.273   7.164   3.030  1.00  0.00     0.106 A 
ATOM     11  HN  UNL     1      57.178   7.129   0.889  1.00  0.00     0.166 HD
HETATM   12  C   UNL     1      58.306   7.342   3.918  1.00  0.00     0.115 A 
ENDBRANCH   1   7
BRANCH   2  13
HETATM   13  C   UNL     1      64.698   8.690   5.161  1.00  0.00     0.155 C 
HETATM   14  O   UNL     1      64.889   9.707   5.824  1.00  0.00    -0.293 OA
HETATM   15  C   UNL     1      65.814   7.715   4.890  1.00  0.00     0.096 C 
ENDBRANCH   2  13
TORSDOF 2
ENDMDL
MODEL 9
REMARK VINA RESULT:      -3.9      3.067      4.860
REMARK  2 active torsions:
REMARK  status: ('A' for Active; 'I' for Inactive)
REMARK    1  A    between atoms: N_1  and  C_5 
REMARK    2  A    between atoms: C_8  and  C_9 
ROOT
HETATM    1  C   UNL     1      63.396   8.208   3.470  1.00  0.00     0.039 A 
HETATM    2  C   UNL     1      63.932   5.836   2.036  1.00  0.00     0.009 A 
HETATM    3  C   UNL     1      62.653   7.880   2.328  1.00  0.00     0.031 A 
HETATM    4  C   UNL     1      64.403   7.331   3.897  1.00  0.00     0.031 A 
HETATM    5  C   UNL     1      64.666   6.154   3.185  1.00  0.00     0.017 A 
HETATM    6  C   UNL     1      62.922   6.704   1.614  1.00  0.00     0.017 A 
ENDROOT
BRANCH   1   7
HETATM    7  N   UNL     1      63.148   9.423   4.175  1.00  0.00    -0.317 N 
HETATM    8  C   UNL     1      63.752   9.857   5.338  1.00  0.00     0.188 A 
HETATM    9  N   UNL     1      63.272  11.005   5.765  1.00  0.00    -0.360 N 
HETATM   10  C   UNL     1      62.325  11.353   4.848  1.00  0.00     0.106 A 
ATOM     11  HN  UNL     1      63.549  11.522   6.599  1.00  0.00     0.166 HD
HETATM   12  C   UNL     1      62.238  10.409   3.854  1.00  0.00     0.115 A 
ENDBRANCH   1   7
BRANCH   2  13
HETATM   13  C   UNL     1      64.268   4.580   1.301  1.00  0.00     0.155 C 
HETATM   14  O   UNL     1      64.811   4.643   0.200  1.00  0.00    -0.293 OA
HETATM   15  C   UNL     1      63.919   3.254   1.923  1.00  0.00     0.096 C 
ENDBRANCH   2  13
TORSDOF 2
ENDMDL
