MODEL 1
REMARK VINA RESULT:      -5.4      0.000      0.000
REMARK  3 active torsions:
REMARK  status: ('A' for Active; 'I' for Inactive)
REMARK    1  A    between atoms: C_3  and  C_7 
REMARK    2  A    between atoms: C_9  and  C_14 
REMARK    3  A    between atoms: O_11  and  C_14 
ROOT
HETATM    1  C   UNL     1      64.362   7.909   4.498  1.00  0.00    -0.008 A 
HETATM    2  C   UNL     1      64.235   9.057   5.295  1.00  0.00     0.023 A 
HETATM    3  C   UNL     1      63.243  10.014   5.033  1.00  0.00    -0.034 A 
HETATM    4  C   UNL     1      63.452   7.712   3.449  1.00  0.00     0.014 A 
HETATM    5  C   UNL     1      62.457   8.654   3.185  1.00  0.00     0.002 A 
HETATM    6  C   UNL     1      62.357   9.802   3.968  1.00  0.00     0.009 A 
ENDROOT
BRANCH   1   7
HETATM    7  C   UNL     1      65.437   6.960   4.766  1.00  0.00     0.049 A 
HETATM    8  N   UNL     1      66.085   6.922   5.992  1.00  0.00    -0.353 N 
HETATM    9  C   UNL     1      67.019   5.993   5.981  1.00  0.00     0.047 A 
ATOM     10  HN  UNL     1      65.871   7.526   6.786  1.00  0.00     0.166 HD
HETATM   11  S   UNL     1      67.199   5.142   4.499  1.00  0.00    -0.087 SA
HETATM   12  C   UNL     1      67.900   5.663   7.132  1.00  0.00     0.076 C 
HETATM   13  C   UNL     1      65.925   6.069   3.828  1.00  0.00     0.081 A 
ENDBRANCH   1   7
BRANCH   3  14
HETATM   14  C   UNL     1      63.131  11.260   5.870  1.00  0.00     0.202 C 
BRANCH  14  15
HETATM   15  O   UNL     1      64.382  11.565   6.474  1.00  0.00    -0.396 OA
HETATM   16  H   UNL     1      64.279  11.588   7.438  1.00  0.00     0.209 HD
ENDBRANCH  14  15
ENDBRANCH   3  14
TORSDOF 3
ENDMDL
MODEL 2
REMARK VINA RESULT:      -5.4      1.752      1.916
REMARK  3 active torsions:
REMARK  status: ('A' for Active; 'I' for Inactive)
REMARK    1  A    between atoms: C_3  and  C_7 
REMARK    2  A    between atoms: C_9  and  C_14 
REMARK    3  A    between atoms: O_11  and  C_14 
ROOT
HETATM    1  C   UNL     1      64.530   7.663   4.827  1.00  0.00    -0.008 A 
HETATM    2  C   UNL     1      63.908   8.893   5.095  1.00  0.00     0.023 A 
HETATM    3  C   UNL     1      62.978   9.444   4.201  1.00  0.00    -0.034 A 
HETATM    4  C   UNL     1      64.177   6.969   3.660  1.00  0.00     0.014 A 
HETATM    5  C   UNL     1      63.247   7.505   2.768  1.00  0.00     0.002 A 
HETATM    6  C   UNL     1      62.655   8.739   3.034  1.00  0.00     0.009 A 
ENDROOT
BRANCH   1   7
HETATM    7  C   UNL     1      65.530   7.143   5.752  1.00  0.00     0.049 A 
HETATM    8  N   UNL     1      65.324   7.147   7.125  1.00  0.00    -0.353 N 
HETATM    9  C   UNL     1      66.372   6.639   7.740  1.00  0.00     0.047 A 
ATOM     10  HN  UNL     1      64.484   7.492   7.589  1.00  0.00     0.166 HD
HETATM   11  S   UNL     1      67.673   6.167   6.721  1.00  0.00    -0.087 SA
HETATM   12  C   UNL     1      66.492   6.472   9.213  1.00  0.00     0.076 C 
HETATM   13  C   UNL     1      66.763   6.659   5.356  1.00  0.00     0.081 A 
ENDBRANCH   1   7
BRANCH   3  14
HETATM   14  C   UNL     1      62.338  10.778   4.477  1.00  0.00     0.202 C 
BRANCH  14  15
HETATM   15  O   UNL     1      61.303  11.034   3.535  1.00  0.00    -0.396 OA
HETATM   16  H   UNL     1      61.413  10.451   2.768  1.00  0.00     0.209 HD
ENDBRANCH  14  15
ENDBRANCH   3  14
TORSDOF 3
ENDMDL
MODEL 3
REMARK VINA RESULT:      -5.3      2.522      3.195
REMARK  3 active torsions:
REMARK  status: ('A' for Active; 'I' for Inactive)
REMARK    1  A    between atoms: C_3  and  C_7 
REMARK    2  A    between atoms: C_9  and  C_14 
REMARK    3  A    between atoms: O_11  and  C_14 
ROOT
HETATM    1  C   UNL     1      63.318   8.913   4.731  1.00  0.00    -0.008 A 
HETATM    2  C   UNL     1      62.903   8.646   3.417  1.00  0.00     0.023 A 
HETATM    3  C   UNL     1      62.192   9.601   2.674  1.00  0.00    -0.034 A 
HETATM    4  C   UNL     1      63.042  10.173   5.283  1.00  0.00     0.014 A 
HETATM    5  C   UNL     1      62.342  11.133   4.549  1.00  0.00     0.002 A 
HETATM    6  C   UNL     1      61.914  10.846   3.254  1.00  0.00     0.009 A 
ENDROOT
BRANCH   1   7
HETATM    7  C   UNL     1      64.010   7.880   5.493  1.00  0.00     0.049 A 
HETATM    8  N   UNL     1      65.202   8.138   6.154  1.00  0.00    -0.353 N 
HETATM    9  C   UNL     1      65.630   7.047   6.756  1.00  0.00     0.047 A 
ATOM     10  HN  UNL     1      65.677   9.040   6.172  1.00  0.00     0.166 HD
HETATM   11  S   UNL     1      64.657   5.648   6.534  1.00  0.00    -0.087 SA
HETATM   12  C   UNL     1      66.870   6.960   7.573  1.00  0.00     0.076 C 
HETATM   13  C   UNL     1      63.574   6.570   5.580  1.00  0.00     0.081 A 
ENDBRANCH   1   7
BRANCH   3  14
HETATM   14  C   UNL     1      61.721   9.298   1.277  1.00  0.00     0.202 C 
BRANCH  14  15
HETATM   15  O   UNL     1      60.344   8.941   1.286  1.00  0.00    -0.396 OA
HETATM   16  H   UNL     1      60.260   7.976   1.236  1.00  0.00     0.209 HD
ENDBRANCH  14  15
ENDBRANCH   3  14
TORSDOF 3
ENDMDL
MODEL 4
REMARK VINA RESULT:      -5.0      1.884      2.440
REMARK  3 active torsions:
REMARK  status: ('A' for Active; 'I' for Inactive)
REMARK    1  A    between atoms: C_3  and  C_7 
REMARK    2  A    between atoms: C_9  and  C_14 
REMARK    3  A    between atoms: O_11  and  C_14 
ROOT
HETATM    1  C   UNL     1      63.271   8.163   3.506  1.00  0.00    -0.008 A 
HETATM    2  C   UNL     1      62.862   9.499   3.642  1.00  0.00     0.023 A 
HETATM    3  C   UNL     1      62.142  10.143   2.624  1.00  0.00    -0.034 A 
HETATM    4  C   UNL     1      62.916   7.464   2.344  1.00  0.00     0.014 A 
HETATM    5  C   UNL     1      62.193   8.093   1.329  1.00  0.00     0.002 A 
HETATM    6  C   UNL     1      61.814   9.427   1.465  1.00  0.00     0.009 A 
ENDROOT
BRANCH   1   7
HETATM    7  C   UNL     1      64.062   7.540   4.562  1.00  0.00     0.049 A 
HETATM    8  N   UNL     1      65.396   7.210   4.374  1.00  0.00    -0.353 N 
HETATM    9  C   UNL     1      65.882   6.653   5.463  1.00  0.00     0.047 A 
ATOM     10  HN  UNL     1      65.924   7.375   3.516  1.00  0.00     0.166 HD
HETATM   11  S   UNL     1      64.766   6.457   6.756  1.00  0.00    -0.087 SA
HETATM   12  C   UNL     1      67.286   6.188   5.625  1.00  0.00     0.076 C 
HETATM   13  C   UNL     1      63.550   7.188   5.797  1.00  0.00     0.081 A 
ENDBRANCH   1   7
BRANCH   3  14
HETATM   14  C   UNL     1      61.734  11.585   2.760  1.00  0.00     0.202 C 
BRANCH  14  15
HETATM   15  O   UNL     1      62.044  12.067   4.062  1.00  0.00    -0.396 OA
HETATM   16  H   UNL     1      61.818  13.008   4.120  1.00  0.00     0.209 HD
ENDBRANCH  14  15
ENDBRANCH   3  14
TORSDOF 3
ENDMDL
MODEL 5
REMARK VINA RESULT:      -5.0      3.063      4.046
REMARK  3 active torsions:
REMARK  status: ('A' for Active; 'I' for Inactive)
REMARK    1  A    between atoms: C_3  and  C_7 
REMARK    2  A    between atoms: C_9  and  C_14 
REMARK    3  A    between atoms: O_11  and  C_14 
ROOT
HETATM    1  C   UNL     1      62.525   8.872   2.639  1.00  0.00    -0.008 A 
HETATM    2  C   UNL     1      62.757   9.339   3.942  1.00  0.00     0.023 A 
HETATM    3  C   UNL     1      62.477  10.669   4.295  1.00  0.00    -0.034 A 
HETATM    4  C   UNL     1      61.972   9.749   1.696  1.00  0.00     0.014 A 
HETATM    5  C   UNL     1      61.682  11.071   2.038  1.00  0.00     0.002 A 
HETATM    6  C   UNL     1      61.940  11.530   3.329  1.00  0.00     0.009 A 
ENDROOT
BRANCH   1   7
HETATM    7  C   UNL     1      62.875   7.498   2.294  1.00  0.00     0.049 A 
HETATM    8  N   UNL     1      62.192   6.799   1.309  1.00  0.00    -0.353 N 
HETATM    9  C   UNL     1      62.686   5.583   1.193  1.00  0.00     0.047 A 
ATOM     10  HN  UNL     1      61.421   7.172   0.755  1.00  0.00     0.166 HD
HETATM   11  S   UNL     1      63.963   5.196   2.277  1.00  0.00    -0.087 SA
HETATM   12  C   UNL     1      62.208   4.562   0.223  1.00  0.00     0.076 C 
HETATM   13  C   UNL     1      63.862   6.773   2.936  1.00  0.00     0.081 A 
ENDBRANCH   1   7
BRANCH   3  14
HETATM   14  C   UNL     1      62.758  11.175   5.683  1.00  0.00     0.202 C 
BRANCH  14  15
HETATM   15  O   UNL     1      64.144  11.061   5.981  1.00  0.00    -0.396 OA
HETATM   16  H   UNL     1      64.592  10.591   5.261  1.00  0.00     0.209 HD
ENDBRANCH  14  15
ENDBRANCH   3  14
TORSDOF 3
ENDMDL
MODEL 6
REMARK VINA RESULT:      -4.9      2.310      2.990
REMARK  3 active torsions:
REMARK  status: ('A' for Active; 'I' for Inactive)
REMARK    1  A    between atoms: C_3  and  C_7 
REMARK    2  A    between atoms: C_9  and  C_14 
REMARK    3  A    between atoms: O_11  and  C_14 
ROOT
HETATM    1  C   UNL     1      63.952   8.773   4.745  1.00  0.00    -0.008 A 
HETATM    2  C   UNL     1      63.429   8.317   3.525  1.00  0.00     0.023 A 
HETATM    3  C   UNL     1      62.391   9.006   2.880  1.00  0.00    -0.034 A 
HETATM    4  C   UNL     1      63.442   9.957   5.298  1.00  0.00     0.014 A 
HETATM    5  C   UNL     1      62.414  10.654   4.660  1.00  0.00     0.002 A 
HETATM    6  C   UNL     1      61.886  10.177   3.461  1.00  0.00     0.009 A 
ENDROOT
BRANCH   1   7
HETATM    7  C   UNL     1      64.997   8.005   5.414  1.00  0.00     0.049 A 
HETATM    8  N   UNL     1      64.879   7.619   6.741  1.00  0.00    -0.353 N 
HETATM    9  C   UNL     1      65.951   6.951   7.114  1.00  0.00     0.047 A 
ATOM     10  HN  UNL     1      64.079   7.823   7.341  1.00  0.00     0.166 HD
HETATM   11  S   UNL     1      67.171   6.781   5.915  1.00  0.00    -0.087 SA
HETATM   12  C   UNL     1      66.161   6.370   8.467  1.00  0.00     0.076 C 
HETATM   13  C   UNL     1      66.189   7.646   4.812  1.00  0.00     0.081 A 
ENDBRANCH   1   7
BRANCH   3  14
HETATM   14  C   UNL     1      61.811   8.496   1.588  1.00  0.00     0.202 C 
BRANCH  14  15
HETATM   15  O   UNL     1      62.593   7.420   1.085  1.00  0.00    -0.396 OA
HETATM   16  H   UNL     1      62.091   6.594   1.159  1.00  0.00     0.209 HD
ENDBRANCH  14  15
ENDBRANCH   3  14
TORSDOF 3
ENDMDL
MODEL 7
REMARK VINA RESULT:      -4.8      2.358      3.154
REMARK  3 active torsions:
REMARK  status: ('A' for Active; 'I' for Inactive)
REMARK    1  A    between atoms: C_3  and  C_7 
REMARK    2  A    between atoms: C_9  and  C_14 
REMARK    3  A    between atoms: O_11  and  C_14 
ROOT
HETATM    1  C   UNL     1      63.455   8.827   4.614  1.00  0.00    -0.008 A 
HETATM    2  C   UNL     1      62.904   8.689   3.330  1.00  0.00     0.023 A 
HETATM    3  C   UNL     1      62.142   9.717   2.755  1.00  0.00    -0.034 A 
HETATM    4  C   UNL     1      63.263  10.032   5.305  1.00  0.00     0.014 A 
HETATM    5  C   UNL     1      62.514  11.065   4.738  1.00  0.00     0.002 A 
HETATM    6  C   UNL     1      61.951  10.906   3.473  1.00  0.00     0.009 A 
ENDROOT
BRANCH   1   7
HETATM    7  C   UNL     1      64.198   7.718   5.202  1.00  0.00     0.049 A 
HETATM    8  N   UNL     1      65.323   7.188   4.587  1.00  0.00    -0.353 N 
HETATM    9  C   UNL     1      65.805   6.194   5.305  1.00  0.00     0.047 A 
ATOM     10  HN  UNL     1      65.720   7.519   3.708  1.00  0.00     0.166 HD
HETATM   11  S   UNL     1      64.922   5.814   6.730  1.00  0.00    -0.087 SA
HETATM   12  C   UNL     1      67.016   5.405   4.957  1.00  0.00     0.076 C 
HETATM   13  C   UNL     1      63.827   7.081   6.372  1.00  0.00     0.081 A 
ENDBRANCH   1   7
BRANCH   3  14
HETATM   14  C   UNL     1      61.526   9.553   1.392  1.00  0.00     0.202 C 
BRANCH  14  15
HETATM   15  O   UNL     1      62.471   9.000   0.485  1.00  0.00    -0.396 OA
HETATM   16  H   UNL     1      62.518   9.554  -0.310  1.00  0.00     0.209 HD
ENDBRANCH  14  15
ENDBRANCH   3  14
TORSDOF 3
ENDMDL
MODEL 8
REMARK VINA RESULT:      -4.8      2.989      5.387
REMARK  3 active torsions:
REMARK  status: ('A' for Active; 'I' for Inactive)
REMARK    1  A    between atoms: C_3  and  C_7 
REMARK    2  A    between atoms: C_9  and  C_14 
REMARK    3  A    between atoms: O_11  and  C_14 
ROOT
HETATM    1  C   UNL     1      65.591   7.570   5.436  1.00  0.00    -0.008 A 
HETATM    2  C   UNL     1      65.578   7.150   6.775  1.00  0.00     0.023 A 
HETATM    3  C   UNL     1      66.614   6.361   7.297  1.00  0.00    -0.034 A 
HETATM    4  C   UNL     1      66.683   7.218   4.629  1.00  0.00     0.014 A 
HETATM    5  C   UNL     1      67.723   6.440   5.141  1.00  0.00     0.002 A 
HETATM    6  C   UNL     1      67.686   6.008   6.465  1.00  0.00     0.009 A 
ENDROOT
BRANCH   1   7
HETATM    7  C   UNL     1      64.472   8.346   4.913  1.00  0.00     0.049 A 
HETATM    8  N   UNL     1      64.113   9.568   5.463  1.00  0.00    -0.353 N 
HETATM    9  C   UNL     1      63.072  10.062   4.826  1.00  0.00     0.047 A 
ATOM     10  HN  UNL     1      64.587  10.018   6.247  1.00  0.00     0.166 HD
HETATM   11  S   UNL     1      62.442   9.081   3.564  1.00  0.00    -0.087 SA
HETATM   12  C   UNL     1      62.428  11.366   5.137  1.00  0.00     0.076 C 
HETATM   13  C   UNL     1      63.660   7.919   3.878  1.00  0.00     0.081 A 
ENDBRANCH   1   7
BRANCH   3  14
HETATM   14  C   UNL     1      66.580   5.885   8.724  1.00  0.00     0.202 C 
BRANCH  14  15
HETATM   15  O   UNL     1      66.191   4.518   8.781  1.00  0.00    -0.396 OA
HETATM   16  H   UNL     1      66.808   3.984   8.258  1.00  0.00     0.209 HD
ENDBRANCH  14  15
ENDBRANCH   3  14
TORSDOF 3
ENDMDL
MODEL 9
REMARK VINA RESULT:      -4.7      3.478      5.519
REMARK  3 active torsions:
REMARK  status: ('A' for Active; 'I' for Inactive)
REMARK    1  A    between atoms: C_3  and  C_7 
REMARK    2  A    between atoms: C_9  and  C_14 
REMARK    3  A    between atoms: O_11  and  C_14 
ROOT
HETATM    1  C   UNL     1      62.250   8.904   3.462  1.00  0.00    -0.008 A 
HETATM    2  C   UNL     1      63.336   8.215   4.024  1.00  0.00     0.023 A 
HETATM    3  C   UNL     1      64.121   8.798   5.031  1.00  0.00    -0.034 A 
HETATM    4  C   UNL     1      61.936  10.181   3.950  1.00  0.00     0.014 A 
HETATM    5  C   UNL     1      62.705  10.767   4.957  1.00  0.00     0.002 A 
HETATM    6  C   UNL     1      63.796  10.082   5.490  1.00  0.00     0.009 A 
ENDROOT
BRANCH   1   7
HETATM    7  C   UNL     1      61.487   8.289   2.382  1.00  0.00     0.049 A 
HETATM    8  N   UNL     1      60.117   8.093   2.479  1.00  0.00    -0.353 N 
HETATM    9  C   UNL     1      59.665   7.513   1.386  1.00  0.00     0.047 A 
ATOM     10  HN  UNL     1      59.543   8.358   3.279  1.00  0.00     0.166 HD
HETATM   11  S   UNL     1      60.853   7.137   0.202  1.00  0.00    -0.087 SA
HETATM   12  C   UNL     1      58.241   7.167   1.136  1.00  0.00     0.076 C 
HETATM   13  C   UNL     1      62.056   7.814   1.215  1.00  0.00     0.081 A 
ENDBRANCH   1   7
BRANCH   3  14
HETATM   14  C   UNL     1      65.303   8.069   5.608  1.00  0.00     0.202 C 
BRANCH  14  15
HETATM   15  O   UNL     1      66.091   8.951   6.399  1.00  0.00    -0.396 OA
HETATM   16  H   UNL     1      65.681   9.830   6.408  1.00  0.00     0.209 HD
ENDBRANCH  14  15
ENDBRANCH   3  14
TORSDOF 3
ENDMDL
