MODEL 1
REMARK VINA RESULT:      -5.5      0.000      0.000
REMARK  3 active torsions:
REMARK  status: ('A' for Active; 'I' for Inactive)
REMARK    1  A    between atoms: C_3  and  O_4 
REMARK    2  A    between atoms: O_4  and  C_9 
REMARK    3  A    between atoms: C_6  and  N_8 
ROOT
HETATM    1  N   UNL     1      64.803   8.518   5.753  1.00  0.00    -0.344 N 
ATOM      2  HN  UNL     1      64.390   9.219   6.367  1.00  0.00     0.167 HD
HETATM    3  C   UNL     1      64.090   7.930   4.764  1.00  0.00     0.148 A 
HETATM    4  C   UNL     1      66.090   8.128   5.885  1.00  0.00     0.119 A 
HETATM    5  C   UNL     1      66.711   7.163   5.098  1.00  0.00     0.041 A 
HETATM    6  C   UNL     1      64.639   7.040   3.857  1.00  0.00     0.059 A 
HETATM    7  C   UNL     1      65.975   6.671   4.021  1.00  0.00     0.035 A 
ENDROOT
BRANCH   3   8
HETATM    8  O   UNL     1      62.738   8.222   4.633  1.00  0.00    -0.294 OA
BRANCH   8   9
HETATM    9  C   UNL     1      62.406   9.270   3.802  1.00  0.00     0.077 A 
HETATM   10  C   UNL     1      62.248   8.986   2.444  1.00  0.00     0.037 A 
HETATM   11  C   UNL     1      61.937  10.011   1.549  1.00  0.00     0.003 A 
HETATM   12  C   UNL     1      61.774  11.319   2.013  1.00  0.00     0.000 A 
HETATM   13  C   UNL     1      61.892  11.597   3.373  1.00  0.00     0.003 A 
HETATM   14  C   UNL     1      62.183  10.570   4.268  1.00  0.00     0.037 A 
ENDBRANCH   8   9
ENDBRANCH   3   8
BRANCH   5  15
HETATM   15  N   UNL     1      68.074   6.873   5.228  1.00  0.00    -0.398 N 
HETATM   16  H   UNL     1      68.369   5.940   5.337  1.00  0.00     0.156 HD
HETATM   17  H   UNL     1      68.736   7.600   5.210  1.00  0.00     0.156 HD
ENDBRANCH   5  15
TORSDOF 3
ENDMDL
MODEL 2
REMARK VINA RESULT:      -5.3      2.143      5.346
REMARK  3 active torsions:
REMARK  status: ('A' for Active; 'I' for Inactive)
REMARK    1  A    between atoms: C_3  and  O_4 
REMARK    2  A    between atoms: O_4  and  C_9 
REMARK    3  A    between atoms: C_6  and  N_8 
ROOT
HETATM    1  N   UNL     1      63.007  10.138   5.617  1.00  0.00    -0.344 N 
ATOM      2  HN  UNL     1      63.269  10.487   6.538  1.00  0.00     0.167 HD
HETATM    3  C   UNL     1      63.167   8.839   5.276  1.00  0.00     0.148 A 
HETATM    4  C   UNL     1      62.481  10.951   4.674  1.00  0.00     0.119 A 
HETATM    5  C   UNL     1      62.121  10.549   3.391  1.00  0.00     0.041 A 
HETATM    6  C   UNL     1      62.743   8.312   4.068  1.00  0.00     0.059 A 
HETATM    7  C   UNL     1      62.196   9.182   3.124  1.00  0.00     0.035 A 
ENDROOT
BRANCH   3   8
HETATM    8  O   UNL     1      63.784   7.971   6.169  1.00  0.00    -0.294 OA
BRANCH   8   9
HETATM    9  C   UNL     1      64.991   7.433   5.779  1.00  0.00     0.077 A 
HETATM   10  C   UNL     1      65.090   6.041   5.744  1.00  0.00     0.037 A 
HETATM   11  C   UNL     1      66.296   5.437   5.381  1.00  0.00     0.003 A 
HETATM   12  C   UNL     1      67.400   6.225   5.044  1.00  0.00     0.000 A 
HETATM   13  C   UNL     1      67.290   7.614   5.040  1.00  0.00     0.003 A 
HETATM   14  C   UNL     1      66.081   8.216   5.383  1.00  0.00     0.037 A 
ENDBRANCH   8   9
ENDBRANCH   3   8
BRANCH   5  15
HETATM   15  N   UNL     1      61.497  11.422   2.493  1.00  0.00    -0.398 N 
HETATM   16  H   UNL     1      61.823  11.490   1.567  1.00  0.00     0.156 HD
HETATM   17  H   UNL     1      60.733  11.967   2.788  1.00  0.00     0.156 HD
ENDBRANCH   5  15
TORSDOF 3
ENDMDL
MODEL 3
REMARK VINA RESULT:      -5.2      1.196      1.793
REMARK  3 active torsions:
REMARK  status: ('A' for Active; 'I' for Inactive)
REMARK    1  A    between atoms: C_3  and  O_4 
REMARK    2  A    between atoms: O_4  and  C_9 
REMARK    3  A    between atoms: C_6  and  N_8 
ROOT
HETATM    1  N   UNL     1      65.001   8.809   5.676  1.00  0.00    -0.344 N 
ATOM      2  HN  UNL     1      64.870   9.776   5.381  1.00  0.00     0.167 HD
HETATM    3  C   UNL     1      63.972   7.931   5.709  1.00  0.00     0.148 A 
HETATM    4  C   UNL     1      66.210   8.339   6.052  1.00  0.00     0.119 A 
HETATM    5  C   UNL     1      66.457   7.039   6.485  1.00  0.00     0.041 A 
HETATM    6  C   UNL     1      64.126   6.590   6.019  1.00  0.00     0.059 A 
HETATM    7  C   UNL     1      65.393   6.141   6.392  1.00  0.00     0.035 A 
ENDROOT
BRANCH   3   8
HETATM    8  O   UNL     1      62.688   8.375   5.419  1.00  0.00    -0.294 OA
BRANCH   8   9
HETATM    9  C   UNL     1      62.482   8.906   4.164  1.00  0.00     0.077 A 
HETATM   10  C   UNL     1      62.130  10.255   4.089  1.00  0.00     0.037 A 
HETATM   11  C   UNL     1      61.885  10.843   2.846  1.00  0.00     0.003 A 
HETATM   12  C   UNL     1      62.001  10.085   1.678  1.00  0.00     0.000 A 
HETATM   13  C   UNL     1      62.391   8.750   1.749  1.00  0.00     0.003 A 
HETATM   14  C   UNL     1      62.656   8.169   2.988  1.00  0.00     0.037 A 
ENDBRANCH   8   9
ENDBRANCH   3   8
BRANCH   5  15
HETATM   15  N   UNL     1      67.750   6.592   6.773  1.00  0.00    -0.398 N 
HETATM   16  H   UNL     1      68.351   6.320   6.043  1.00  0.00     0.156 HD
HETATM   17  H   UNL     1      68.059   6.548   7.707  1.00  0.00     0.156 HD
ENDBRANCH   5  15
TORSDOF 3
ENDMDL
MODEL 4
REMARK VINA RESULT:      -5.2      1.764      2.698
REMARK  3 active torsions:
REMARK  status: ('A' for Active; 'I' for Inactive)
REMARK    1  A    between atoms: C_3  and  O_4 
REMARK    2  A    between atoms: O_4  and  C_9 
REMARK    3  A    between atoms: C_6  and  N_8 
ROOT
HETATM    1  N   UNL     1      65.382   7.198   7.056  1.00  0.00    -0.344 N 
ATOM      2  HN  UNL     1      64.546   7.423   7.595  1.00  0.00     0.167 HD
HETATM    3  C   UNL     1      65.894   8.058   6.146  1.00  0.00     0.148 A 
HETATM    4  C   UNL     1      66.033   6.025   7.214  1.00  0.00     0.119 A 
HETATM    5  C   UNL     1      67.164   5.643   6.498  1.00  0.00     0.041 A 
HETATM    6  C   UNL     1      67.073   7.825   5.458  1.00  0.00     0.059 A 
HETATM    7  C   UNL     1      67.722   6.606   5.657  1.00  0.00     0.035 A 
ENDROOT
BRANCH   3   8
HETATM    8  O   UNL     1      65.220   9.243   5.873  1.00  0.00    -0.294 OA
BRANCH   8   9
HETATM    9  C   UNL     1      64.146   9.163   5.013  1.00  0.00     0.077 A 
HETATM   10  C   UNL     1      63.195  10.182   5.079  1.00  0.00     0.037 A 
HETATM   11  C   UNL     1      62.072  10.142   4.249  1.00  0.00     0.003 A 
HETATM   12  C   UNL     1      61.906   9.088   3.347  1.00  0.00     0.000 A 
HETATM   13  C   UNL     1      62.875   8.092   3.252  1.00  0.00     0.003 A 
HETATM   14  C   UNL     1      64.004   8.142   4.066  1.00  0.00     0.037 A 
ENDBRANCH   8   9
ENDBRANCH   3   8
BRANCH   5  15
HETATM   15  N   UNL     1      67.844   4.453   6.775  1.00  0.00    -0.398 N 
HETATM   16  H   UNL     1      67.363   3.694   7.178  1.00  0.00     0.156 HD
HETATM   17  H   UNL     1      68.803   4.374   6.568  1.00  0.00     0.156 HD
ENDBRANCH   5  15
TORSDOF 3
ENDMDL
MODEL 5
REMARK VINA RESULT:      -5.1      2.219      5.649
REMARK  3 active torsions:
REMARK  status: ('A' for Active; 'I' for Inactive)
REMARK    1  A    between atoms: C_3  and  O_4 
REMARK    2  A    between atoms: O_4  and  C_9 
REMARK    3  A    between atoms: C_6  and  N_8 
ROOT
HETATM    1  N   UNL     1      63.547  10.170   5.508  1.00  0.00    -0.344 N 
ATOM      2  HN  UNL     1      63.725  10.816   6.276  1.00  0.00     0.167 HD
HETATM    3  C   UNL     1      64.373   9.130   5.248  1.00  0.00     0.148 A 
HETATM    4  C   UNL     1      62.475  10.308   4.698  1.00  0.00     0.119 A 
HETATM    5  C   UNL     1      62.183   9.477   3.620  1.00  0.00     0.041 A 
HETATM    6  C   UNL     1      64.119   8.182   4.271  1.00  0.00     0.059 A 
HETATM    7  C   UNL     1      62.995   8.354   3.462  1.00  0.00     0.035 A 
ENDROOT
BRANCH   3   8
HETATM    8  O   UNL     1      65.540   8.985   5.989  1.00  0.00    -0.294 OA
BRANCH   8   9
HETATM    9  C   UNL     1      66.021   7.703   6.146  1.00  0.00     0.077 A 
HETATM   10  C   UNL     1      67.131   7.338   5.382  1.00  0.00     0.037 A 
HETATM   11  C   UNL     1      67.649   6.044   5.480  1.00  0.00     0.003 A 
HETATM   12  C   UNL     1      67.062   5.119   6.347  1.00  0.00     0.000 A 
HETATM   13  C   UNL     1      65.980   5.495   7.139  1.00  0.00     0.003 A 
HETATM   14  C   UNL     1      65.476   6.791   7.057  1.00  0.00     0.037 A 
ENDBRANCH   8   9
ENDBRANCH   3   8
BRANCH   5  15
HETATM   15  N   UNL     1      61.006   9.621   2.876  1.00  0.00    -0.398 N 
HETATM   16  H   UNL     1      60.863   9.073   2.072  1.00  0.00     0.156 HD
HETATM   17  H   UNL     1      60.323  10.271   3.158  1.00  0.00     0.156 HD
ENDBRANCH   5  15
TORSDOF 3
ENDMDL
MODEL 6
REMARK VINA RESULT:      -4.9      3.004      4.476
REMARK  3 active torsions:
REMARK  status: ('A' for Active; 'I' for Inactive)
REMARK    1  A    between atoms: C_3  and  O_4 
REMARK    2  A    between atoms: O_4  and  C_9 
REMARK    3  A    between atoms: C_6  and  N_8 
ROOT
HETATM    1  N   UNL     1      61.745  10.432   3.234  1.00  0.00    -0.344 N 
ATOM      2  HN  UNL     1      61.098  10.826   2.552  1.00  0.00     0.167 HD
HETATM    3  C   UNL     1      62.227   9.174   3.112  1.00  0.00     0.148 A 
HETATM    4  C   UNL     1      62.163  11.140   4.306  1.00  0.00     0.119 A 
HETATM    5  C   UNL     1      63.026  10.659   5.287  1.00  0.00     0.041 A 
HETATM    6  C   UNL     1      63.172   8.636   3.969  1.00  0.00     0.059 A 
HETATM    7  C   UNL     1      63.588   9.403   5.059  1.00  0.00     0.035 A 
ENDROOT
BRANCH   3   8
HETATM    8  O   UNL     1      61.766   8.365   2.081  1.00  0.00    -0.294 OA
BRANCH   8   9
HETATM    9  C   UNL     1      60.442   7.989   2.131  1.00  0.00     0.077 A 
HETATM   10  C   UNL     1      59.917   7.655   3.380  1.00  0.00     0.037 A 
HETATM   11  C   UNL     1      58.587   7.242   3.489  1.00  0.00     0.003 A 
HETATM   12  C   UNL     1      57.780   7.173   2.351  1.00  0.00     0.000 A 
HETATM   13  C   UNL     1      58.291   7.545   1.110  1.00  0.00     0.003 A 
HETATM   14  C   UNL     1      59.612   7.976   1.004  1.00  0.00     0.037 A 
ENDBRANCH   8   9
ENDBRANCH   3   8
BRANCH   5  15
HETATM   15  N   UNL     1      63.493  11.475   6.323  1.00  0.00    -0.398 N 
HETATM   16  H   UNL     1      63.008  11.509   7.179  1.00  0.00     0.156 HD
HETATM   17  H   UNL     1      64.305  12.016   6.195  1.00  0.00     0.156 HD
ENDBRANCH   5  15
TORSDOF 3
ENDMDL
MODEL 7
REMARK VINA RESULT:      -4.7      2.614      6.140
REMARK  3 active torsions:
REMARK  status: ('A' for Active; 'I' for Inactive)
REMARK    1  A    between atoms: C_3  and  O_4 
REMARK    2  A    between atoms: O_4  and  C_9 
REMARK    3  A    between atoms: C_6  and  N_8 
ROOT
HETATM    1  N   UNL     1      64.670   9.094   5.684  1.00  0.00    -0.344 N 
ATOM      2  HN  UNL     1      64.894   9.730   6.449  1.00  0.00     0.167 HD
HETATM    3  C   UNL     1      65.511   8.100   5.317  1.00  0.00     0.148 A 
HETATM    4  C   UNL     1      63.518   9.202   4.986  1.00  0.00     0.119 A 
HETATM    5  C   UNL     1      63.159   8.384   3.919  1.00  0.00     0.041 A 
HETATM    6  C   UNL     1      65.204   7.165   4.343  1.00  0.00     0.059 A 
HETATM    7  C   UNL     1      64.000   7.304   3.652  1.00  0.00     0.035 A 
ENDROOT
BRANCH   3   8
HETATM    8  O   UNL     1      66.750   7.992   5.937  1.00  0.00    -0.294 OA
BRANCH   8   9
HETATM    9  C   UNL     1      66.923   6.932   6.800  1.00  0.00     0.077 A 
HETATM   10  C   UNL     1      67.862   5.962   6.444  1.00  0.00     0.037 A 
HETATM   11  C   UNL     1      68.063   4.851   7.266  1.00  0.00     0.003 A 
HETATM   12  C   UNL     1      67.332   4.714   8.448  1.00  0.00     0.000 A 
HETATM   13  C   UNL     1      66.424   5.701   8.825  1.00  0.00     0.003 A 
HETATM   14  C   UNL     1      66.237   6.819   8.015  1.00  0.00     0.037 A 
ENDBRANCH   8   9
ENDBRANCH   3   8
BRANCH   5  15
HETATM   15  N   UNL     1      61.910   8.491   3.297  1.00  0.00    -0.398 N 
HETATM   16  H   UNL     1      61.391   7.679   3.092  1.00  0.00     0.156 HD
HETATM   17  H   UNL     1      61.549   9.377   3.065  1.00  0.00     0.156 HD
ENDBRANCH   5  15
TORSDOF 3
ENDMDL
MODEL 8
REMARK VINA RESULT:      -4.6      3.467      4.523
REMARK  3 active torsions:
REMARK  status: ('A' for Active; 'I' for Inactive)
REMARK    1  A    between atoms: C_3  and  O_4 
REMARK    2  A    between atoms: O_4  and  C_9 
REMARK    3  A    between atoms: C_6  and  N_8 
ROOT
HETATM    1  N   UNL     1      60.269   6.818   4.211  1.00  0.00    -0.344 N 
ATOM      2  HN  UNL     1      60.062   7.137   3.265  1.00  0.00     0.167 HD
HETATM    3  C   UNL     1      61.495   6.975   4.761  1.00  0.00     0.148 A 
HETATM    4  C   UNL     1      59.334   6.216   4.978  1.00  0.00     0.119 A 
HETATM    5  C   UNL     1      59.553   5.737   6.266  1.00  0.00     0.041 A 
HETATM    6  C   UNL     1      61.791   6.633   6.070  1.00  0.00     0.059 A 
HETATM    7  C   UNL     1      60.794   6.024   6.833  1.00  0.00     0.035 A 
ENDROOT
BRANCH   3   8
HETATM    8  O   UNL     1      62.524   7.505   3.992  1.00  0.00    -0.294 OA
BRANCH   8   9
HETATM    9  C   UNL     1      62.293   8.731   3.406  1.00  0.00     0.077 A 
HETATM   10  C   UNL     1      62.183   8.765   2.014  1.00  0.00     0.037 A 
HETATM   11  C   UNL     1      61.974   9.981   1.361  1.00  0.00     0.003 A 
HETATM   12  C   UNL     1      61.866  11.162   2.100  1.00  0.00     0.000 A 
HETATM   13  C   UNL     1      61.935  11.124   3.490  1.00  0.00     0.003 A 
HETATM   14  C   UNL     1      62.124   9.908   4.143  1.00  0.00     0.037 A 
ENDBRANCH   8   9
ENDBRANCH   3   8
BRANCH   5  15
HETATM   15  N   UNL     1      58.516   5.206   7.041  1.00  0.00    -0.398 N 
HETATM   16  H   UNL     1      58.718   4.760   7.894  1.00  0.00     0.156 HD
HETATM   17  H   UNL     1      57.584   5.278   6.732  1.00  0.00     0.156 HD
ENDBRANCH   5  15
TORSDOF 3
ENDMDL
MODEL 9
REMARK VINA RESULT:      -4.5      3.420      5.470
REMARK  3 active torsions:
REMARK  status: ('A' for Active; 'I' for Inactive)
REMARK    1  A    between atoms: C_3  and  O_4 
REMARK    2  A    between atoms: O_4  and  C_9 
REMARK    3  A    between atoms: C_6  and  N_8 
ROOT
HETATM    1  N   UNL     1      62.052   9.510   4.323  1.00  0.00    -0.344 N 
ATOM      2  HN  UNL     1      62.089   9.419   5.337  1.00  0.00     0.167 HD
HETATM    3  C   UNL     1      62.082   8.429   3.510  1.00  0.00     0.148 A 
HETATM    4  C   UNL     1      61.970  10.717   3.721  1.00  0.00     0.119 A 
HETATM    5  C   UNL     1      61.937  10.917   2.344  1.00  0.00     0.041 A 
HETATM    6  C   UNL     1      61.947   8.507   2.134  1.00  0.00     0.059 A 
HETATM    7  C   UNL     1      61.854   9.772   1.552  1.00  0.00     0.035 A 
ENDROOT
BRANCH   3   8
HETATM    8  O   UNL     1      62.255   7.166   4.063  1.00  0.00    -0.294 OA
BRANCH   8   9
HETATM    9  C   UNL     1      61.233   6.689   4.855  1.00  0.00     0.077 A 
HETATM   10  C   UNL     1      61.538   6.394   6.185  1.00  0.00     0.037 A 
HETATM   11  C   UNL     1      60.549   5.884   7.029  1.00  0.00     0.003 A 
HETATM   12  C   UNL     1      59.255   5.677   6.547  1.00  0.00     0.000 A 
HETATM   13  C   UNL     1      58.940   6.008   5.231  1.00  0.00     0.003 A 
HETATM   14  C   UNL     1      59.921   6.536   4.394  1.00  0.00     0.037 A 
ENDBRANCH   8   9
ENDBRANCH   3   8
BRANCH   5  15
HETATM   15  N   UNL     1      61.759  12.188   1.788  1.00  0.00    -0.398 N 
HETATM   16  H   UNL     1      62.447  12.881   1.914  1.00  0.00     0.156 HD
HETATM   17  H   UNL     1      60.946  12.390   1.272  1.00  0.00     0.156 HD
ENDBRANCH   5  15
TORSDOF 3
ENDMDL
