MODEL 1
REMARK VINA RESULT:      -5.2      0.000      0.000
REMARK  2 active torsions:
REMARK  status: ('A' for Active; 'I' for Inactive)
REMARK    1  A    between atoms: C_3  and  C_7 
REMARK    2  A    between atoms: C_9  and  N_10 
ROOT
HETATM    1  C   UNL     1      64.118   8.486   4.767  1.00  0.00    -0.007 A 
HETATM    2  C   UNL     1      63.651   9.740   5.193  1.00  0.00     0.042 A 
HETATM    3  C   UNL     1      62.630  10.406   4.501  1.00  0.00     0.026 A 
HETATM    4  C   UNL     1      63.550   7.903   3.627  1.00  0.00     0.014 A 
HETATM    5  C   UNL     1      62.551   8.571   2.916  1.00  0.00     0.003 A 
HETATM    6  C   UNL     1      62.113   9.826   3.344  1.00  0.00     0.029 A 
ENDROOT
BRANCH   1   7
HETATM    7  C   UNL     1      65.194   7.828   5.500  1.00  0.00     0.049 A 
HETATM    8  N   UNL     1      65.056   7.472   6.834  1.00  0.00    -0.353 N 
HETATM    9  C   UNL     1      66.157   6.892   7.264  1.00  0.00     0.047 A 
ATOM     10  HN  UNL     1      64.223   7.637   7.400  1.00  0.00     0.166 HD
HETATM   11  S   UNL     1      67.427   6.768   6.114  1.00  0.00    -0.087 SA
HETATM   12  C   UNL     1      66.353   6.358   8.639  1.00  0.00     0.076 C 
HETATM   13  C   UNL     1      66.430   7.536   4.952  1.00  0.00     0.081 A 
ENDBRANCH   1   7
BRANCH   3  14
HETATM   14  N   UNL     1      62.312  11.734   4.820  1.00  0.00    -0.399 N 
HETATM   15  H   UNL     1      61.519  11.932   5.366  1.00  0.00     0.156 HD
HETATM   16  H   UNL     1      62.883  12.468   4.497  1.00  0.00     0.156 HD
ENDBRANCH   3  14
TORSDOF 2
ENDMDL
MODEL 2
REMARK VINA RESULT:      -5.1      1.703      2.301
REMARK  2 active torsions:
REMARK  status: ('A' for Active; 'I' for Inactive)
REMARK    1  A    between atoms: C_3  and  C_7 
REMARK    2  A    between atoms: C_9  and  N_10 
ROOT
HETATM    1  C   UNL     1      63.285   9.039   4.718  1.00  0.00    -0.007 A 
HETATM    2  C   UNL     1      62.730   8.816   3.448  1.00  0.00     0.042 A 
HETATM    3  C   UNL     1      62.022   9.824   2.779  1.00  0.00     0.026 A 
HETATM    4  C   UNL     1      63.119  10.293   5.319  1.00  0.00     0.014 A 
HETATM    5  C   UNL     1      62.393  11.295   4.673  1.00  0.00     0.003 A 
HETATM    6  C   UNL     1      61.831  11.049   3.419  1.00  0.00     0.029 A 
ENDROOT
BRANCH   1   7
HETATM    7  C   UNL     1      64.001   7.962   5.394  1.00  0.00     0.049 A 
HETATM    8  N   UNL     1      65.141   8.204   6.146  1.00  0.00    -0.353 N 
HETATM    9  C   UNL     1      65.596   7.078   6.655  1.00  0.00     0.047 A 
ATOM     10  HN  UNL     1      65.566   9.121   6.285  1.00  0.00     0.166 HD
HETATM   11  S   UNL     1      64.710   5.667   6.237  1.00  0.00    -0.087 SA
HETATM   12  C   UNL     1      66.789   6.965   7.537  1.00  0.00     0.076 C 
HETATM   13  C   UNL     1      63.633   6.631   5.319  1.00  0.00     0.081 A 
ENDBRANCH   1   7
BRANCH   3  14
HETATM   14  N   UNL     1      61.310   9.529   1.608  1.00  0.00    -0.399 N 
HETATM   15  H   UNL     1      60.823   8.679   1.529  1.00  0.00     0.156 HD
HETATM   16  H   UNL     1      61.299  10.174   0.864  1.00  0.00     0.156 HD
ENDBRANCH   3  14
TORSDOF 2
ENDMDL
MODEL 3
REMARK VINA RESULT:      -4.9      2.423      2.688
REMARK  2 active torsions:
REMARK  status: ('A' for Active; 'I' for Inactive)
REMARK    1  A    between atoms: C_3  and  C_7 
REMARK    2  A    between atoms: C_9  and  N_10 
ROOT
HETATM    1  C   UNL     1      63.470   8.549   3.895  1.00  0.00    -0.007 A 
HETATM    2  C   UNL     1      63.763   9.318   5.034  1.00  0.00     0.042 A 
HETATM    3  C   UNL     1      63.106  10.532   5.276  1.00  0.00     0.026 A 
HETATM    4  C   UNL     1      62.508   9.017   2.991  1.00  0.00     0.014 A 
HETATM    5  C   UNL     1      61.868  10.239   3.211  1.00  0.00     0.003 A 
HETATM    6  C   UNL     1      62.186  10.998   4.338  1.00  0.00     0.029 A 
ENDROOT
BRANCH   1   7
HETATM    7  C   UNL     1      64.185   7.298   3.664  1.00  0.00     0.049 A 
HETATM    8  N   UNL     1      65.436   7.062   4.214  1.00  0.00    -0.353 N 
HETATM    9  C   UNL     1      65.865   5.867   3.865  1.00  0.00     0.047 A 
ATOM     10  HN  UNL     1      65.949   7.717   4.803  1.00  0.00     0.166 HD
HETATM   11  S   UNL     1      64.818   4.975   2.836  1.00  0.00    -0.087 SA
HETATM   12  C   UNL     1      67.158   5.270   4.296  1.00  0.00     0.076 C 
HETATM   13  C   UNL     1      63.703   6.276   2.867  1.00  0.00     0.081 A 
ENDBRANCH   1   7
BRANCH   3  14
HETATM   14  N   UNL     1      63.545  11.378   6.305  1.00  0.00    -0.399 N 
HETATM   15  H   UNL     1      62.940  12.063   6.670  1.00  0.00     0.156 HD
HETATM   16  H   UNL     1      64.458  11.286   6.663  1.00  0.00     0.156 HD
ENDBRANCH   3  14
TORSDOF 2
ENDMDL
MODEL 4
REMARK VINA RESULT:      -4.4      2.644      5.349
REMARK  2 active torsions:
REMARK  status: ('A' for Active; 'I' for Inactive)
REMARK    1  A    between atoms: C_3  and  C_7 
REMARK    2  A    between atoms: C_9  and  N_10 
ROOT
HETATM    1  C   UNL     1      65.453   7.442   4.965  1.00  0.00    -0.007 A 
HETATM    2  C   UNL     1      65.867   6.549   3.962  1.00  0.00     0.042 A 
HETATM    3  C   UNL     1      66.935   5.667   4.174  1.00  0.00     0.026 A 
HETATM    4  C   UNL     1      66.130   7.444   6.191  1.00  0.00     0.014 A 
HETATM    5  C   UNL     1      67.212   6.587   6.402  1.00  0.00     0.003 A 
HETATM    6  C   UNL     1      67.621   5.721   5.387  1.00  0.00     0.029 A 
ENDROOT
BRANCH   1   7
HETATM    7  C   UNL     1      64.348   8.359   4.705  1.00  0.00     0.049 A 
HETATM    8  N   UNL     1      64.150   9.497   5.475  1.00  0.00    -0.353 N 
HETATM    9  C   UNL     1      63.098  10.159   5.040  1.00  0.00     0.047 A 
ATOM     10  HN  UNL     1      64.734   9.779   6.262  1.00  0.00     0.166 HD
HETATM   11  S   UNL     1      62.269   9.445   3.716  1.00  0.00    -0.087 SA
HETATM   12  C   UNL     1      62.606  11.441   5.613  1.00  0.00     0.076 C 
HETATM   13  C   UNL     1      63.405   8.163   3.713  1.00  0.00     0.081 A 
ENDBRANCH   1   7
BRANCH   3  14
HETATM   14  N   UNL     1      67.459   4.925   3.106  1.00  0.00    -0.399 N 
HETATM   15  H   UNL     1      66.866   4.360   2.562  1.00  0.00     0.156 HD
HETATM   16  H   UNL     1      68.421   4.970   2.901  1.00  0.00     0.156 HD
ENDBRANCH   3  14
TORSDOF 2
ENDMDL
MODEL 5
REMARK VINA RESULT:      -4.3      2.276      2.977
REMARK  2 active torsions:
REMARK  status: ('A' for Active; 'I' for Inactive)
REMARK    1  A    between atoms: C_3  and  C_7 
REMARK    2  A    between atoms: C_9  and  N_10 
ROOT
HETATM    1  C   UNL     1      63.138   8.672   3.674  1.00  0.00    -0.007 A 
HETATM    2  C   UNL     1      63.089   9.605   4.722  1.00  0.00     0.042 A 
HETATM    3  C   UNL     1      62.475  10.854   4.552  1.00  0.00     0.026 A 
HETATM    4  C   UNL     1      62.564   9.008   2.441  1.00  0.00     0.014 A 
HETATM    5  C   UNL     1      61.974  10.259   2.254  1.00  0.00     0.003 A 
HETATM    6  C   UNL     1      61.952  11.181   3.302  1.00  0.00     0.029 A 
ENDROOT
BRANCH   1   7
HETATM    7  C   UNL     1      63.800   7.388   3.879  1.00  0.00     0.049 A 
HETATM    8  N   UNL     1      64.112   6.551   2.816  1.00  0.00    -0.353 N 
HETATM    9  C   UNL     1      64.706   5.462   3.258  1.00  0.00     0.047 A 
ATOM     10  HN  UNL     1      63.910   6.750   1.837  1.00  0.00     0.166 HD
HETATM   11  S   UNL     1      64.895   5.361   4.962  1.00  0.00    -0.087 SA
HETATM   12  C   UNL     1      65.203   4.357   2.395  1.00  0.00     0.076 C 
HETATM   13  C   UNL     1      64.138   6.889   5.123  1.00  0.00     0.081 A 
ENDBRANCH   1   7
BRANCH   3  14
HETATM   14  N   UNL     1      62.606  11.844   5.537  1.00  0.00    -0.399 N 
HETATM   15  H   UNL     1      62.132  11.751   6.393  1.00  0.00     0.156 HD
HETATM   16  H   UNL     1      63.172  12.632   5.370  1.00  0.00     0.156 HD
ENDBRANCH   3  14
TORSDOF 2
ENDMDL
MODEL 6
REMARK VINA RESULT:      -4.2      1.983      2.257
REMARK  2 active torsions:
REMARK  status: ('A' for Active; 'I' for Inactive)
REMARK    1  A    between atoms: C_3  and  C_7 
REMARK    2  A    between atoms: C_9  and  N_10 
ROOT
HETATM    1  C   UNL     1      63.373   7.782   4.896  1.00  0.00    -0.007 A 
HETATM    2  C   UNL     1      62.273   6.950   5.162  1.00  0.00     0.042 A 
HETATM    3  C   UNL     1      61.059   7.116   4.483  1.00  0.00     0.026 A 
HETATM    4  C   UNL     1      63.241   8.793   3.937  1.00  0.00     0.014 A 
HETATM    5  C   UNL     1      62.027   8.983   3.274  1.00  0.00     0.003 A 
HETATM    6  C   UNL     1      60.938   8.159   3.566  1.00  0.00     0.029 A 
ENDROOT
BRANCH   1   7
HETATM    7  C   UNL     1      64.618   7.593   5.634  1.00  0.00     0.049 A 
HETATM    8  N   UNL     1      64.637   7.016   6.896  1.00  0.00    -0.353 N 
HETATM    9  C   UNL     1      65.872   6.953   7.345  1.00  0.00     0.047 A 
ATOM     10  HN  UNL     1      63.813   6.689   7.401  1.00  0.00     0.166 HD
HETATM   11  S   UNL     1      67.074   7.606   6.306  1.00  0.00    -0.087 SA
HETATM   12  C   UNL     1      66.270   6.369   8.655  1.00  0.00     0.076 C 
HETATM   13  C   UNL     1      65.856   7.992   5.165  1.00  0.00     0.081 A 
ENDBRANCH   1   7
BRANCH   3  14
HETATM   14  N   UNL     1      59.918   6.412   4.895  1.00  0.00    -0.399 N 
HETATM   15  H   UNL     1      59.937   5.887   5.727  1.00  0.00     0.156 HD
HETATM   16  H   UNL     1      59.097   6.443   4.351  1.00  0.00     0.156 HD
ENDBRANCH   3  14
TORSDOF 2
ENDMDL
MODEL 7
REMARK VINA RESULT:      -3.9      2.017      2.500
REMARK  2 active torsions:
REMARK  status: ('A' for Active; 'I' for Inactive)
REMARK    1  A    between atoms: C_3  and  C_7 
REMARK    2  A    between atoms: C_9  and  N_10 
ROOT
HETATM    1  C   UNL     1      62.963   7.732   4.432  1.00  0.00    -0.007 A 
HETATM    2  C   UNL     1      62.999   8.630   3.353  1.00  0.00     0.042 A 
HETATM    3  C   UNL     1      61.855   8.884   2.584  1.00  0.00     0.026 A 
HETATM    4  C   UNL     1      61.760   7.081   4.732  1.00  0.00     0.014 A 
HETATM    5  C   UNL     1      60.622   7.307   3.955  1.00  0.00     0.003 A 
HETATM    6  C   UNL     1      60.682   8.189   2.874  1.00  0.00     0.029 A 
ENDROOT
BRANCH   1   7
HETATM    7  C   UNL     1      64.177   7.477   5.201  1.00  0.00     0.049 A 
HETATM    8  N   UNL     1      65.433   7.802   4.709  1.00  0.00    -0.353 N 
HETATM    9  C   UNL     1      66.359   7.480   5.588  1.00  0.00     0.047 A 
ATOM     10  HN  UNL     1      65.612   8.227   3.800  1.00  0.00     0.166 HD
HETATM   11  S   UNL     1      65.788   6.743   7.031  1.00  0.00    -0.087 SA
HETATM   12  C   UNL     1      67.818   7.710   5.406  1.00  0.00     0.076 C 
HETATM   13  C   UNL     1      64.183   6.873   6.445  1.00  0.00     0.081 A 
ENDBRANCH   1   7
BRANCH   3  14
HETATM   14  N   UNL     1      61.952   9.627   1.399  1.00  0.00    -0.399 N 
HETATM   15  H   UNL     1      61.167   9.729   0.816  1.00  0.00     0.156 HD
HETATM   16  H   UNL     1      62.808  10.047   1.150  1.00  0.00     0.156 HD
ENDBRANCH   3  14
TORSDOF 2
ENDMDL
MODEL 8
REMARK VINA RESULT:      -3.9      2.635      3.467
REMARK  2 active torsions:
REMARK  status: ('A' for Active; 'I' for Inactive)
REMARK    1  A    between atoms: C_3  and  C_7 
REMARK    2  A    between atoms: C_9  and  N_10 
ROOT
HETATM    1  C   UNL     1      62.120   7.890   3.114  1.00  0.00    -0.007 A 
HETATM    2  C   UNL     1      60.744   7.624   3.203  1.00  0.00     0.042 A 
HETATM    3  C   UNL     1      59.882   7.901   2.133  1.00  0.00     0.026 A 
HETATM    4  C   UNL     1      62.627   8.447   1.934  1.00  0.00     0.014 A 
HETATM    5  C   UNL     1      61.772   8.751   0.872  1.00  0.00     0.003 A 
HETATM    6  C   UNL     1      60.404   8.497   0.986  1.00  0.00     0.029 A 
ENDROOT
BRANCH   1   7
HETATM    7  C   UNL     1      62.986   7.605   4.253  1.00  0.00     0.049 A 
HETATM    8  N   UNL     1      64.240   8.187   4.378  1.00  0.00    -0.353 N 
HETATM    9  C   UNL     1      64.820   7.777   5.487  1.00  0.00     0.047 A 
ATOM     10  HN  UNL     1      64.653   8.836   3.708  1.00  0.00     0.166 HD
HETATM   11  S   UNL     1      63.919   6.653   6.422  1.00  0.00    -0.087 SA
HETATM   12  C   UNL     1      66.162   8.218   5.955  1.00  0.00     0.076 C 
HETATM   13  C   UNL     1      62.655   6.727   5.268  1.00  0.00     0.081 A 
ENDBRANCH   1   7
BRANCH   3  14
HETATM   14  N   UNL     1      58.493   7.814   2.305  1.00  0.00    -0.399 N 
HETATM   15  H   UNL     1      57.956   8.633   2.394  1.00  0.00     0.156 HD
HETATM   16  H   UNL     1      58.055   6.932   2.336  1.00  0.00     0.156 HD
ENDBRANCH   3  14
TORSDOF 2
ENDMDL
MODEL 9
REMARK VINA RESULT:      -3.9      3.648      5.254
REMARK  2 active torsions:
REMARK  status: ('A' for Active; 'I' for Inactive)
REMARK    1  A    between atoms: C_3  and  C_7 
REMARK    2  A    between atoms: C_9  and  N_10 
ROOT
HETATM    1  C   UNL     1      66.805   5.082   7.031  1.00  0.00    -0.007 A 
HETATM    2  C   UNL     1      65.468   5.512   7.008  1.00  0.00     0.042 A 
HETATM    3  C   UNL     1      65.124   6.784   6.532  1.00  0.00     0.026 A 
HETATM    4  C   UNL     1      67.803   5.951   6.572  1.00  0.00     0.014 A 
HETATM    5  C   UNL     1      67.473   7.230   6.120  1.00  0.00     0.003 A 
HETATM    6  C   UNL     1      66.140   7.646   6.124  1.00  0.00     0.029 A 
ENDROOT
BRANCH   1   7
HETATM    7  C   UNL     1      67.130   3.757   7.550  1.00  0.00     0.049 A 
HETATM    8  N   UNL     1      67.467   3.559   8.881  1.00  0.00    -0.353 N 
HETATM    9  C   UNL     1      67.710   2.284   9.100  1.00  0.00     0.047 A 
ATOM     10  HN  UNL     1      67.518   4.294   9.587  1.00  0.00     0.166 HD
HETATM   11  S   UNL     1      67.585   1.259   7.728  1.00  0.00    -0.087 SA
HETATM   12  C   UNL     1      68.075   1.705  10.422  1.00  0.00     0.076 C 
HETATM   13  C   UNL     1      67.163   2.615   6.771  1.00  0.00     0.081 A 
ENDBRANCH   1   7
BRANCH   3  14
HETATM   14  N   UNL     1      63.819   7.270   6.696  1.00  0.00    -0.399 N 
HETATM   15  H   UNL     1      63.057   6.766   6.332  1.00  0.00     0.156 HD
HETATM   16  H   UNL     1      63.665   8.115   7.178  1.00  0.00     0.156 HD
ENDBRANCH   3  14
TORSDOF 2
ENDMDL
