MODEL 1
REMARK VINA RESULT:      -5.5      0.000      0.000
REMARK  3 active torsions:
REMARK  status: ('A' for Active; 'I' for Inactive)
REMARK    1  A    between atoms: C_3  and  C_7 
REMARK    2  A    between atoms: C_9  and  C_14 
REMARK    3  A    between atoms: N_10  and  C_14 
ROOT
HETATM    1  C   UNL     1      63.337   8.901   4.690  1.00  0.00    -0.008 A 
HETATM    2  C   UNL     1      62.910   8.632   3.383  1.00  0.00     0.022 A 
HETATM    3  C   UNL     1      62.171   9.568   2.653  1.00  0.00    -0.032 A 
HETATM    4  C   UNL     1      63.060  10.155   5.253  1.00  0.00     0.014 A 
HETATM    5  C   UNL     1      62.348  11.108   4.526  1.00  0.00     0.002 A 
HETATM    6  C   UNL     1      61.898  10.813   3.241  1.00  0.00     0.009 A 
ENDROOT
BRANCH   1   7
HETATM    7  C   UNL     1      64.031   7.885   5.458  1.00  0.00     0.049 A 
HETATM    8  N   UNL     1      65.205   8.152   6.141  1.00  0.00    -0.353 N 
HETATM    9  C   UNL     1      65.621   7.068   6.753  1.00  0.00     0.047 A 
ATOM     10  HN  UNL     1      65.677   9.056   6.165  1.00  0.00     0.166 HD
HETATM   11  S   UNL     1      64.651   5.663   6.528  1.00  0.00    -0.087 SA
HETATM   12  C   UNL     1      66.846   6.985   7.593  1.00  0.00     0.076 C 
HETATM   13  C   UNL     1      63.583   6.580   5.556  1.00  0.00     0.081 A 
ENDBRANCH   1   7
BRANCH   3  14
HETATM   14  C   UNL     1      61.647   9.238   1.276  1.00  0.00     0.270 C 
BRANCH  14  15
HETATM   15  N   UNL     1      60.244   8.831   1.342  1.00  0.00    -0.075 N 
HETATM   16  C   UNL     1      59.948   7.791   0.370  1.00  0.00     0.267 C 
HETATM   17  H   UNL     1      59.653   9.641   1.153  1.00  0.00     0.277 HD
HETATM   18  H   UNL     1      60.061   8.460   2.274  1.00  0.00     0.277 HD
ENDBRANCH  14  15
ENDBRANCH   3  14
TORSDOF 3
ENDMDL
MODEL 2
REMARK VINA RESULT:      -5.1      1.846      2.746
REMARK  3 active torsions:
REMARK  status: ('A' for Active; 'I' for Inactive)
REMARK    1  A    between atoms: C_3  and  C_7 
REMARK    2  A    between atoms: C_9  and  C_14 
REMARK    3  A    between atoms: N_10  and  C_14 
ROOT
HETATM    1  C   UNL     1      63.860   7.443   5.319  1.00  0.00    -0.008 A 
HETATM    2  C   UNL     1      63.565   8.776   4.999  1.00  0.00     0.022 A 
HETATM    3  C   UNL     1      62.391   9.116   4.321  1.00  0.00    -0.032 A 
HETATM    4  C   UNL     1      62.931   6.443   4.997  1.00  0.00     0.014 A 
HETATM    5  C   UNL     1      61.743   6.773   4.346  1.00  0.00     0.002 A 
HETATM    6  C   UNL     1      61.480   8.097   4.000  1.00  0.00     0.009 A 
ENDROOT
BRANCH   1   7
HETATM    7  C   UNL     1      65.121   7.104   5.950  1.00  0.00     0.049 A 
HETATM    8  N   UNL     1      65.257   7.020   7.325  1.00  0.00    -0.353 N 
HETATM    9  C   UNL     1      66.491   6.694   7.631  1.00  0.00     0.047 A 
ATOM     10  HN  UNL     1      64.510   7.187   8.000  1.00  0.00     0.166 HD
HETATM   11  S   UNL     1      67.564   6.494   6.300  1.00  0.00    -0.087 SA
HETATM   12  C   UNL     1      66.999   6.504   9.017  1.00  0.00     0.076 C 
HETATM   13  C   UNL     1      66.276   6.850   5.233  1.00  0.00     0.081 A 
ENDBRANCH   1   7
BRANCH   3  14
HETATM   14  C   UNL     1      62.120  10.544   3.909  1.00  0.00     0.270 C 
BRANCH  14  15
HETATM   15  N   UNL     1      61.540  10.593   2.567  1.00  0.00    -0.075 N 
HETATM   16  C   UNL     1      61.715  11.903   1.962  1.00  0.00     0.267 C 
HETATM   17  H   UNL     1      60.543  10.385   2.628  1.00  0.00     0.277 HD
HETATM   18  H   UNL     1      62.018   9.904   1.986  1.00  0.00     0.277 HD
ENDBRANCH  14  15
ENDBRANCH   3  14
TORSDOF 3
ENDMDL
MODEL 3
REMARK VINA RESULT:      -4.8      2.413      6.675
REMARK  3 active torsions:
REMARK  status: ('A' for Active; 'I' for Inactive)
REMARK    1  A    between atoms: C_3  and  C_7 
REMARK    2  A    between atoms: C_9  and  C_14 
REMARK    3  A    between atoms: N_10  and  C_14 
ROOT
HETATM    1  C   UNL     1      64.719   7.473   4.609  1.00  0.00    -0.008 A 
HETATM    2  C   UNL     1      64.943   7.461   5.992  1.00  0.00     0.022 A 
HETATM    3  C   UNL     1      65.880   6.597   6.568  1.00  0.00    -0.032 A 
HETATM    4  C   UNL     1      65.489   6.639   3.785  1.00  0.00     0.014 A 
HETATM    5  C   UNL     1      66.447   5.794   4.344  1.00  0.00     0.002 A 
HETATM    6  C   UNL     1      66.633   5.764   5.725  1.00  0.00     0.009 A 
ENDROOT
BRANCH   1   7
HETATM    7  C   UNL     1      63.685   8.318   4.042  1.00  0.00     0.049 A 
HETATM    8  N   UNL     1      63.172   8.105   2.774  1.00  0.00    -0.353 N 
HETATM    9  C   UNL     1      62.252   9.002   2.509  1.00  0.00     0.047 A 
ATOM     10  HN  UNL     1      63.466   7.362   2.140  1.00  0.00     0.166 HD
HETATM   11  S   UNL     1      61.964  10.166   3.745  1.00  0.00    -0.087 SA
HETATM   12  C   UNL     1      61.478   9.074   1.241  1.00  0.00     0.076 C 
HETATM   13  C   UNL     1      63.144   9.398   4.716  1.00  0.00     0.081 A 
ENDBRANCH   1   7
BRANCH   3  14
HETATM   14  C   UNL     1      66.057   6.534   8.066  1.00  0.00     0.270 C 
BRANCH  14  15
HETATM   15  N   UNL     1      67.417   6.920   8.441  1.00  0.00    -0.075 N 
HETATM   16  C   UNL     1      68.074   5.870   9.202  1.00  0.00     0.267 C 
HETATM   17  H   UNL     1      67.378   7.766   9.009  1.00  0.00     0.277 HD
HETATM   18  H   UNL     1      67.952   7.081   7.588  1.00  0.00     0.277 HD
ENDBRANCH  14  15
ENDBRANCH   3  14
TORSDOF 3
ENDMDL
MODEL 4
REMARK VINA RESULT:      -4.8      2.419      5.989
REMARK  3 active torsions:
REMARK  status: ('A' for Active; 'I' for Inactive)
REMARK    1  A    between atoms: C_3  and  C_7 
REMARK    2  A    between atoms: C_9  and  C_14 
REMARK    3  A    between atoms: N_10  and  C_14 
ROOT
HETATM    1  C   UNL     1      61.866   8.929   3.345  1.00  0.00    -0.008 A 
HETATM    2  C   UNL     1      62.988   8.199   3.758  1.00  0.00     0.022 A 
HETATM    3  C   UNL     1      63.928   8.747   4.636  1.00  0.00    -0.032 A 
HETATM    4  C   UNL     1      61.659  10.215   3.866  1.00  0.00     0.014 A 
HETATM    5  C   UNL     1      62.574  10.762   4.765  1.00  0.00     0.002 A 
HETATM    6  C   UNL     1      63.705  10.039   5.138  1.00  0.00     0.009 A 
ENDROOT
BRANCH   1   7
HETATM    7  C   UNL     1      60.947   8.372   2.371  1.00  0.00     0.049 A 
HETATM    8  N   UNL     1      59.648   8.022   2.699  1.00  0.00    -0.353 N 
HETATM    9  C   UNL     1      59.033   7.550   1.641  1.00  0.00     0.047 A 
ATOM     10  HN  UNL     1      59.231   8.117   3.625  1.00  0.00     0.166 HD
HETATM   11  S   UNL     1      59.974   7.471   0.201  1.00  0.00    -0.087 SA
HETATM   12  C   UNL     1      57.620   7.085   1.618  1.00  0.00     0.076 C 
HETATM   13  C   UNL     1      61.298   8.140   1.053  1.00  0.00     0.081 A 
ENDBRANCH   1   7
BRANCH   3  14
HETATM   14  C   UNL     1      65.175   7.982   5.012  1.00  0.00     0.270 C 
BRANCH  14  15
HETATM   15  N   UNL     1      65.342   7.952   6.465  1.00  0.00    -0.075 N 
HETATM   16  C   UNL     1      66.721   7.674   6.833  1.00  0.00     0.267 C 
HETATM   17  H   UNL     1      64.741   7.226   6.855  1.00  0.00     0.277 HD
HETATM   18  H   UNL     1      65.090   8.868   6.836  1.00  0.00     0.277 HD
ENDBRANCH  14  15
ENDBRANCH   3  14
TORSDOF 3
ENDMDL
MODEL 5
REMARK VINA RESULT:      -4.7      2.565      6.239
REMARK  3 active torsions:
REMARK  status: ('A' for Active; 'I' for Inactive)
REMARK    1  A    between atoms: C_3  and  C_7 
REMARK    2  A    between atoms: C_9  and  C_14 
REMARK    3  A    between atoms: N_10  and  C_14 
ROOT
HETATM    1  C   UNL     1      63.470   7.821   4.493  1.00  0.00    -0.008 A 
HETATM    2  C   UNL     1      64.818   7.985   4.841  1.00  0.00     0.022 A 
HETATM    3  C   UNL     1      65.360   7.349   5.962  1.00  0.00    -0.032 A 
HETATM    4  C   UNL     1      62.668   6.959   5.257  1.00  0.00     0.014 A 
HETATM    5  C   UNL     1      63.205   6.297   6.360  1.00  0.00     0.002 A 
HETATM    6  C   UNL     1      64.536   6.499   6.717  1.00  0.00     0.009 A 
ENDROOT
BRANCH   1   7
HETATM    7  C   UNL     1      62.909   8.553   3.374  1.00  0.00     0.049 A 
HETATM    8  N   UNL     1      62.585   9.896   3.462  1.00  0.00    -0.353 N 
HETATM    9  C   UNL     1      62.103  10.314   2.315  1.00  0.00     0.047 A 
ATOM     10  HN  UNL     1      62.704  10.476   4.293  1.00  0.00     0.166 HD
HETATM   11  S   UNL     1      61.982   9.124   1.076  1.00  0.00    -0.087 SA
HETATM   12  C   UNL     1      61.658  11.706   2.038  1.00  0.00     0.076 C 
HETATM   13  C   UNL     1      62.646   7.969   2.148  1.00  0.00     0.081 A 
ENDBRANCH   1   7
BRANCH   3  14
HETATM   14  C   UNL     1      66.792   7.595   6.375  1.00  0.00     0.270 C 
BRANCH  14  15
HETATM   15  N   UNL     1      66.979   7.292   7.794  1.00  0.00    -0.075 N 
HETATM   16  C   UNL     1      67.744   6.070   7.977  1.00  0.00     0.267 C 
HETATM   17  H   UNL     1      66.065   7.181   8.234  1.00  0.00     0.277 HD
HETATM   18  H   UNL     1      67.495   8.061   8.221  1.00  0.00     0.277 HD
ENDBRANCH  14  15
ENDBRANCH   3  14
TORSDOF 3
ENDMDL
MODEL 6
REMARK VINA RESULT:      -4.5      1.743      1.919
REMARK  3 active torsions:
REMARK  status: ('A' for Active; 'I' for Inactive)
REMARK    1  A    between atoms: C_3  and  C_7 
REMARK    2  A    between atoms: C_9  and  C_14 
REMARK    3  A    between atoms: N_10  and  C_14 
ROOT
HETATM    1  C   UNL     1      64.132   8.273   4.491  1.00  0.00    -0.008 A 
HETATM    2  C   UNL     1      63.378   7.766   3.424  1.00  0.00     0.022 A 
HETATM    3  C   UNL     1      62.216   8.409   2.986  1.00  0.00    -0.032 A 
HETATM    4  C   UNL     1      63.738   9.477   5.093  1.00  0.00     0.014 A 
HETATM    5  C   UNL     1      62.597  10.143   4.647  1.00  0.00     0.002 A 
HETATM    6  C   UNL     1      61.836   9.608   3.610  1.00  0.00     0.009 A 
ENDROOT
BRANCH   1   7
HETATM    7  C   UNL     1      65.288   7.546   4.981  1.00  0.00     0.049 A 
HETATM    8  N   UNL     1      65.650   6.310   4.474  1.00  0.00    -0.353 N 
HETATM    9  C   UNL     1      66.728   5.877   5.084  1.00  0.00     0.047 A 
ATOM     10  HN  UNL     1      65.153   5.810   3.736  1.00  0.00     0.166 HD
HETATM   11  S   UNL     1      67.356   6.906   6.313  1.00  0.00    -0.087 SA
HETATM   12  C   UNL     1      67.408   4.587   4.790  1.00  0.00     0.076 C 
HETATM   13  C   UNL     1      66.104   8.024   5.990  1.00  0.00     0.081 A 
ENDBRANCH   1   7
BRANCH   3  14
HETATM   14  C   UNL     1      61.366   7.812   1.890  1.00  0.00     0.270 C 
BRANCH  14  15
HETATM   15  N   UNL     1      60.198   8.652   1.627  1.00  0.00    -0.075 N 
HETATM   16  C   UNL     1      59.437   8.160   0.491  1.00  0.00     0.267 C 
HETATM   17  H   UNL     1      60.510   9.604   1.431  1.00  0.00     0.277 HD
HETATM   18  H   UNL     1      59.596   8.632   2.450  1.00  0.00     0.277 HD
ENDBRANCH  14  15
ENDBRANCH   3  14
TORSDOF 3
ENDMDL
MODEL 7
REMARK VINA RESULT:      -4.3      2.059      2.261
REMARK  3 active torsions:
REMARK  status: ('A' for Active; 'I' for Inactive)
REMARK    1  A    between atoms: C_3  and  C_7 
REMARK    2  A    between atoms: C_9  and  C_14 
REMARK    3  A    between atoms: N_10  and  C_14 
ROOT
HETATM    1  C   UNL     1      63.603   7.588   5.081  1.00  0.00    -0.008 A 
HETATM    2  C   UNL     1      62.509   6.913   4.525  1.00  0.00     0.022 A 
HETATM    3  C   UNL     1      61.493   7.604   3.856  1.00  0.00    -0.032 A 
HETATM    4  C   UNL     1      63.704   8.977   4.914  1.00  0.00     0.014 A 
HETATM    5  C   UNL     1      62.713   9.674   4.225  1.00  0.00     0.002 A 
HETATM    6  C   UNL     1      61.611   8.995   3.710  1.00  0.00     0.009 A 
ENDROOT
BRANCH   1   7
HETATM    7  C   UNL     1      64.603   6.861   5.840  1.00  0.00     0.049 A 
HETATM    8  N   UNL     1      64.890   7.166   7.160  1.00  0.00    -0.353 N 
HETATM    9  C   UNL     1      65.822   6.360   7.610  1.00  0.00     0.047 A 
ATOM     10  HN  UNL     1      64.443   7.906   7.702  1.00  0.00     0.166 HD
HETATM   11  S   UNL     1      66.429   5.211   6.480  1.00  0.00    -0.087 SA
HETATM   12  C   UNL     1      66.374   6.388   8.992  1.00  0.00     0.076 C 
HETATM   13  C   UNL     1      65.346   5.825   5.306  1.00  0.00     0.081 A 
ENDBRANCH   1   7
BRANCH   3  14
HETATM   14  C   UNL     1      60.278   6.877   3.331  1.00  0.00     0.270 C 
BRANCH  14  15
HETATM   15  N   UNL     1      59.230   6.821   4.350  1.00  0.00    -0.075 N 
HETATM   16  C   UNL     1      58.047   7.556   3.933  1.00  0.00     0.267 C 
HETATM   17  H   UNL     1      59.586   7.227   5.215  1.00  0.00     0.277 HD
HETATM   18  H   UNL     1      58.969   5.845   4.489  1.00  0.00     0.277 HD
ENDBRANCH  14  15
ENDBRANCH   3  14
TORSDOF 3
ENDMDL
MODEL 8
REMARK VINA RESULT:      -4.2      3.330      6.164
REMARK  3 active torsions:
REMARK  status: ('A' for Active; 'I' for Inactive)
REMARK    1  A    between atoms: C_3  and  C_7 
REMARK    2  A    between atoms: C_9  and  C_14 
REMARK    3  A    between atoms: N_10  and  C_14 
ROOT
HETATM    1  C   UNL     1      60.167   7.768   2.909  1.00  0.00    -0.008 A 
HETATM    2  C   UNL     1      61.216   8.029   3.801  1.00  0.00     0.022 A 
HETATM    3  C   UNL     1      62.406   8.622   3.368  1.00  0.00    -0.032 A 
HETATM    4  C   UNL     1      60.299   8.158   1.568  1.00  0.00     0.014 A 
HETATM    5  C   UNL     1      61.469   8.776   1.131  1.00  0.00     0.002 A 
HETATM    6  C   UNL     1      62.519   8.996   2.020  1.00  0.00     0.009 A 
ENDROOT
BRANCH   1   7
HETATM    7  C   UNL     1      58.974   7.078   3.363  1.00  0.00     0.049 A 
HETATM    8  N   UNL     1      57.756   7.213   2.720  1.00  0.00    -0.353 N 
HETATM    9  C   UNL     1      56.849   6.485   3.326  1.00  0.00     0.047 A 
ATOM     10  HN  UNL     1      57.588   7.792   1.897  1.00  0.00     0.166 HD
HETATM   11  S   UNL     1      57.390   5.618   4.713  1.00  0.00    -0.087 SA
HETATM   12  C   UNL     1      55.426   6.377   2.905  1.00  0.00     0.076 C 
HETATM   13  C   UNL     1      58.961   6.249   4.470  1.00  0.00     0.081 A 
ENDBRANCH   1   7
BRANCH   3  14
HETATM   14  C   UNL     1      63.560   8.826   4.320  1.00  0.00     0.270 C 
BRANCH  14  15
HETATM   15  N   UNL     1      63.098   9.433   5.569  1.00  0.00    -0.075 N 
HETATM   16  C   UNL     1      62.908  10.866   5.422  1.00  0.00     0.267 C 
HETATM   17  H   UNL     1      63.790   9.261   6.298  1.00  0.00     0.277 HD
HETATM   18  H   UNL     1      62.201   9.013   5.816  1.00  0.00     0.277 HD
ENDBRANCH  14  15
ENDBRANCH   3  14
TORSDOF 3
ENDMDL
MODEL 9
REMARK VINA RESULT:      -4.0      2.794      6.489
REMARK  3 active torsions:
REMARK  status: ('A' for Active; 'I' for Inactive)
REMARK    1  A    between atoms: C_3  and  C_7 
REMARK    2  A    between atoms: C_9  and  C_14 
REMARK    3  A    between atoms: N_10  and  C_14 
ROOT
HETATM    1  C   UNL     1      65.140   7.262   5.161  1.00  0.00    -0.008 A 
HETATM    2  C   UNL     1      65.342   6.318   6.177  1.00  0.00     0.022 A 
HETATM    3  C   UNL     1      66.629   5.927   6.559  1.00  0.00    -0.032 A 
HETATM    4  C   UNL     1      66.254   7.862   4.556  1.00  0.00     0.014 A 
HETATM    5  C   UNL     1      67.542   7.502   4.948  1.00  0.00     0.002 A 
HETATM    6  C   UNL     1      67.729   6.535   5.933  1.00  0.00     0.009 A 
ENDROOT
BRANCH   1   7
HETATM    7  C   UNL     1      63.796   7.591   4.725  1.00  0.00     0.049 A 
HETATM    8  N   UNL     1      62.737   6.712   4.873  1.00  0.00    -0.353 N 
HETATM    9  C   UNL     1      61.639   7.255   4.404  1.00  0.00     0.047 A 
ATOM     10  HN  UNL     1      62.801   5.781   5.286  1.00  0.00     0.166 HD
HETATM   11  S   UNL     1      61.810   8.833   3.736  1.00  0.00    -0.087 SA
HETATM   12  C   UNL     1      60.302   6.603   4.407  1.00  0.00     0.076 C 
HETATM   13  C   UNL     1      63.475   8.795   4.124  1.00  0.00     0.081 A 
ENDBRANCH   1   7
BRANCH   3  14
HETATM   14  C   UNL     1      66.836   4.851   7.599  1.00  0.00     0.270 C 
BRANCH  14  15
HETATM   15  N   UNL     1      66.253   5.253   8.879  1.00  0.00    -0.075 N 
HETATM   16  C   UNL     1      66.927   6.421   9.423  1.00  0.00     0.267 C 
HETATM   17  H   UNL     1      66.339   4.482   9.541  1.00  0.00     0.277 HD
HETATM   18  H   UNL     1      65.273   5.490   8.726  1.00  0.00     0.277 HD
ENDBRANCH  14  15
ENDBRANCH   3  14
TORSDOF 3
ENDMDL
