MODEL 1
REMARK VINA RESULT:      -5.7      0.000      0.000
REMARK  3 active torsions:
REMARK  status: ('A' for Active; 'I' for Inactive)
REMARK    1  A    between atoms: C_3  and  C_9 
REMARK    2  A    between atoms: C_6  and  C_10 
REMARK    3  A    between atoms: C_10  and  O_11 
ROOT
HETATM    1  N   UNL     1      65.773   8.254   5.069  1.00  0.00    -0.345 N 
ATOM      2  HN  UNL     1      66.095   8.841   4.299  1.00  0.00     0.167 HD
HETATM    3  C   UNL     1      64.470   8.206   5.403  1.00  0.00     0.115 A 
HETATM    4  N   UNL     1      63.978   7.451   6.401  1.00  0.00    -0.351 N 
ATOM      5  HN  UNL     1      62.984   7.435   6.625  1.00  0.00     0.166 HD
HETATM    6  C   UNL     1      66.234   6.691   6.825  1.00  0.00     0.003 A 
HETATM    7  C   UNL     1      66.645   7.505   5.780  1.00  0.00     0.016 A 
HETATM    8  C   UNL     1      64.874   6.716   7.085  1.00  0.00     0.101 A 
HETATM    9  C   UNL     1      68.075   7.655   5.351  1.00  0.00     0.069 C 
ENDROOT
BRANCH   3  10
HETATM   10  C   UNL     1      63.535   9.044   4.630  1.00  0.00     0.008 A 
HETATM   11  C   UNL     1      63.033   8.614   3.384  1.00  0.00     0.015 A 
HETATM   12  C   UNL     1      62.143   9.398   2.643  1.00  0.00     0.001 A 
HETATM   13  C   UNL     1      61.733  10.633   3.132  1.00  0.00     0.000 A 
HETATM   14  C   UNL     1      62.216  11.088   4.351  1.00  0.00     0.001 A 
HETATM   15  C   UNL     1      63.108  10.303   5.092  1.00  0.00     0.015 A 
ENDBRANCH   3  10
BRANCH   6  16
HETATM   16  C   UNL     1      67.149   5.856   7.660  1.00  0.00     0.206 C 
BRANCH  16  17
HETATM   17  O   UNL     1      67.742   6.624   8.698  1.00  0.00    -0.396 OA
HETATM   18  H   UNL     1      68.387   6.080   9.176  1.00  0.00     0.209 HD
ENDBRANCH  16  17
ENDBRANCH   6  16
TORSDOF 3
ENDMDL
MODEL 2
REMARK VINA RESULT:      -5.5      0.843      2.055
REMARK  3 active torsions:
REMARK  status: ('A' for Active; 'I' for Inactive)
REMARK    1  A    between atoms: C_3  and  C_9 
REMARK    2  A    between atoms: C_6  and  C_10 
REMARK    3  A    between atoms: C_10  and  O_11 
ROOT
HETATM    1  N   UNL     1      64.447   6.756   5.763  1.00  0.00    -0.345 N 
ATOM      2  HN  UNL     1      63.611   6.328   5.364  1.00  0.00     0.167 HD
HETATM    3  C   UNL     1      64.700   8.067   5.593  1.00  0.00     0.115 A 
HETATM    4  N   UNL     1      65.777   8.695   6.096  1.00  0.00    -0.351 N 
ATOM      5  HN  UNL     1      65.937   9.692   5.951  1.00  0.00     0.166 HD
HETATM    6  C   UNL     1      66.468   6.579   7.037  1.00  0.00     0.003 A 
HETATM    7  C   UNL     1      65.330   6.020   6.476  1.00  0.00     0.016 A 
HETATM    8  C   UNL     1      66.632   7.933   6.803  1.00  0.00     0.101 A 
HETATM    9  C   UNL     1      64.974   4.566   6.578  1.00  0.00     0.069 C 
ENDROOT
BRANCH   3  10
HETATM   10  C   UNL     1      63.738   8.851   4.797  1.00  0.00     0.008 A 
HETATM   11  C   UNL     1      63.264  10.099   5.250  1.00  0.00     0.015 A 
HETATM   12  C   UNL     1      62.354  10.853   4.502  1.00  0.00     0.001 A 
HETATM   13  C   UNL     1      61.896  10.375   3.279  1.00  0.00     0.000 A 
HETATM   14  C   UNL     1      62.338   9.145   2.809  1.00  0.00     0.001 A 
HETATM   15  C   UNL     1      63.248   8.391   3.559  1.00  0.00     0.015 A 
ENDBRANCH   3  10
BRANCH   6  16
HETATM   16  C   UNL     1      67.489   5.817   7.818  1.00  0.00     0.206 C 
BRANCH  16  17
HETATM   17  O   UNL     1      68.003   6.595   8.890  1.00  0.00    -0.396 OA
HETATM   18  H   UNL     1      68.872   6.253   9.151  1.00  0.00     0.209 HD
ENDBRANCH  16  17
ENDBRANCH   6  16
TORSDOF 3
ENDMDL
MODEL 3
REMARK VINA RESULT:      -5.2      2.674      5.905
REMARK  3 active torsions:
REMARK  status: ('A' for Active; 'I' for Inactive)
REMARK    1  A    between atoms: C_3  and  C_9 
REMARK    2  A    between atoms: C_6  and  C_10 
REMARK    3  A    between atoms: C_10  and  O_11 
ROOT
HETATM    1  N   UNL     1      64.198   7.567   3.884  1.00  0.00    -0.345 N 
ATOM      2  HN  UNL     1      64.493   6.711   3.413  1.00  0.00     0.167 HD
HETATM    3  C   UNL     1      64.770   7.952   5.040  1.00  0.00     0.115 A 
HETATM    4  N   UNL     1      64.434   9.070   5.707  1.00  0.00    -0.351 N 
ATOM      5  HN  UNL     1      64.891   9.335   6.580  1.00  0.00     0.166 HD
HETATM    6  C   UNL     1      62.808   9.516   3.975  1.00  0.00     0.003 A 
HETATM    7  C   UNL     1      63.221   8.343   3.362  1.00  0.00     0.016 A 
HETATM    8  C   UNL     1      63.461   9.820   5.157  1.00  0.00     0.101 A 
HETATM    9  C   UNL     1      62.626   7.808   2.093  1.00  0.00     0.069 C 
ENDROOT
BRANCH   3  10
HETATM   10  C   UNL     1      65.820   7.085   5.605  1.00  0.00     0.008 A 
HETATM   11  C   UNL     1      66.256   7.243   6.936  1.00  0.00     0.015 A 
HETATM   12  C   UNL     1      67.249   6.424   7.484  1.00  0.00     0.001 A 
HETATM   13  C   UNL     1      67.829   5.424   6.712  1.00  0.00     0.000 A 
HETATM   14  C   UNL     1      67.427   5.249   5.394  1.00  0.00     0.001 A 
HETATM   15  C   UNL     1      66.434   6.070   4.846  1.00  0.00     0.015 A 
ENDBRANCH   3  10
BRANCH   6  16
HETATM   16  C   UNL     1      61.723  10.405   3.460  1.00  0.00     0.206 C 
BRANCH  16  17
HETATM   17  O   UNL     1      61.968  11.763   3.796  1.00  0.00    -0.396 OA
HETATM   18  H   UNL     1      62.507  12.176   3.104  1.00  0.00     0.209 HD
ENDBRANCH  16  17
ENDBRANCH   6  16
TORSDOF 3
ENDMDL
MODEL 4
REMARK VINA RESULT:      -4.9      1.664      1.695
REMARK  3 active torsions:
REMARK  status: ('A' for Active; 'I' for Inactive)
REMARK    1  A    between atoms: C_3  and  C_9 
REMARK    2  A    between atoms: C_6  and  C_10 
REMARK    3  A    between atoms: C_10  and  O_11 
ROOT
HETATM    1  N   UNL     1      64.931   7.359   4.306  1.00  0.00    -0.345 N 
ATOM      2  HN  UNL     1      65.383   7.765   3.486  1.00  0.00     0.167 HD
HETATM    3  C   UNL     1      63.686   7.728   4.663  1.00  0.00     0.115 A 
HETATM    4  N   UNL     1      63.031   7.228   5.725  1.00  0.00    -0.351 N 
ATOM      5  HN  UNL     1      62.086   7.527   5.966  1.00  0.00     0.166 HD
HETATM    6  C   UNL     1      64.974   5.862   6.176  1.00  0.00     0.003 A 
HETATM    7  C   UNL     1      65.568   6.437   5.063  1.00  0.00     0.016 A 
HETATM    8  C   UNL     1      63.694   6.311   6.454  1.00  0.00     0.101 A 
HETATM    9  C   UNL     1      66.960   6.121   4.602  1.00  0.00     0.069 C 
ENDROOT
BRANCH   3  10
HETATM   10  C   UNL     1      63.014   8.748   3.838  1.00  0.00     0.008 A 
HETATM   11  C   UNL     1      62.738   8.515   2.475  1.00  0.00     0.015 A 
HETATM   12  C   UNL     1      62.097   9.474   1.683  1.00  0.00     0.001 A 
HETATM   13  C   UNL     1      61.716  10.691   2.238  1.00  0.00     0.000 A 
HETATM   14  C   UNL     1      61.981  10.953   3.576  1.00  0.00     0.001 A 
HETATM   15  C   UNL     1      62.623   9.993   4.367  1.00  0.00     0.015 A 
ENDBRANCH   3  10
BRANCH   6  16
HETATM   16  C   UNL     1      65.631   4.854   7.063  1.00  0.00     0.206 C 
BRANCH  16  17
HETATM   17  O   UNL     1      64.680   3.948   7.604  1.00  0.00    -0.396 OA
HETATM   18  H   UNL     1      65.137   3.281   8.139  1.00  0.00     0.209 HD
ENDBRANCH  16  17
ENDBRANCH   6  16
TORSDOF 3
ENDMDL
MODEL 5
REMARK VINA RESULT:      -4.7      2.587      5.979
REMARK  3 active torsions:
REMARK  status: ('A' for Active; 'I' for Inactive)
REMARK    1  A    between atoms: C_3  and  C_9 
REMARK    2  A    between atoms: C_6  and  C_10 
REMARK    3  A    between atoms: C_10  and  O_11 
ROOT
HETATM    1  N   UNL     1      63.321   6.839   5.595  1.00  0.00    -0.345 N 
ATOM      2  HN  UNL     1      63.097   5.868   5.815  1.00  0.00     0.167 HD
HETATM    3  C   UNL     1      64.474   7.393   6.015  1.00  0.00     0.115 A 
HETATM    4  N   UNL     1      64.835   8.662   5.755  1.00  0.00    -0.351 N 
ATOM      5  HN  UNL     1      65.718   9.050   6.085  1.00  0.00     0.166 HD
HETATM    6  C   UNL     1      62.752   8.920   4.555  1.00  0.00     0.003 A 
HETATM    7  C   UNL     1      62.468   7.602   4.876  1.00  0.00     0.016 A 
HETATM    8  C   UNL     1      63.963   9.391   5.034  1.00  0.00     0.101 A 
HETATM    9  C   UNL     1      61.199   6.902   4.487  1.00  0.00     0.069 C 
ENDROOT
BRANCH   3  10
HETATM   10  C   UNL     1      65.385   6.553   6.814  1.00  0.00     0.008 A 
HETATM   11  C   UNL     1      65.232   5.152   6.857  1.00  0.00     0.015 A 
HETATM   12  C   UNL     1      66.092   4.344   7.609  1.00  0.00     0.001 A 
HETATM   13  C   UNL     1      67.128   4.921   8.336  1.00  0.00     0.000 A 
HETATM   14  C   UNL     1      67.299   6.299   8.320  1.00  0.00     0.001 A 
HETATM   15  C   UNL     1      66.437   7.106   7.568  1.00  0.00     0.015 A 
ENDBRANCH   3  10
BRANCH   6  16
HETATM   16  C   UNL     1      61.844   9.820   3.781  1.00  0.00     0.206 C 
BRANCH  16  17
HETATM   17  O   UNL     1      61.885  11.148   4.284  1.00  0.00    -0.396 OA
HETATM   18  H   UNL     1      61.071  11.613   4.038  1.00  0.00     0.209 HD
ENDBRANCH  16  17
ENDBRANCH   6  16
TORSDOF 3
ENDMDL
MODEL 6
REMARK VINA RESULT:      -4.7      2.110      2.930
REMARK  3 active torsions:
REMARK  status: ('A' for Active; 'I' for Inactive)
REMARK    1  A    between atoms: C_3  and  C_9 
REMARK    2  A    between atoms: C_6  and  C_10 
REMARK    3  A    between atoms: C_10  and  O_11 
ROOT
HETATM    1  N   UNL     1      64.448   6.913   3.358  1.00  0.00    -0.345 N 
ATOM      2  HN  UNL     1      64.294   6.210   2.636  1.00  0.00     0.167 HD
HETATM    3  C   UNL     1      63.544   7.885   3.581  1.00  0.00     0.115 A 
HETATM    4  N   UNL     1      63.682   8.837   4.520  1.00  0.00    -0.351 N 
ATOM      5  HN  UNL     1      62.975   9.558   4.665  1.00  0.00     0.166 HD
HETATM    6  C   UNL     1      65.797   7.830   5.113  1.00  0.00     0.003 A 
HETATM    7  C   UNL     1      65.567   6.892   4.117  1.00  0.00     0.016 A 
HETATM    8  C   UNL     1      64.806   8.784   5.258  1.00  0.00     0.101 A 
HETATM    9  C   UNL     1      66.525   5.792   3.767  1.00  0.00     0.069 C 
ENDROOT
BRANCH   3  10
HETATM   10  C   UNL     1      62.339   7.904   2.732  1.00  0.00     0.008 A 
HETATM   11  C   UNL     1      61.173   7.207   3.108  1.00  0.00     0.015 A 
HETATM   12  C   UNL     1      60.022   7.220   2.313  1.00  0.00     0.001 A 
HETATM   13  C   UNL     1      60.010   7.935   1.120  1.00  0.00     0.000 A 
HETATM   14  C   UNL     1      61.146   8.625   0.718  1.00  0.00     0.001 A 
HETATM   15  C   UNL     1      62.297   8.610   1.515  1.00  0.00     0.015 A 
ENDBRANCH   3  10
BRANCH   6  16
HETATM   16  C   UNL     1      67.020   7.872   5.970  1.00  0.00     0.206 C 
BRANCH  16  17
HETATM   17  O   UNL     1      66.894   8.846   6.997  1.00  0.00    -0.396 OA
HETATM   18  H   UNL     1      67.681   8.822   7.564  1.00  0.00     0.209 HD
ENDBRANCH  16  17
ENDBRANCH   6  16
TORSDOF 3
ENDMDL
MODEL 7
REMARK VINA RESULT:      -4.7      1.731      2.870
REMARK  3 active torsions:
REMARK  status: ('A' for Active; 'I' for Inactive)
REMARK    1  A    between atoms: C_3  and  C_9 
REMARK    2  A    between atoms: C_6  and  C_10 
REMARK    3  A    between atoms: C_10  and  O_11 
ROOT
HETATM    1  N   UNL     1      62.716   6.745   4.984  1.00  0.00    -0.345 N 
ATOM      2  HN  UNL     1      61.717   6.752   4.781  1.00  0.00     0.167 HD
HETATM    3  C   UNL     1      63.521   7.722   4.526  1.00  0.00     0.115 A 
HETATM    4  N   UNL     1      64.844   7.778   4.762  1.00  0.00    -0.351 N 
ATOM      5  HN  UNL     1      65.424   8.535   4.403  1.00  0.00     0.166 HD
HETATM    6  C   UNL     1      64.621   5.725   6.019  1.00  0.00     0.003 A 
HETATM    7  C   UNL     1      63.267   5.753   5.720  1.00  0.00     0.016 A 
HETATM    8  C   UNL     1      65.357   6.776   5.500  1.00  0.00     0.101 A 
HETATM    9  C   UNL     1      62.293   4.697   6.152  1.00  0.00     0.069 C 
ENDROOT
BRANCH   3  10
HETATM   10  C   UNL     1      62.908   8.785   3.709  1.00  0.00     0.008 A 
HETATM   11  C   UNL     1      62.559  10.028   4.276  1.00  0.00     0.015 A 
HETATM   12  C   UNL     1      61.979  11.046   3.511  1.00  0.00     0.001 A 
HETATM   13  C   UNL     1      61.737  10.844   2.157  1.00  0.00     0.000 A 
HETATM   14  C   UNL     1      62.062   9.627   1.571  1.00  0.00     0.001 A 
HETATM   15  C   UNL     1      62.640   8.609   2.338  1.00  0.00     0.015 A 
ENDBRANCH   3  10
BRANCH   6  16
HETATM   16  C   UNL     1      65.292   4.649   6.809  1.00  0.00     0.206 C 
BRANCH  16  17
HETATM   17  O   UNL     1      65.610   5.096   8.119  1.00  0.00    -0.396 OA
HETATM   18  H   UNL     1      64.816   5.462   8.538  1.00  0.00     0.209 HD
ENDBRANCH  16  17
ENDBRANCH   6  16
TORSDOF 3
ENDMDL
MODEL 8
REMARK VINA RESULT:      -4.6      3.632      6.263
REMARK  3 active torsions:
REMARK  status: ('A' for Active; 'I' for Inactive)
REMARK    1  A    between atoms: C_3  and  C_9 
REMARK    2  A    between atoms: C_6  and  C_10 
REMARK    3  A    between atoms: C_10  and  O_11 
ROOT
HETATM    1  N   UNL     1      62.778   8.972   3.254  1.00  0.00    -0.345 N 
ATOM      2  HN  UNL     1      63.349   9.735   3.619  1.00  0.00     0.167 HD
HETATM    3  C   UNL     1      62.903   7.722   3.738  1.00  0.00     0.115 A 
HETATM    4  N   UNL     1      62.178   6.675   3.307  1.00  0.00    -0.351 N 
ATOM      5  HN  UNL     1      62.296   5.741   3.699  1.00  0.00     0.166 HD
HETATM    6  C   UNL     1      61.081   8.176   1.763  1.00  0.00     0.003 A 
HETATM    7  C   UNL     1      61.877   9.192   2.271  1.00  0.00     0.016 A 
HETATM    8  C   UNL     1      61.289   6.931   2.330  1.00  0.00     0.101 A 
HETATM    9  C   UNL     1      61.840  10.608   1.778  1.00  0.00     0.069 C 
ENDROOT
BRANCH   3  10
HETATM   10  C   UNL     1      63.904   7.497   4.797  1.00  0.00     0.008 A 
HETATM   11  C   UNL     1      63.792   6.407   5.684  1.00  0.00     0.015 A 
HETATM   12  C   UNL     1      64.737   6.180   6.690  1.00  0.00     0.001 A 
HETATM   13  C   UNL     1      65.820   7.041   6.832  1.00  0.00     0.000 A 
HETATM   14  C   UNL     1      65.954   8.128   5.978  1.00  0.00     0.001 A 
HETATM   15  C   UNL     1      65.007   8.354   4.972  1.00  0.00     0.015 A 
ENDBRANCH   3  10
BRANCH   6  16
HETATM   16  C   UNL     1      60.082   8.350   0.665  1.00  0.00     0.206 C 
BRANCH  16  17
HETATM   17  O   UNL     1      58.781   8.585   1.186  1.00  0.00    -0.396 OA
HETATM   18  H   UNL     1      58.503   9.488   0.967  1.00  0.00     0.209 HD
ENDBRANCH  16  17
ENDBRANCH   6  16
TORSDOF 3
ENDMDL
MODEL 9
REMARK VINA RESULT:      -4.6      4.335      5.790
REMARK  3 active torsions:
REMARK  status: ('A' for Active; 'I' for Inactive)
REMARK    1  A    between atoms: C_3  and  C_9 
REMARK    2  A    between atoms: C_6  and  C_10 
REMARK    3  A    between atoms: C_10  and  O_11 
ROOT
HETATM    1  N   UNL     1      60.398   8.910   3.356  1.00  0.00    -0.345 N 
ATOM      2  HN  UNL     1      59.745   9.510   2.852  1.00  0.00     0.167 HD
HETATM    3  C   UNL     1      60.018   7.701   3.809  1.00  0.00     0.115 A 
HETATM    4  N   UNL     1      60.828   6.859   4.474  1.00  0.00    -0.351 N 
ATOM      5  HN  UNL     1      60.508   5.948   4.800  1.00  0.00     0.166 HD
HETATM    6  C   UNL     1      62.580   8.511   4.262  1.00  0.00     0.003 A 
HETATM    7  C   UNL     1      61.669   9.310   3.588  1.00  0.00     0.016 A 
HETATM    8  C   UNL     1      62.087   7.289   4.684  1.00  0.00     0.101 A 
HETATM    9  C   UNL     1      61.982  10.684   3.074  1.00  0.00     0.069 C 
ENDROOT
BRANCH   3  10
HETATM   10  C   UNL     1      58.624   7.288   3.565  1.00  0.00     0.008 A 
HETATM   11  C   UNL     1      57.773   6.932   4.631  1.00  0.00     0.015 A 
HETATM   12  C   UNL     1      56.447   6.543   4.413  1.00  0.00     0.001 A 
HETATM   13  C   UNL     1      55.940   6.502   3.119  1.00  0.00     0.000 A 
HETATM   14  C   UNL     1      56.756   6.839   2.046  1.00  0.00     0.001 A 
HETATM   15  C   UNL     1      58.082   7.227   2.267  1.00  0.00     0.015 A 
ENDBRANCH   3  10
BRANCH   6  16
HETATM   16  C   UNL     1      63.990   8.903   4.565  1.00  0.00     0.206 C 
BRANCH  16  17
HETATM   17  O   UNL     1      64.046   9.823   5.647  1.00  0.00    -0.396 OA
HETATM   18  H   UNL     1      64.139   9.336   6.481  1.00  0.00     0.209 HD
ENDBRANCH  16  17
ENDBRANCH   6  16
TORSDOF 3
ENDMDL
