MODEL 1
REMARK VINA RESULT:      -5.7      0.000      0.000
REMARK  3 active torsions:
REMARK  status: ('A' for Active; 'I' for Inactive)
REMARK    1  A    between atoms: C_1  and  C_8 
REMARK    2  A    between atoms: C_2  and  C_7 
REMARK    3  A    between atoms: C_8  and  O_9 
ROOT
HETATM    1  C   UNL     1      63.994   7.218   6.087  1.00  0.00     0.026 A 
HETATM    2  C   UNL     1      64.121   8.440   5.454  1.00  0.00     0.119 A 
HETATM    3  O   UNL     1      65.351   8.956   5.742  1.00  0.00    -0.236 OA
HETATM    4  N   UNL     1      66.042   8.096   6.571  1.00  0.00    -0.265 N 
ATOM      5  HN  UNL     1      66.982   8.225   6.945  1.00  0.00     0.194 HD
HETATM    6  C   UNL     1      65.225   7.059   6.780  1.00  0.00     0.040 A 
HETATM    7  C   UNL     1      65.667   5.955   7.667  1.00  0.00     0.071 C 
ENDROOT
BRANCH   2   8
HETATM    8  C   UNL     1      63.271   9.274   4.606  1.00  0.00     0.000 A 
HETATM    9  C   UNL     1      62.910   8.847   3.319  1.00  0.00     0.014 A 
HETATM   10  C   UNL     1      62.148   9.665   2.478  1.00  0.00     0.001 A 
HETATM   11  C   UNL     1      61.735  10.921   2.912  1.00  0.00     0.000 A 
HETATM   12  C   UNL     1      62.066  11.354   4.192  1.00  0.00     0.001 A 
HETATM   13  C   UNL     1      62.823  10.533   5.033  1.00  0.00     0.014 A 
ENDBRANCH   2   8
BRANCH   1  14
HETATM   14  C   UNL     1      62.838   6.292   6.081  1.00  0.00     0.207 C 
BRANCH  14  15
HETATM   15  O   UNL     1      61.755   6.801   6.852  1.00  0.00    -0.396 OA
HETATM   16  H   UNL     1      61.179   7.338   6.285  1.00  0.00     0.209 HD
ENDBRANCH  14  15
ENDBRANCH   1  14
TORSDOF 3
ENDMDL
MODEL 2
REMARK VINA RESULT:      -5.4      1.500      2.692
REMARK  3 active torsions:
REMARK  status: ('A' for Active; 'I' for Inactive)
REMARK    1  A    between atoms: C_1  and  C_8 
REMARK    2  A    between atoms: C_2  and  C_7 
REMARK    3  A    between atoms: C_8  and  O_9 
ROOT
HETATM    1  C   UNL     1      64.156   7.633   5.278  1.00  0.00     0.026 A 
HETATM    2  C   UNL     1      62.979   8.080   4.708  1.00  0.00     0.119 A 
HETATM    3  O   UNL     1      61.962   7.259   5.102  1.00  0.00    -0.236 OA
HETATM    4  N   UNL     1      62.450   6.261   5.920  1.00  0.00    -0.265 N 
ATOM      5  HN  UNL     1      61.919   5.509   6.358  1.00  0.00     0.194 HD
HETATM    6  C   UNL     1      63.765   6.483   6.019  1.00  0.00     0.040 A 
HETATM    7  C   UNL     1      64.599   5.554   6.819  1.00  0.00     0.071 C 
ENDROOT
BRANCH   2   8
HETATM    8  C   UNL     1      62.599   9.166   3.807  1.00  0.00     0.000 A 
HETATM    9  C   UNL     1      62.349  10.454   4.306  1.00  0.00     0.014 A 
HETATM   10  C   UNL     1      61.925  11.483   3.460  1.00  0.00     0.001 A 
HETATM   11  C   UNL     1      61.746  11.241   2.101  1.00  0.00     0.000 A 
HETATM   12  C   UNL     1      62.008   9.976   1.584  1.00  0.00     0.001 A 
HETATM   13  C   UNL     1      62.436   8.950   2.430  1.00  0.00     0.014 A 
ENDBRANCH   2   8
BRANCH   1  14
HETATM   14  C   UNL     1      65.521   8.189   5.134  1.00  0.00     0.207 C 
BRANCH  14  15
HETATM   15  O   UNL     1      65.864   9.025   6.235  1.00  0.00    -0.396 OA
HETATM   16  H   UNL     1      65.583   8.602   7.061  1.00  0.00     0.209 HD
ENDBRANCH  14  15
ENDBRANCH   1  14
TORSDOF 3
ENDMDL
MODEL 3
REMARK VINA RESULT:      -5.3      1.735      2.833
REMARK  3 active torsions:
REMARK  status: ('A' for Active; 'I' for Inactive)
REMARK    1  A    between atoms: C_1  and  C_8 
REMARK    2  A    between atoms: C_2  and  C_7 
REMARK    3  A    between atoms: C_8  and  O_9 
ROOT
HETATM    1  C   UNL     1      66.155   7.542   5.708  1.00  0.00     0.026 A 
HETATM    2  C   UNL     1      64.815   7.880   5.728  1.00  0.00     0.119 A 
HETATM    3  O   UNL     1      64.266   7.422   6.891  1.00  0.00    -0.236 OA
HETATM    4  N   UNL     1      65.224   6.772   7.642  1.00  0.00    -0.265 N 
ATOM      5  HN  UNL     1      65.097   6.332   8.553  1.00  0.00     0.194 HD
HETATM    6  C   UNL     1      66.352   6.840   6.929  1.00  0.00     0.040 A 
HETATM    7  C   UNL     1      67.583   6.200   7.455  1.00  0.00     0.071 C 
ENDROOT
BRANCH   2   8
HETATM    8  C   UNL     1      63.894   8.562   4.822  1.00  0.00     0.000 A 
HETATM    9  C   UNL     1      63.305   9.782   5.189  1.00  0.00     0.014 A 
HETATM   10  C   UNL     1      62.375  10.411   4.355  1.00  0.00     0.001 A 
HETATM   11  C   UNL     1      62.021   9.830   3.140  1.00  0.00     0.000 A 
HETATM   12  C   UNL     1      62.609   8.631   2.750  1.00  0.00     0.001 A 
HETATM   13  C   UNL     1      63.542   8.007   3.582  1.00  0.00     0.014 A 
ENDBRANCH   2   8
BRANCH   1  14
HETATM   14  C   UNL     1      67.159   7.811   4.652  1.00  0.00     0.207 C 
BRANCH  14  15
HETATM   15  O   UNL     1      67.309   6.699   3.776  1.00  0.00    -0.396 OA
HETATM   16  H   UNL     1      66.463   6.519   3.336  1.00  0.00     0.209 HD
ENDBRANCH  14  15
ENDBRANCH   1  14
TORSDOF 3
ENDMDL
MODEL 4
REMARK VINA RESULT:      -5.1      2.081      5.170
REMARK  3 active torsions:
REMARK  status: ('A' for Active; 'I' for Inactive)
REMARK    1  A    between atoms: C_1  and  C_8 
REMARK    2  A    between atoms: C_2  and  C_7 
REMARK    3  A    between atoms: C_8  and  O_9 
ROOT
HETATM    1  C   UNL     1      63.104   9.921   4.671  1.00  0.00     0.026 A 
HETATM    2  C   UNL     1      63.729   8.688   4.631  1.00  0.00     0.119 A 
HETATM    3  O   UNL     1      63.499   8.121   3.411  1.00  0.00    -0.236 OA
HETATM    4  N   UNL     1      62.718   8.958   2.641  1.00  0.00    -0.265 N 
ATOM      5  HN  UNL     1      62.391   8.792   1.688  1.00  0.00     0.194 HD
HETATM    6  C   UNL     1      62.478  10.032   3.399  1.00  0.00     0.040 A 
HETATM    7  C   UNL     1      61.628  11.123   2.864  1.00  0.00     0.071 C 
ENDROOT
BRANCH   2   8
HETATM    8  C   UNL     1      64.521   7.886   5.559  1.00  0.00     0.000 A 
HETATM    9  C   UNL     1      65.863   8.207   5.816  1.00  0.00     0.014 A 
HETATM   10  C   UNL     1      66.646   7.409   6.655  1.00  0.00     0.001 A 
HETATM   11  C   UNL     1      66.099   6.277   7.252  1.00  0.00     0.000 A 
HETATM   12  C   UNL     1      64.766   5.952   7.027  1.00  0.00     0.001 A 
HETATM   13  C   UNL     1      63.983   6.754   6.192  1.00  0.00     0.014 A 
ENDBRANCH   2   8
BRANCH   1  14
HETATM   14  C   UNL     1      63.060  10.897   5.785  1.00  0.00     0.207 C 
BRANCH  14  15
HETATM   15  O   UNL     1      64.365  11.328   6.156  1.00  0.00    -0.396 OA
HETATM   16  H   UNL     1      64.596  12.126   5.656  1.00  0.00     0.209 HD
ENDBRANCH  14  15
ENDBRANCH   1  14
TORSDOF 3
ENDMDL
MODEL 5
REMARK VINA RESULT:      -5.0      1.949      4.968
REMARK  3 active torsions:
REMARK  status: ('A' for Active; 'I' for Inactive)
REMARK    1  A    between atoms: C_1  and  C_8 
REMARK    2  A    between atoms: C_2  and  C_7 
REMARK    3  A    between atoms: C_8  and  O_9 
ROOT
HETATM    1  C   UNL     1      63.534   8.829   4.306  1.00  0.00     0.026 A 
HETATM    2  C   UNL     1      64.558   8.786   5.234  1.00  0.00     0.119 A 
HETATM    3  O   UNL     1      64.568   9.961   5.928  1.00  0.00    -0.236 OA
HETATM    4  N   UNL     1      63.569  10.792   5.466  1.00  0.00    -0.265 N 
ATOM      5  HN  UNL     1      63.344  11.729   5.800  1.00  0.00     0.194 HD
HETATM    6  C   UNL     1      62.954  10.114   4.491  1.00  0.00     0.040 A 
HETATM    7  C   UNL     1      61.833  10.752   3.759  1.00  0.00     0.071 C 
ENDROOT
BRANCH   2   8
HETATM    8  C   UNL     1      65.594   7.825   5.605  1.00  0.00     0.000 A 
HETATM    9  C   UNL     1      65.376   6.905   6.642  1.00  0.00     0.014 A 
HETATM   10  C   UNL     1      66.384   6.024   7.046  1.00  0.00     0.001 A 
HETATM   11  C   UNL     1      67.626   6.048   6.416  1.00  0.00     0.000 A 
HETATM   12  C   UNL     1      67.855   6.939   5.373  1.00  0.00     0.001 A 
HETATM   13  C   UNL     1      66.845   7.815   4.968  1.00  0.00     0.014 A 
ENDBRANCH   2   8
BRANCH   1  14
HETATM   14  C   UNL     1      63.139   7.797   3.319  1.00  0.00     0.207 C 
BRANCH  14  15
HETATM   15  O   UNL     1      61.937   7.138   3.703  1.00  0.00    -0.396 OA
HETATM   16  H   UNL     1      61.337   7.092   2.941  1.00  0.00     0.209 HD
ENDBRANCH  14  15
ENDBRANCH   1  14
TORSDOF 3
ENDMDL
MODEL 6
REMARK VINA RESULT:      -4.9      1.859      1.989
REMARK  3 active torsions:
REMARK  status: ('A' for Active; 'I' for Inactive)
REMARK    1  A    between atoms: C_1  and  C_8 
REMARK    2  A    between atoms: C_2  and  C_7 
REMARK    3  A    between atoms: C_8  and  O_9 
ROOT
HETATM    1  C   UNL     1      63.537   6.970   4.474  1.00  0.00     0.026 A 
HETATM    2  C   UNL     1      63.100   8.270   4.644  1.00  0.00     0.119 A 
HETATM    3  O   UNL     1      63.166   8.584   5.970  1.00  0.00    -0.236 OA
HETATM    4  N   UNL     1      63.632   7.503   6.689  1.00  0.00    -0.265 N 
ATOM      5  HN  UNL     1      63.781   7.451   7.697  1.00  0.00     0.194 HD
HETATM    6  C   UNL     1      63.848   6.535   5.792  1.00  0.00     0.040 A 
HETATM    7  C   UNL     1      64.332   5.212   6.254  1.00  0.00     0.071 C 
ENDROOT
BRANCH   2   8
HETATM    8  C   UNL     1      62.589   9.324   3.771  1.00  0.00     0.000 A 
HETATM    9  C   UNL     1      62.406   9.090   2.399  1.00  0.00     0.014 A 
HETATM   10  C   UNL     1      61.976  10.111   1.547  1.00  0.00     0.001 A 
HETATM   11  C   UNL     1      61.719  11.382   2.053  1.00  0.00     0.000 A 
HETATM   12  C   UNL     1      61.875  11.629   3.412  1.00  0.00     0.001 A 
HETATM   13  C   UNL     1      62.300  10.606   4.264  1.00  0.00     0.014 A 
ENDBRANCH   2   8
BRANCH   1  14
HETATM   14  C   UNL     1      63.634   6.184   3.221  1.00  0.00     0.207 C 
BRANCH  14  15
HETATM   15  O   UNL     1      62.440   5.452   2.969  1.00  0.00    -0.396 OA
HETATM   16  H   UNL     1      62.665   4.533   2.752  1.00  0.00     0.209 HD
ENDBRANCH  14  15
ENDBRANCH   1  14
TORSDOF 3
ENDMDL
MODEL 7
REMARK VINA RESULT:      -4.8      2.612      3.705
REMARK  3 active torsions:
REMARK  status: ('A' for Active; 'I' for Inactive)
REMARK    1  A    between atoms: C_1  and  C_8 
REMARK    2  A    between atoms: C_2  and  C_7 
REMARK    3  A    between atoms: C_8  and  O_9 
ROOT
HETATM    1  C   UNL     1      61.705   6.768   5.326  1.00  0.00     0.026 A 
HETATM    2  C   UNL     1      61.176   7.377   4.204  1.00  0.00     0.119 A 
HETATM    3  O   UNL     1      60.073   6.678   3.805  1.00  0.00    -0.236 OA
HETATM    4  N   UNL     1      59.868   5.602   4.643  1.00  0.00    -0.265 N 
ATOM      5  HN  UNL     1      59.121   4.909   4.584  1.00  0.00     0.194 HD
HETATM    6  C   UNL     1      60.849   5.654   5.549  1.00  0.00     0.040 A 
HETATM    7  C   UNL     1      60.930   4.603   6.592  1.00  0.00     0.071 C 
ENDROOT
BRANCH   2   8
HETATM    8  C   UNL     1      61.525   8.530   3.376  1.00  0.00     0.000 A 
HETATM    9  C   UNL     1      61.650   9.806   3.946  1.00  0.00     0.014 A 
HETATM   10  C   UNL     1      61.923  10.924   3.152  1.00  0.00     0.001 A 
HETATM   11  C   UNL     1      62.076  10.783   1.775  1.00  0.00     0.000 A 
HETATM   12  C   UNL     1      61.975   9.523   1.194  1.00  0.00     0.001 A 
HETATM   13  C   UNL     1      61.708   8.406   1.990  1.00  0.00     0.014 A 
ENDBRANCH   2   8
BRANCH   1  14
HETATM   14  C   UNL     1      62.903   7.153   6.107  1.00  0.00     0.207 C 
BRANCH  14  15
HETATM   15  O   UNL     1      62.565   7.998   7.202  1.00  0.00    -0.396 OA
HETATM   16  H   UNL     1      61.629   7.878   7.425  1.00  0.00     0.209 HD
ENDBRANCH  14  15
ENDBRANCH   1  14
TORSDOF 3
ENDMDL
MODEL 8
REMARK VINA RESULT:      -4.7      2.403      5.109
REMARK  3 active torsions:
REMARK  status: ('A' for Active; 'I' for Inactive)
REMARK    1  A    between atoms: C_1  and  C_8 
REMARK    2  A    between atoms: C_2  and  C_7 
REMARK    3  A    between atoms: C_8  and  O_9 
ROOT
HETATM    1  C   UNL     1      62.174   9.626   3.224  1.00  0.00     0.026 A 
HETATM    2  C   UNL     1      62.610   9.301   4.494  1.00  0.00     0.119 A 
HETATM    3  O   UNL     1      62.696  10.446   5.233  1.00  0.00    -0.236 OA
HETATM    4  N   UNL     1      62.333  11.533   4.466  1.00  0.00    -0.265 N 
ATOM      5  HN  UNL     1      62.304  12.510   4.757  1.00  0.00     0.194 HD
HETATM    6  C   UNL     1      62.026  11.041   3.261  1.00  0.00     0.040 A 
HETATM    7  C   UNL     1      61.618  11.970   2.180  1.00  0.00     0.071 C 
ENDROOT
BRANCH   2   8
HETATM    8  C   UNL     1      63.001   8.074   5.185  1.00  0.00     0.000 A 
HETATM    9  C   UNL     1      64.347   7.834   5.505  1.00  0.00     0.014 A 
HETATM   10  C   UNL     1      64.738   6.635   6.110  1.00  0.00     0.001 A 
HETATM   11  C   UNL     1      63.790   5.659   6.405  1.00  0.00     0.000 A 
HETATM   12  C   UNL     1      62.450   5.887   6.113  1.00  0.00     0.001 A 
HETATM   13  C   UNL     1      62.059   7.088   5.514  1.00  0.00     0.014 A 
ENDBRANCH   2   8
BRANCH   1  14
HETATM   14  C   UNL     1      61.941   8.727   2.069  1.00  0.00     0.207 C 
BRANCH  14  15
HETATM   15  O   UNL     1      60.564   8.677   1.714  1.00  0.00    -0.396 OA
HETATM   16  H   UNL     1      60.046   9.186   2.358  1.00  0.00     0.209 HD
ENDBRANCH  14  15
ENDBRANCH   1  14
TORSDOF 3
ENDMDL
MODEL 9
REMARK VINA RESULT:      -4.4      1.876      5.397
REMARK  3 active torsions:
REMARK  status: ('A' for Active; 'I' for Inactive)
REMARK    1  A    between atoms: C_1  and  C_8 
REMARK    2  A    between atoms: C_2  and  C_7 
REMARK    3  A    between atoms: C_8  and  O_9 
ROOT
HETATM    1  C   UNL     1      64.420   7.279   4.899  1.00  0.00     0.026 A 
HETATM    2  C   UNL     1      65.328   7.546   5.906  1.00  0.00     0.119 A 
HETATM    3  O   UNL     1      65.285   8.879   6.193  1.00  0.00    -0.236 OA
HETATM    4  N   UNL     1      64.364   9.508   5.380  1.00  0.00    -0.265 N 
ATOM      5  HN  UNL     1      64.124  10.499   5.373  1.00  0.00     0.194 HD
HETATM    6  C   UNL     1      63.852   8.549   4.602  1.00  0.00     0.040 A 
HETATM    7  C   UNL     1      62.838   8.908   3.580  1.00  0.00     0.071 C 
ENDROOT
BRANCH   2   8
HETATM    8  C   UNL     1      66.292   6.766   6.679  1.00  0.00     0.000 A 
HETATM    9  C   UNL     1      67.191   5.902   6.035  1.00  0.00     0.014 A 
HETATM   10  C   UNL     1      68.075   5.105   6.769  1.00  0.00     0.001 A 
HETATM   11  C   UNL     1      68.075   5.162   8.161  1.00  0.00     0.000 A 
HETATM   12  C   UNL     1      67.205   6.027   8.817  1.00  0.00     0.001 A 
HETATM   13  C   UNL     1      66.326   6.826   8.080  1.00  0.00     0.014 A 
ENDBRANCH   2   8
BRANCH   1  14
HETATM   14  C   UNL     1      64.118   5.984   4.246  1.00  0.00     0.207 C 
BRANCH  14  15
HETATM   15  O   UNL     1      63.554   5.054   5.164  1.00  0.00    -0.396 OA
HETATM   16  H   UNL     1      62.593   5.180   5.202  1.00  0.00     0.209 HD
ENDBRANCH  14  15
ENDBRANCH   1  14
TORSDOF 3
ENDMDL
