MODEL 1
REMARK VINA RESULT:      -3.9      0.000      0.000
REMARK  2 active torsions:
REMARK  status: ('A' for Active; 'I' for Inactive)
REMARK    1  A    between atoms: C_2  and  C_7 
REMARK    2  A    between atoms: C_7  and  O_9 
ROOT
HETATM    1  N   UNL     1      62.790   9.454   4.043  1.00  0.00    -0.348 N 
HETATM    2  C   UNL     1      63.449   9.911   5.158  1.00  0.00     0.106 A 
HETATM    3  N   UNL     1      64.389   9.055   5.525  1.00  0.00    -0.352 N 
ATOM      4  HN  UNL     1      65.015   9.134   6.327  1.00  0.00     0.166 HD
HETATM    5  C   UNL     1      64.347   8.040   4.607  1.00  0.00     0.106 A 
HETATM    6  C   UNL     1      63.364   8.265   3.676  1.00  0.00     0.108 A 
HETATM    7  C   UNL     1      61.686  10.074   3.352  1.00  0.00     0.157 C 
ENDROOT
BRANCH   2   8
HETATM    8  C   UNL     1      63.136  11.190   5.859  1.00  0.00     0.240 C 
BRANCH   8   9
HETATM    9  O   UNL     1      64.318  11.636   6.520  1.00  0.00    -0.393 OA
HETATM   10  H   UNL     1      65.092  11.212   6.118  1.00  0.00     0.209 HD
ENDBRANCH   8   9
ENDBRANCH   2   8
TORSDOF 2
ENDMDL
MODEL 2
REMARK VINA RESULT:      -3.5      0.982      2.254
REMARK  2 active torsions:
REMARK  status: ('A' for Active; 'I' for Inactive)
REMARK    1  A    between atoms: C_2  and  C_7 
REMARK    2  A    between atoms: C_7  and  O_9 
ROOT
HETATM    1  N   UNL     1      63.117   9.330   4.455  1.00  0.00    -0.348 N 
HETATM    2  C   UNL     1      62.716  10.586   4.838  1.00  0.00     0.106 A 
HETATM    3  N   UNL     1      62.046  11.177   3.863  1.00  0.00    -0.352 N 
ATOM      4  HN  UNL     1      61.650  12.118   3.870  1.00  0.00     0.166 HD
HETATM    5  C   UNL     1      61.993  10.266   2.842  1.00  0.00     0.106 A 
HETATM    6  C   UNL     1      62.650   9.111   3.186  1.00  0.00     0.108 A 
HETATM    7  C   UNL     1      63.893   8.379   5.213  1.00  0.00     0.157 C 
ENDROOT
BRANCH   2   8
HETATM    8  C   UNL     1      63.010  11.197   6.167  1.00  0.00     0.240 C 
BRANCH   8   9
HETATM    9  O   UNL     1      64.405  11.483   6.226  1.00  0.00    -0.393 OA
HETATM   10  H   UNL     1      64.565  12.178   6.883  1.00  0.00     0.209 HD
ENDBRANCH   8   9
ENDBRANCH   2   8
TORSDOF 2
ENDMDL
MODEL 3
REMARK VINA RESULT:      -3.5      1.432      2.460
REMARK  2 active torsions:
REMARK  status: ('A' for Active; 'I' for Inactive)
REMARK    1  A    between atoms: C_2  and  C_7 
REMARK    2  A    between atoms: C_7  and  O_9 
ROOT
HETATM    1  N   UNL     1      62.912   9.350   3.888  1.00  0.00    -0.348 N 
HETATM    2  C   UNL     1      63.734   9.357   4.988  1.00  0.00     0.106 A 
HETATM    3  N   UNL     1      63.517  10.436   5.723  1.00  0.00    -0.352 N 
ATOM      4  HN  UNL     1      63.998  10.703   6.582  1.00  0.00     0.166 HD
HETATM    5  C   UNL     1      62.513  11.121   5.091  1.00  0.00     0.106 A 
HETATM    6  C   UNL     1      62.120  10.466   3.951  1.00  0.00     0.108 A 
HETATM    7  C   UNL     1      62.858   8.371   2.830  1.00  0.00     0.157 C 
ENDROOT
BRANCH   2   8
HETATM    8  C   UNL     1      64.737   8.298   5.299  1.00  0.00     0.240 C 
BRANCH   8   9
HETATM    9  O   UNL     1      65.771   8.882   6.088  1.00  0.00    -0.393 OA
HETATM   10  H   UNL     1      65.387   9.543   6.686  1.00  0.00     0.209 HD
ENDBRANCH   8   9
ENDBRANCH   2   8
TORSDOF 2
ENDMDL
MODEL 4
REMARK VINA RESULT:      -3.3      4.391      5.269
REMARK  2 active torsions:
REMARK  status: ('A' for Active; 'I' for Inactive)
REMARK    1  A    between atoms: C_2  and  C_7 
REMARK    2  A    between atoms: C_7  and  O_9 
ROOT
HETATM    1  N   UNL     1      66.003   5.995   7.387  1.00  0.00    -0.348 N 
HETATM    2  C   UNL     1      66.691   7.173   7.228  1.00  0.00     0.106 A 
HETATM    3  N   UNL     1      67.374   7.463   8.323  1.00  0.00    -0.352 N 
ATOM      4  HN  UNL     1      67.956   8.285   8.486  1.00  0.00     0.166 HD
HETATM    5  C   UNL     1      67.139   6.432   9.193  1.00  0.00     0.106 A 
HETATM    6  C   UNL     1      66.292   5.508   8.634  1.00  0.00     0.108 A 
HETATM    7  C   UNL     1      65.122   5.351   6.444  1.00  0.00     0.157 C 
ENDROOT
BRANCH   2   8
HETATM    8  C   UNL     1      66.658   8.009   5.993  1.00  0.00     0.240 C 
BRANCH   8   9
HETATM    9  O   UNL     1      65.716   9.060   6.193  1.00  0.00    -0.393 OA
HETATM   10  H   UNL     1      65.980   9.835   5.672  1.00  0.00     0.209 HD
ENDBRANCH   8   9
ENDBRANCH   2   8
TORSDOF 2
ENDMDL
MODEL 5
REMARK VINA RESULT:      -3.2      1.539      1.798
REMARK  2 active torsions:
REMARK  status: ('A' for Active; 'I' for Inactive)
REMARK    1  A    between atoms: C_2  and  C_7 
REMARK    2  A    between atoms: C_7  and  O_9 
ROOT
HETATM    1  N   UNL     1      63.251   8.475   3.574  1.00  0.00    -0.348 N 
HETATM    2  C   UNL     1      62.957   9.614   4.283  1.00  0.00     0.106 A 
HETATM    3  N   UNL     1      63.710   9.692   5.368  1.00  0.00    -0.352 N 
ATOM      4  HN  UNL     1      63.689  10.423   6.080  1.00  0.00     0.166 HD
HETATM    5  C   UNL     1      64.523   8.591   5.338  1.00  0.00     0.106 A 
HETATM    6  C   UNL     1      64.258   7.820   4.234  1.00  0.00     0.108 A 
HETATM    7  C   UNL     1      62.636   8.007   2.357  1.00  0.00     0.157 C 
ENDROOT
BRANCH   2   8
HETATM    8  C   UNL     1      61.924  10.613   3.883  1.00  0.00     0.240 C 
BRANCH   8   9
HETATM    9  O   UNL     1      62.256  11.861   4.488  1.00  0.00    -0.393 OA
HETATM   10  H   UNL     1      61.442  12.349   4.689  1.00  0.00     0.209 HD
ENDBRANCH   8   9
ENDBRANCH   2   8
TORSDOF 2
ENDMDL
MODEL 6
REMARK VINA RESULT:      -3.2     12.902     13.085
REMARK  2 active torsions:
REMARK  status: ('A' for Active; 'I' for Inactive)
REMARK    1  A    between atoms: C_2  and  C_7 
REMARK    2  A    between atoms: C_7  and  O_9 
ROOT
HETATM    1  N   UNL     1      57.486   2.174  12.386  1.00  0.00    -0.348 N 
HETATM    2  C   UNL     1      56.899   2.030  13.619  1.00  0.00     0.106 A 
HETATM    3  N   UNL     1      57.808   1.743  14.536  1.00  0.00    -0.352 N 
ATOM      4  HN  UNL     1      57.648   1.568  15.528  1.00  0.00     0.166 HD
HETATM    5  C   UNL     1      59.009   1.729  13.878  1.00  0.00     0.106 A 
HETATM    6  C   UNL     1      58.836   1.995  12.543  1.00  0.00     0.108 A 
HETATM    7  C   UNL     1      56.843   2.455  11.126  1.00  0.00     0.157 C 
ENDROOT
BRANCH   2   8
HETATM    8  C   UNL     1      55.436   2.170  13.878  1.00  0.00     0.240 C 
BRANCH   8   9
HETATM    9  O   UNL     1      55.258   3.136  14.911  1.00  0.00    -0.393 OA
HETATM   10  H   UNL     1      54.332   3.423  14.929  1.00  0.00     0.209 HD
ENDBRANCH   8   9
ENDBRANCH   2   8
TORSDOF 2
ENDMDL
MODEL 7
REMARK VINA RESULT:      -3.1      2.912      4.026
REMARK  2 active torsions:
REMARK  status: ('A' for Active; 'I' for Inactive)
REMARK    1  A    between atoms: C_2  and  C_7 
REMARK    2  A    between atoms: C_7  and  O_9 
ROOT
HETATM    1  N   UNL     1      62.809   8.926   3.451  1.00  0.00    -0.348 N 
HETATM    2  C   UNL     1      62.023   9.645   2.585  1.00  0.00     0.106 A 
HETATM    3  N   UNL     1      61.652  10.789   3.135  1.00  0.00    -0.352 N 
ATOM      4  HN  UNL     1      61.053  11.505   2.722  1.00  0.00     0.166 HD
HETATM    5  C   UNL     1      62.237  10.815   4.373  1.00  0.00     0.106 A 
HETATM    6  C   UNL     1      62.961   9.670   4.592  1.00  0.00     0.108 A 
HETATM    7  C   UNL     1      63.387   7.621   3.247  1.00  0.00     0.157 C 
ENDROOT
BRANCH   2   8
HETATM    8  C   UNL     1      61.637   9.187   1.218  1.00  0.00     0.240 C 
BRANCH   8   9
HETATM    9  O   UNL     1      60.251   8.852   1.238  1.00  0.00    -0.393 OA
HETATM   10  H   UNL     1      60.127   8.019   1.718  1.00  0.00     0.209 HD
ENDBRANCH   8   9
ENDBRANCH   2   8
TORSDOF 2
ENDMDL
MODEL 8
REMARK VINA RESULT:      -3.1      3.247      4.369
REMARK  2 active torsions:
REMARK  status: ('A' for Active; 'I' for Inactive)
REMARK    1  A    between atoms: C_2  and  C_7 
REMARK    2  A    between atoms: C_7  and  O_9 
ROOT
HETATM    1  N   UNL     1      65.519   6.271   6.680  1.00  0.00    -0.348 N 
HETATM    2  C   UNL     1      64.697   7.303   6.299  1.00  0.00     0.106 A 
HETATM    3  N   UNL     1      65.398   8.410   6.116  1.00  0.00    -0.352 N 
ATOM      4  HN  UNL     1      65.041   9.328   5.849  1.00  0.00     0.166 HD
HETATM    5  C   UNL     1      66.702   8.071   6.360  1.00  0.00     0.106 A 
HETATM    6  C   UNL     1      66.802   6.748   6.711  1.00  0.00     0.108 A 
HETATM    7  C   UNL     1      65.145   4.916   7.005  1.00  0.00     0.157 C 
ENDROOT
BRANCH   2   8
HETATM    8  C   UNL     1      63.220   7.187   6.127  1.00  0.00     0.240 C 
BRANCH   8   9
HETATM    9  O   UNL     1      62.593   7.974   7.137  1.00  0.00    -0.393 OA
HETATM   10  H   UNL     1      61.839   7.487   7.505  1.00  0.00     0.209 HD
ENDBRANCH   8   9
ENDBRANCH   2   8
TORSDOF 2
ENDMDL
MODEL 9
REMARK VINA RESULT:      -2.9      4.267      5.370
REMARK  2 active torsions:
REMARK  status: ('A' for Active; 'I' for Inactive)
REMARK    1  A    between atoms: C_2  and  C_7 
REMARK    2  A    between atoms: C_7  and  O_9 
ROOT
HETATM    1  N   UNL     1      66.498   6.951   7.325  1.00  0.00    -0.348 N 
HETATM    2  C   UNL     1      65.411   6.117   7.219  1.00  0.00     0.106 A 
HETATM    3  N   UNL     1      65.556   5.063   8.005  1.00  0.00    -0.352 N 
ATOM      4  HN  UNL     1      64.911   4.280   8.108  1.00  0.00     0.166 HD
HETATM    5  C   UNL     1      66.751   5.241   8.650  1.00  0.00     0.106 A 
HETATM    6  C   UNL     1      67.354   6.406   8.246  1.00  0.00     0.108 A 
HETATM    7  C   UNL     1      66.741   8.183   6.616  1.00  0.00     0.157 C 
ENDROOT
BRANCH   2   8
HETATM    8  C   UNL     1      64.240   6.367   6.329  1.00  0.00     0.240 C 
BRANCH   8   9
HETATM    9  O   UNL     1      63.421   7.360   6.942  1.00  0.00    -0.393 OA
HETATM   10  H   UNL     1      62.893   6.953   7.647  1.00  0.00     0.209 HD
ENDBRANCH   8   9
ENDBRANCH   2   8
TORSDOF 2
ENDMDL
