MODEL 1
REMARK VINA RESULT:      -4.6      0.000      0.000
REMARK  2 active torsions:
REMARK  status: ('A' for Active; 'I' for Inactive)
REMARK    1  A    between atoms: N_1  and  C_2 
REMARK    2  A    between atoms: C_8  and  N_9 
ROOT
HETATM    1  C   UNL     1      63.316   9.103   4.619  1.00  0.00     0.040 A 
HETATM    2  C   UNL     1      62.923   8.771   3.311  1.00  0.00     0.058 A 
HETATM    3  C   UNL     1      62.124   9.634   2.554  1.00  0.00     0.027 A 
HETATM    4  C   UNL     1      62.940  10.349   5.140  1.00  0.00     0.030 A 
HETATM    5  C   UNL     1      62.213  11.247   4.356  1.00  0.00     0.004 A 
HETATM    6  C   UNL     1      61.827  10.897   3.063  1.00  0.00     0.029 A 
ENDROOT
BRANCH   1   7
HETATM    7  N   UNL     1      64.088   8.189   5.400  1.00  0.00    -0.333 N 
HETATM    8  C   UNL     1      63.605   7.122   6.139  1.00  0.00     0.096 A 
HETATM    9  C   UNL     1      64.656   6.471   6.746  1.00  0.00     0.019 A 
HETATM   10  C   UNL     1      65.833   7.150   6.384  1.00  0.00     0.019 A 
HETATM   11  C   UNL     1      65.463   8.190   5.561  1.00  0.00     0.096 A 
ENDBRANCH   1   7
BRANCH   3  12
HETATM   12  N   UNL     1      61.822   9.323   1.220  1.00  0.00    -0.399 N 
HETATM   13  H   UNL     1      62.547   9.208   0.565  1.00  0.00     0.156 HD
HETATM   14  H   UNL     1      60.883   9.221   0.940  1.00  0.00     0.156 HD
ENDBRANCH   3  12
TORSDOF 2
ENDMDL
MODEL 2
REMARK VINA RESULT:      -4.6      2.027      3.064
REMARK  2 active torsions:
REMARK  status: ('A' for Active; 'I' for Inactive)
REMARK    1  A    between atoms: N_1  and  C_2 
REMARK    2  A    between atoms: C_8  and  N_9 
ROOT
HETATM    1  C   UNL     1      63.244   8.808   3.791  1.00  0.00     0.040 A 
HETATM    2  C   UNL     1      63.532   9.479   4.991  1.00  0.00     0.058 A 
HETATM    3  C   UNL     1      63.025  10.759   5.245  1.00  0.00     0.027 A 
HETATM    4  C   UNL     1      62.387   9.419   2.865  1.00  0.00     0.030 A 
HETATM    5  C   UNL     1      61.813  10.659   3.152  1.00  0.00     0.004 A 
HETATM    6  C   UNL     1      62.116  11.313   4.346  1.00  0.00     0.029 A 
ENDROOT
BRANCH   1   7
HETATM    7  N   UNL     1      63.811   7.524   3.521  1.00  0.00    -0.333 N 
HETATM    8  C   UNL     1      64.784   6.879   4.265  1.00  0.00     0.096 A 
HETATM    9  C   UNL     1      65.063   5.656   3.695  1.00  0.00     0.019 A 
HETATM   10  C   UNL     1      64.247   5.532   2.556  1.00  0.00     0.019 A 
HETATM   11  C   UNL     1      63.490   6.679   2.472  1.00  0.00     0.096 A 
ENDBRANCH   1   7
BRANCH   3  12
HETATM   12  N   UNL     1      63.250  11.370   6.487  1.00  0.00    -0.399 N 
HETATM   13  H   UNL     1      63.928  12.077   6.572  1.00  0.00     0.156 HD
HETATM   14  H   UNL     1      62.727  11.090   7.273  1.00  0.00     0.156 HD
ENDBRANCH   3  12
TORSDOF 2
ENDMDL
MODEL 3
REMARK VINA RESULT:      -4.5      1.264      4.964
REMARK  2 active torsions:
REMARK  status: ('A' for Active; 'I' for Inactive)
REMARK    1  A    between atoms: N_1  and  C_2 
REMARK    2  A    between atoms: C_8  and  N_9 
ROOT
HETATM    1  C   UNL     1      63.970   8.331   5.179  1.00  0.00     0.040 A 
HETATM    2  C   UNL     1      65.351   8.565   5.283  1.00  0.00     0.058 A 
HETATM    3  C   UNL     1      66.154   7.798   6.135  1.00  0.00     0.027 A 
HETATM    4  C   UNL     1      63.410   7.270   5.905  1.00  0.00     0.030 A 
HETATM    5  C   UNL     1      64.222   6.451   6.690  1.00  0.00     0.004 A 
HETATM    6  C   UNL     1      65.590   6.703   6.786  1.00  0.00     0.029 A 
ENDROOT
BRANCH   1   7
HETATM    7  N   UNL     1      63.153   9.155   4.346  1.00  0.00    -0.333 N 
HETATM    8  C   UNL     1      62.629  10.396   4.671  1.00  0.00     0.096 A 
HETATM    9  C   UNL     1      61.904  10.882   3.606  1.00  0.00     0.019 A 
HETATM   10  C   UNL     1      61.967   9.917   2.584  1.00  0.00     0.019 A 
HETATM   11  C   UNL     1      62.736   8.877   3.055  1.00  0.00     0.096 A 
ENDBRANCH   1   7
BRANCH   3  12
HETATM   12  N   UNL     1      67.543   7.990   6.152  1.00  0.00    -0.399 N 
HETATM   13  H   UNL     1      68.124   7.440   5.578  1.00  0.00     0.156 HD
HETATM   14  H   UNL     1      67.938   8.675   6.738  1.00  0.00     0.156 HD
ENDBRANCH   3  12
TORSDOF 2
ENDMDL
MODEL 4
REMARK VINA RESULT:      -4.4      1.222      2.073
REMARK  2 active torsions:
REMARK  status: ('A' for Active; 'I' for Inactive)
REMARK    1  A    between atoms: N_1  and  C_2 
REMARK    2  A    between atoms: C_8  and  N_9 
ROOT
HETATM    1  C   UNL     1      63.167   8.334   3.544  1.00  0.00     0.040 A 
HETATM    2  C   UNL     1      62.652   9.641   3.529  1.00  0.00     0.058 A 
HETATM    3  C   UNL     1      62.013  10.155   2.395  1.00  0.00     0.027 A 
HETATM    4  C   UNL     1      62.980   7.523   2.416  1.00  0.00     0.030 A 
HETATM    5  C   UNL     1      62.271   8.005   1.314  1.00  0.00     0.004 A 
HETATM    6  C   UNL     1      61.773   9.308   1.315  1.00  0.00     0.029 A 
ENDROOT
BRANCH   1   7
HETATM    7  N   UNL     1      63.863   7.839   4.689  1.00  0.00    -0.333 N 
HETATM    8  C   UNL     1      63.384   6.929   5.617  1.00  0.00     0.096 A 
HETATM    9  C   UNL     1      64.351   6.692   6.569  1.00  0.00     0.019 A 
HETATM   10  C   UNL     1      65.467   7.480   6.235  1.00  0.00     0.019 A 
HETATM   11  C   UNL     1      65.149   8.166   5.085  1.00  0.00     0.096 A 
ENDBRANCH   1   7
BRANCH   3  12
HETATM   12  N   UNL     1      61.426  11.428   2.436  1.00  0.00    -0.399 N 
HETATM   13  H   UNL     1      60.451  11.518   2.532  1.00  0.00     0.156 HD
HETATM   14  H   UNL     1      61.991  12.232   2.369  1.00  0.00     0.156 HD
ENDBRANCH   3  12
TORSDOF 2
ENDMDL
MODEL 5
REMARK VINA RESULT:      -4.4      1.535      4.990
REMARK  2 active torsions:
REMARK  status: ('A' for Active; 'I' for Inactive)
REMARK    1  A    between atoms: N_1  and  C_2 
REMARK    2  A    between atoms: C_8  and  N_9 
ROOT
HETATM    1  C   UNL     1      62.468   8.226   4.478  1.00  0.00     0.040 A 
HETATM    2  C   UNL     1      63.579   8.216   5.338  1.00  0.00     0.058 A 
HETATM    3  C   UNL     1      63.787   7.166   6.240  1.00  0.00     0.027 A 
HETATM    4  C   UNL     1      61.593   7.131   4.495  1.00  0.00     0.030 A 
HETATM    5  C   UNL     1      61.844   6.045   5.334  1.00  0.00     0.004 A 
HETATM    6  C   UNL     1      62.948   6.056   6.186  1.00  0.00     0.029 A 
ENDROOT
BRANCH   1   7
HETATM    7  N   UNL     1      62.239   9.329   3.600  1.00  0.00    -0.333 N 
HETATM    8  C   UNL     1      62.025  10.647   3.968  1.00  0.00     0.096 A 
HETATM    9  C   UNL     1      61.854  11.417   2.838  1.00  0.00     0.019 A 
HETATM   10  C   UNL     1      61.956  10.559   1.729  1.00  0.00     0.019 A 
HETATM   11  C   UNL     1      62.194   9.294   2.216  1.00  0.00     0.096 A 
ENDBRANCH   1   7
BRANCH   3  12
HETATM   12  N   UNL     1      64.951   7.132   7.022  1.00  0.00    -0.399 N 
HETATM   13  H   UNL     1      65.796   6.813   6.634  1.00  0.00     0.156 HD
HETATM   14  H   UNL     1      64.921   7.429   7.961  1.00  0.00     0.156 HD
ENDBRANCH   3  12
TORSDOF 2
ENDMDL
MODEL 6
REMARK VINA RESULT:      -4.2      1.784      5.366
REMARK  2 active torsions:
REMARK  status: ('A' for Active; 'I' for Inactive)
REMARK    1  A    between atoms: N_1  and  C_2 
REMARK    2  A    between atoms: C_8  and  N_9 
ROOT
HETATM    1  C   UNL     1      65.219   7.677   4.853  1.00  0.00     0.040 A 
HETATM    2  C   UNL     1      65.692   7.841   6.166  1.00  0.00     0.058 A 
HETATM    3  C   UNL     1      66.795   7.118   6.634  1.00  0.00     0.027 A 
HETATM    4  C   UNL     1      65.907   6.811   3.992  1.00  0.00     0.030 A 
HETATM    5  C   UNL     1      67.056   6.151   4.430  1.00  0.00     0.004 A 
HETATM    6  C   UNL     1      67.507   6.322   5.739  1.00  0.00     0.029 A 
ENDROOT
BRANCH   1   7
HETATM    7  N   UNL     1      64.060   8.382   4.404  1.00  0.00    -0.333 N 
HETATM    8  C   UNL     1      63.480   9.486   5.007  1.00  0.00     0.096 A 
HETATM    9  C   UNL     1      62.387   9.888   4.273  1.00  0.00     0.019 A 
HETATM   10  C   UNL     1      62.271   9.009   3.181  1.00  0.00     0.019 A 
HETATM   11  C   UNL     1      63.303   8.103   3.279  1.00  0.00     0.096 A 
ENDBRANCH   1   7
BRANCH   3  12
HETATM   12  N   UNL     1      67.306   7.367   7.916  1.00  0.00    -0.399 N 
HETATM   13  H   UNL     1      67.127   6.735   8.649  1.00  0.00     0.156 HD
HETATM   14  H   UNL     1      67.843   8.175   8.082  1.00  0.00     0.156 HD
ENDBRANCH   3  12
TORSDOF 2
ENDMDL
MODEL 7
REMARK VINA RESULT:      -4.0      1.753      2.787
REMARK  2 active torsions:
REMARK  status: ('A' for Active; 'I' for Inactive)
REMARK    1  A    between atoms: N_1  and  C_2 
REMARK    2  A    between atoms: C_8  and  N_9 
ROOT
HETATM    1  C   UNL     1      64.666   7.815   4.724  1.00  0.00     0.040 A 
HETATM    2  C   UNL     1      64.074   9.036   5.091  1.00  0.00     0.058 A 
HETATM    3  C   UNL     1      63.045   9.600   4.329  1.00  0.00     0.027 A 
HETATM    4  C   UNL     1      64.167   7.134   3.605  1.00  0.00     0.030 A 
HETATM    5  C   UNL     1      63.085   7.652   2.892  1.00  0.00     0.004 A 
HETATM    6  C   UNL     1      62.515   8.869   3.267  1.00  0.00     0.029 A 
ENDROOT
BRANCH   1   7
HETATM    7  N   UNL     1      65.752   7.277   5.480  1.00  0.00    -0.333 N 
HETATM    8  C   UNL     1      66.937   6.769   4.976  1.00  0.00     0.096 A 
HETATM    9  C   UNL     1      67.739   6.355   6.017  1.00  0.00     0.019 A 
HETATM   10  C   UNL     1      67.036   6.603   7.209  1.00  0.00     0.019 A 
HETATM   11  C   UNL     1      65.830   7.169   6.859  1.00  0.00     0.096 A 
ENDBRANCH   1   7
BRANCH   3  12
HETATM   12  N   UNL     1      62.408  10.771   4.765  1.00  0.00    -0.399 N 
HETATM   13  H   UNL     1      61.500  10.983   4.452  1.00  0.00     0.156 HD
HETATM   14  H   UNL     1      62.871  11.380   5.385  1.00  0.00     0.156 HD
ENDBRANCH   3  12
TORSDOF 2
ENDMDL
MODEL 8
REMARK VINA RESULT:      -4.0      2.364      6.092
REMARK  2 active torsions:
REMARK  status: ('A' for Active; 'I' for Inactive)
REMARK    1  A    between atoms: N_1  and  C_2 
REMARK    2  A    between atoms: C_8  and  N_9 
ROOT
HETATM    1  C   UNL     1      65.777   6.602   6.258  1.00  0.00     0.040 A 
HETATM    2  C   UNL     1      66.393   6.849   7.496  1.00  0.00     0.058 A 
HETATM    3  C   UNL     1      67.411   6.018   7.977  1.00  0.00     0.027 A 
HETATM    4  C   UNL     1      66.238   5.534   5.476  1.00  0.00     0.030 A 
HETATM    5  C   UNL     1      67.309   4.753   5.916  1.00  0.00     0.004 A 
HETATM    6  C   UNL     1      67.904   5.010   7.151  1.00  0.00     0.029 A 
ENDROOT
BRANCH   1   7
HETATM    7  N   UNL     1      64.703   7.427   5.803  1.00  0.00    -0.333 N 
HETATM    8  C   UNL     1      63.350   7.190   5.974  1.00  0.00     0.096 A 
HETATM    9  C   UNL     1      62.628   8.216   5.406  1.00  0.00     0.019 A 
HETATM   10  C   UNL     1      63.552   9.122   4.855  1.00  0.00     0.019 A 
HETATM   11  C   UNL     1      64.810   8.623   5.113  1.00  0.00     0.096 A 
ENDBRANCH   1   7
BRANCH   3  12
HETATM   12  N   UNL     1      68.074   6.338   9.171  1.00  0.00    -0.399 N 
HETATM   13  H   UNL     1      69.057   6.379   9.192  1.00  0.00     0.156 HD
HETATM   14  H   UNL     1      67.555   6.521   9.987  1.00  0.00     0.156 HD
ENDBRANCH   3  12
TORSDOF 2
ENDMDL
MODEL 9
REMARK VINA RESULT:      -4.0      2.197      2.776
REMARK  2 active torsions:
REMARK  status: ('A' for Active; 'I' for Inactive)
REMARK    1  A    between atoms: N_1  and  C_2 
REMARK    2  A    between atoms: C_8  and  N_9 
ROOT
HETATM    1  C   UNL     1      62.670   8.485   3.656  1.00  0.00     0.040 A 
HETATM    2  C   UNL     1      62.170   9.408   2.721  1.00  0.00     0.058 A 
HETATM    3  C   UNL     1      61.935  10.741   3.074  1.00  0.00     0.027 A 
HETATM    4  C   UNL     1      62.987   8.936   4.945  1.00  0.00     0.030 A 
HETATM    5  C   UNL     1      62.832  10.284   5.275  1.00  0.00     0.004 A 
HETATM    6  C   UNL     1      62.328  11.183   4.336  1.00  0.00     0.029 A 
ENDROOT
BRANCH   1   7
HETATM    7  N   UNL     1      62.856   7.115   3.298  1.00  0.00    -0.333 N 
HETATM    8  C   UNL     1      62.016   6.059   3.609  1.00  0.00     0.096 A 
HETATM    9  C   UNL     1      62.527   4.894   3.081  1.00  0.00     0.019 A 
HETATM   10  C   UNL     1      63.725   5.225   2.424  1.00  0.00     0.019 A 
HETATM   11  C   UNL     1      63.904   6.583   2.565  1.00  0.00     0.096 A 
ENDBRANCH   1   7
BRANCH   3  12
HETATM   12  N   UNL     1      61.524  11.663   2.101  1.00  0.00    -0.399 N 
HETATM   13  H   UNL     1      61.087  12.503   2.371  1.00  0.00     0.156 HD
HETATM   14  H   UNL     1      61.674  11.471   1.147  1.00  0.00     0.156 HD
ENDBRANCH   3  12
TORSDOF 2
ENDMDL
