MODEL 1
REMARK VINA RESULT:      -5.5      0.000      0.000
REMARK  2 active torsions:
REMARK  status: ('A' for Active; 'I' for Inactive)
REMARK    1  A    between atoms: N_1  and  C_3 
REMARK    2  A    between atoms: C_2  and  C_4 
ROOT
HETATM    1  C   UNL     1      63.737   8.077   4.556  1.00  0.00     0.039 A 
HETATM    2  C   UNL     1      62.473   9.879   3.511  1.00  0.00     0.043 A 
HETATM    3  C   UNL     1      63.278   9.404   4.557  1.00  0.00     0.048 A 
HETATM    4  C   UNL     1      63.350   7.226   3.509  1.00  0.00     0.030 A 
HETATM    5  C   UNL     1      62.094   9.019   2.478  1.00  0.00     0.018 A 
HETATM    6  C   UNL     1      62.527   7.695   2.480  1.00  0.00     0.003 A 
ENDROOT
BRANCH   1   7
HETATM    7  N   UNL     1      64.605   7.612   5.594  1.00  0.00    -0.333 N 
HETATM    8  C   UNL     1      65.895   8.041   5.847  1.00  0.00     0.096 A 
HETATM    9  C   UNL     1      66.394   7.370   6.943  1.00  0.00     0.019 A 
HETATM   10  C   UNL     1      65.391   6.491   7.385  1.00  0.00     0.019 A 
HETATM   11  C   UNL     1      64.308   6.657   6.550  1.00  0.00     0.096 A 
ENDBRANCH   1   7
BRANCH   2  12
HETATM   12  C   UNL     1      62.035  11.294   3.449  1.00  0.00     0.209 C 
HETATM   13  O   UNL     1      61.805  12.011   4.405  1.00  0.00    -0.644 OA
HETATM   14  O   UNL     1      61.870  11.737   2.189  1.00  0.00    -0.644 OA
ENDBRANCH   2  12
TORSDOF 2
ENDMDL
MODEL 2
REMARK VINA RESULT:      -5.4      1.584      1.989
REMARK  2 active torsions:
REMARK  status: ('A' for Active; 'I' for Inactive)
REMARK    1  A    between atoms: N_1  and  C_3 
REMARK    2  A    between atoms: C_2  and  C_4 
ROOT
HETATM    1  C   UNL     1      64.716   7.724   4.537  1.00  0.00     0.039 A 
HETATM    2  C   UNL     1      63.212   9.634   4.692  1.00  0.00     0.043 A 
HETATM    3  C   UNL     1      64.318   8.914   5.166  1.00  0.00     0.048 A 
HETATM    4  C   UNL     1      63.969   7.250   3.447  1.00  0.00     0.030 A 
HETATM    5  C   UNL     1      62.476   9.148   3.608  1.00  0.00     0.018 A 
HETATM    6  C   UNL     1      62.851   7.957   2.992  1.00  0.00     0.003 A 
ENDROOT
BRANCH   1   7
HETATM    7  N   UNL     1      65.879   7.022   4.986  1.00  0.00    -0.333 N 
HETATM    8  C   UNL     1      66.235   5.723   4.671  1.00  0.00     0.096 A 
HETATM    9  C   UNL     1      67.433   5.416   5.279  1.00  0.00     0.019 A 
HETATM   10  C   UNL     1      67.835   6.551   6.003  1.00  0.00     0.019 A 
HETATM   11  C   UNL     1      66.875   7.520   5.807  1.00  0.00     0.096 A 
ENDBRANCH   1   7
BRANCH   2  12
HETATM   12  C   UNL     1      62.813  10.931   5.291  1.00  0.00     0.209 C 
HETATM   13  O   UNL     1      63.141  11.338   6.390  1.00  0.00    -0.644 OA
HETATM   14  O   UNL     1      61.992  11.644   4.498  1.00  0.00    -0.644 OA
ENDBRANCH   2  12
TORSDOF 2
ENDMDL
MODEL 3
REMARK VINA RESULT:      -5.3      2.945      5.314
REMARK  2 active torsions:
REMARK  status: ('A' for Active; 'I' for Inactive)
REMARK    1  A    between atoms: N_1  and  C_3 
REMARK    2  A    between atoms: C_2  and  C_4 
ROOT
HETATM    1  C   UNL     1      63.138   8.445   4.539  1.00  0.00     0.039 A 
HETATM    2  C   UNL     1      65.019   7.681   5.886  1.00  0.00     0.043 A 
HETATM    3  C   UNL     1      64.494   8.521   4.893  1.00  0.00     0.048 A 
HETATM    4  C   UNL     1      62.324   7.493   5.172  1.00  0.00     0.030 A 
HETATM    5  C   UNL     1      64.197   6.736   6.505  1.00  0.00     0.018 A 
HETATM    6  C   UNL     1      62.855   6.639   6.144  1.00  0.00     0.003 A 
ENDROOT
BRANCH   1   7
HETATM    7  N   UNL     1      62.593   9.342   3.567  1.00  0.00    -0.333 N 
HETATM    8  C   UNL     1      62.216  10.657   3.775  1.00  0.00     0.096 A 
HETATM    9  C   UNL     1      61.758  11.195   2.591  1.00  0.00     0.019 A 
HETATM   10  C   UNL     1      61.844  10.186   1.615  1.00  0.00     0.019 A 
HETATM   11  C   UNL     1      62.359   9.067   2.231  1.00  0.00     0.096 A 
ENDBRANCH   1   7
BRANCH   2  12
HETATM   12  C   UNL     1      66.429   7.789   6.331  1.00  0.00     0.209 C 
HETATM   13  O   UNL     1      67.275   6.920   6.232  1.00  0.00    -0.644 OA
HETATM   14  O   UNL     1      66.707   8.971   6.911  1.00  0.00    -0.644 OA
ENDBRANCH   2  12
TORSDOF 2
ENDMDL
MODEL 4
REMARK VINA RESULT:      -5.2      1.746      2.401
REMARK  2 active torsions:
REMARK  status: ('A' for Active; 'I' for Inactive)
REMARK    1  A    between atoms: N_1  and  C_3 
REMARK    2  A    between atoms: C_2  and  C_4 
ROOT
HETATM    1  C   UNL     1      63.439   9.006   4.708  1.00  0.00     0.039 A 
HETATM    2  C   UNL     1      62.160   9.472   2.687  1.00  0.00     0.043 A 
HETATM    3  C   UNL     1      62.983   8.620   3.438  1.00  0.00     0.048 A 
HETATM    4  C   UNL     1      63.085  10.272   5.199  1.00  0.00     0.030 A 
HETATM    5  C   UNL     1      61.820  10.731   3.188  1.00  0.00     0.018 A 
HETATM    6  C   UNL     1      62.286  11.131   4.438  1.00  0.00     0.003 A 
ENDROOT
BRANCH   1   7
HETATM    7  N   UNL     1      64.229   8.111   5.495  1.00  0.00    -0.333 N 
HETATM    8  C   UNL     1      65.598   8.167   5.688  1.00  0.00     0.096 A 
HETATM    9  C   UNL     1      65.985   7.144   6.526  1.00  0.00     0.019 A 
HETATM   10  C   UNL     1      64.828   6.422   6.863  1.00  0.00     0.019 A 
HETATM   11  C   UNL     1      63.769   7.030   6.227  1.00  0.00     0.096 A 
ENDBRANCH   1   7
BRANCH   2  12
HETATM   12  C   UNL     1      61.605   9.061   1.375  1.00  0.00     0.209 C 
HETATM   13  O   UNL     1      60.471   8.667   1.174  1.00  0.00    -0.644 OA
HETATM   14  O   UNL     1      62.507   9.130   0.379  1.00  0.00    -0.644 OA
ENDBRANCH   2  12
TORSDOF 2
ENDMDL
MODEL 5
REMARK VINA RESULT:      -4.9      2.912      4.244
REMARK  2 active torsions:
REMARK  status: ('A' for Active; 'I' for Inactive)
REMARK    1  A    between atoms: N_1  and  C_3 
REMARK    2  A    between atoms: C_2  and  C_4 
ROOT
HETATM    1  C   UNL     1      62.617   8.447   2.252  1.00  0.00     0.039 A 
HETATM    2  C   UNL     1      62.811   9.998   4.121  1.00  0.00     0.043 A 
HETATM    3  C   UNL     1      63.065   8.743   3.549  1.00  0.00     0.048 A 
HETATM    4  C   UNL     1      61.882   9.416   1.551  1.00  0.00     0.030 A 
HETATM    5  C   UNL     1      62.074  10.951   3.412  1.00  0.00     0.018 A 
HETATM    6  C   UNL     1      61.607  10.657   2.133  1.00  0.00     0.003 A 
ENDROOT
BRANCH   1   7
HETATM    7  N   UNL     1      62.929   7.188   1.649  1.00  0.00    -0.333 N 
HETATM    8  C   UNL     1      63.737   6.196   2.175  1.00  0.00     0.096 A 
HETATM    9  C   UNL     1      63.774   5.126   1.307  1.00  0.00     0.019 A 
HETATM   10  C   UNL     1      62.972   5.460   0.202  1.00  0.00     0.019 A 
HETATM   11  C   UNL     1      62.464   6.719   0.433  1.00  0.00     0.096 A 
ENDBRANCH   1   7
BRANCH   2  12
HETATM   12  C   UNL     1      63.334  10.364   5.459  1.00  0.00     0.209 C 
HETATM   13  O   UNL     1      62.824  11.153   6.232  1.00  0.00    -0.644 OA
HETATM   14  O   UNL     1      64.493   9.748   5.755  1.00  0.00    -0.644 OA
ENDBRANCH   2  12
TORSDOF 2
ENDMDL
MODEL 6
REMARK VINA RESULT:      -4.9      2.912      5.319
REMARK  2 active torsions:
REMARK  status: ('A' for Active; 'I' for Inactive)
REMARK    1  A    between atoms: N_1  and  C_3 
REMARK    2  A    between atoms: C_2  and  C_4 
ROOT
HETATM    1  C   UNL     1      62.290   8.843   3.054  1.00  0.00     0.039 A 
HETATM    2  C   UNL     1      63.967   8.922   4.819  1.00  0.00     0.043 A 
HETATM    3  C   UNL     1      63.365   8.258   3.740  1.00  0.00     0.048 A 
HETATM    4  C   UNL     1      61.805  10.088   3.486  1.00  0.00     0.030 A 
HETATM    5  C   UNL     1      63.471  10.159   5.241  1.00  0.00     0.018 A 
HETATM    6  C   UNL     1      62.390  10.736   4.579  1.00  0.00     0.003 A 
ENDROOT
BRANCH   1   7
HETATM    7  N   UNL     1      61.717   8.190   1.917  1.00  0.00    -0.333 N 
HETATM    8  C   UNL     1      60.553   8.545   1.259  1.00  0.00     0.096 A 
HETATM    9  C   UNL     1      60.345   7.686   0.201  1.00  0.00     0.019 A 
HETATM   10  C   UNL     1      61.404   6.762   0.201  1.00  0.00     0.019 A 
HETATM   11  C   UNL     1      62.230   7.090   1.253  1.00  0.00     0.096 A 
ENDBRANCH   1   7
BRANCH   2  12
HETATM   12  C   UNL     1      65.149   8.362   5.516  1.00  0.00     0.209 C 
HETATM   13  O   UNL     1      65.853   8.955   6.313  1.00  0.00    -0.644 OA
HETATM   14  O   UNL     1      65.419   7.094   5.156  1.00  0.00    -0.644 OA
ENDBRANCH   2  12
TORSDOF 2
ENDMDL
MODEL 7
REMARK VINA RESULT:      -4.8      3.400      3.619
REMARK  2 active torsions:
REMARK  status: ('A' for Active; 'I' for Inactive)
REMARK    1  A    between atoms: N_1  and  C_3 
REMARK    2  A    between atoms: C_2  and  C_4 
ROOT
HETATM    1  C   UNL     1      61.345   7.404   2.832  1.00  0.00     0.039 A 
HETATM    2  C   UNL     1      61.775   9.777   2.486  1.00  0.00     0.043 A 
HETATM    3  C   UNL     1      61.358   8.723   3.312  1.00  0.00     0.048 A 
HETATM    4  C   UNL     1      61.725   7.162   1.503  1.00  0.00     0.030 A 
HETATM    5  C   UNL     1      62.146   9.521   1.164  1.00  0.00     0.018 A 
HETATM    6  C   UNL     1      62.115   8.218   0.673  1.00  0.00     0.003 A 
ENDROOT
BRANCH   1   7
HETATM    7  N   UNL     1      60.975   6.325   3.695  1.00  0.00    -0.333 N 
HETATM    8  C   UNL     1      61.351   5.000   3.570  1.00  0.00     0.096 A 
HETATM    9  C   UNL     1      60.811   4.270   4.606  1.00  0.00     0.019 A 
HETATM   10  C   UNL     1      60.068   5.161   5.400  1.00  0.00     0.019 A 
HETATM   11  C   UNL     1      60.185   6.409   4.828  1.00  0.00     0.096 A 
ENDBRANCH   1   7
BRANCH   2  12
HETATM   12  C   UNL     1      61.868  11.169   2.988  1.00  0.00     0.209 C 
HETATM   13  O   UNL     1      61.857  11.507   4.157  1.00  0.00    -0.644 OA
HETATM   14  O   UNL     1      61.935  12.080   1.999  1.00  0.00    -0.644 OA
ENDBRANCH   2  12
TORSDOF 2
ENDMDL
MODEL 8
REMARK VINA RESULT:      -4.5      3.320      5.339
REMARK  2 active torsions:
REMARK  status: ('A' for Active; 'I' for Inactive)
REMARK    1  A    between atoms: N_1  and  C_3 
REMARK    2  A    between atoms: C_2  and  C_4 
ROOT
HETATM    1  C   UNL     1      64.195   8.072   4.275  1.00  0.00     0.039 A 
HETATM    2  C   UNL     1      65.900   6.995   5.642  1.00  0.00     0.043 A 
HETATM    3  C   UNL     1      65.057   8.085   5.383  1.00  0.00     0.048 A 
HETATM    4  C   UNL     1      64.215   6.964   3.413  1.00  0.00     0.030 A 
HETATM    5  C   UNL     1      65.911   5.901   4.772  1.00  0.00     0.018 A 
HETATM    6  C   UNL     1      65.075   5.889   3.659  1.00  0.00     0.003 A 
ENDROOT
BRANCH   1   7
HETATM    7  N   UNL     1      63.294   9.160   4.046  1.00  0.00    -0.333 N 
HETATM    8  C   UNL     1      62.507   9.361   2.927  1.00  0.00     0.096 A 
HETATM    9  C   UNL     1      61.761  10.508   3.091  1.00  0.00     0.019 A 
HETATM   10  C   UNL     1      62.097  11.046   4.346  1.00  0.00     0.019 A 
HETATM   11  C   UNL     1      63.030  10.207   4.912  1.00  0.00     0.096 A 
ENDBRANCH   1   7
BRANCH   2  12
HETATM   12  C   UNL     1      66.767   6.950   6.843  1.00  0.00     0.209 C 
HETATM   13  O   UNL     1      66.670   7.671   7.819  1.00  0.00    -0.644 OA
HETATM   14  O   UNL     1      67.740   6.025   6.753  1.00  0.00    -0.644 OA
ENDBRANCH   2  12
TORSDOF 2
ENDMDL
MODEL 9
REMARK VINA RESULT:      -4.3      2.605      3.554
REMARK  2 active torsions:
REMARK  status: ('A' for Active; 'I' for Inactive)
REMARK    1  A    between atoms: N_1  and  C_3 
REMARK    2  A    between atoms: C_2  and  C_4 
ROOT
HETATM    1  C   UNL     1      62.807   6.680   5.784  1.00  0.00     0.039 A 
HETATM    2  C   UNL     1      63.256   9.019   5.272  1.00  0.00     0.043 A 
HETATM    3  C   UNL     1      62.418   8.028   5.803  1.00  0.00     0.048 A 
HETATM    4  C   UNL     1      64.035   6.337   5.195  1.00  0.00     0.030 A 
HETATM    5  C   UNL     1      64.473   8.662   4.686  1.00  0.00     0.018 A 
HETATM    6  C   UNL     1      64.858   7.324   4.643  1.00  0.00     0.003 A 
ENDROOT
BRANCH   1   7
HETATM    7  N   UNL     1      61.976   5.679   6.378  1.00  0.00    -0.333 N 
HETATM    8  C   UNL     1      62.279   4.338   6.534  1.00  0.00     0.096 A 
HETATM    9  C   UNL     1      61.233   3.703   7.169  1.00  0.00     0.019 A 
HETATM   10  C   UNL     1      60.244   4.672   7.412  1.00  0.00     0.019 A 
HETATM   11  C   UNL     1      60.719   5.869   6.925  1.00  0.00     0.096 A 
ENDBRANCH   1   7
BRANCH   2  12
HETATM   12  C   UNL     1      62.904  10.458   5.344  1.00  0.00     0.209 C 
HETATM   13  O   UNL     1      63.330  11.256   6.157  1.00  0.00    -0.644 OA
HETATM   14  O   UNL     1      62.004  10.824   4.412  1.00  0.00    -0.644 OA
ENDBRANCH   2  12
TORSDOF 2
ENDMDL
