MODEL 1
REMARK VINA RESULT:      -5.8      0.000      0.000
REMARK  2 active torsions:
REMARK  status: ('A' for Active; 'I' for Inactive)
REMARK    1  A    between atoms: C_1  and  C_4 
REMARK    2  A    between atoms: C_5  and  C_10 
ROOT
HETATM    1  C   UNL     1      65.617   6.482   6.982  1.00  0.00     0.056 A 
HETATM    2  N   UNL     1      65.306   8.572   5.802  1.00  0.00    -0.364 N 
ATOM      3  HN  UNL     1      65.671   9.480   5.514  1.00  0.00     0.165 HD
HETATM    4  C   UNL     1      64.056   8.175   5.445  1.00  0.00     0.042 A 
HETATM    5  C   UNL     1      66.055   7.724   6.552  1.00  0.00     0.106 A 
HETATM    6  C   UNL     1      64.338   6.078   6.610  1.00  0.00     0.022 A 
HETATM    7  C   UNL     1      63.551   6.931   5.836  1.00  0.00     0.031 A 
ENDROOT
BRANCH   4   8
HETATM    8  C   UNL     1      63.261   9.146   4.665  1.00  0.00    -0.009 A 
HETATM    9  C   UNL     1      62.942  10.423   5.165  1.00  0.00     0.013 A 
HETATM   10  C   UNL     1      62.222  11.345   4.400  1.00  0.00     0.001 A 
HETATM   11  C   UNL     1      61.797  11.009   3.119  1.00  0.00     0.000 A 
HETATM   12  C   UNL     1      62.084   9.748   2.606  1.00  0.00     0.001 A 
HETATM   13  C   UNL     1      62.805   8.827   3.372  1.00  0.00     0.013 A 
ENDBRANCH   4   8
BRANCH   1  14
HETATM   14  C   UNL     1      66.508   5.664   7.820  1.00  0.00     0.210 C 
HETATM   15  O   UNL     1      66.185   5.058   8.825  1.00  0.00    -0.644 OA
HETATM   16  O   UNL     1      67.770   5.631   7.355  1.00  0.00    -0.644 OA
ENDBRANCH   1  14
TORSDOF 2
ENDMDL
MODEL 2
REMARK VINA RESULT:      -5.3      3.506      6.250
REMARK  2 active torsions:
REMARK  status: ('A' for Active; 'I' for Inactive)
REMARK    1  A    between atoms: C_1  and  C_4 
REMARK    2  A    between atoms: C_5  and  C_10 
ROOT
HETATM    1  C   UNL     1      62.943   9.185   3.831  1.00  0.00     0.056 A 
HETATM    2  N   UNL     1      64.355   8.740   5.746  1.00  0.00    -0.364 N 
ATOM      3  HN  UNL     1      64.724   9.032   6.650  1.00  0.00     0.165 HD
HETATM    4  C   UNL     1      64.727   7.559   5.186  1.00  0.00     0.042 A 
HETATM    5  C   UNL     1      63.476   9.519   5.065  1.00  0.00     0.106 A 
HETATM    6  C   UNL     1      63.324   7.971   3.265  1.00  0.00     0.022 A 
HETATM    7  C   UNL     1      64.224   7.152   3.947  1.00  0.00     0.031 A 
ENDROOT
BRANCH   4   8
HETATM    8  C   UNL     1      65.718   6.763   5.941  1.00  0.00    -0.009 A 
HETATM    9  C   UNL     1      66.694   5.980   5.296  1.00  0.00     0.013 A 
HETATM   10  C   UNL     1      67.649   5.263   6.023  1.00  0.00     0.001 A 
HETATM   11  C   UNL     1      67.645   5.307   7.414  1.00  0.00     0.000 A 
HETATM   12  C   UNL     1      66.681   6.059   8.077  1.00  0.00     0.001 A 
HETATM   13  C   UNL     1      65.728   6.776   7.348  1.00  0.00     0.013 A 
ENDBRANCH   4   8
BRANCH   1  14
HETATM   14  C   UNL     1      62.023  10.127   3.174  1.00  0.00     0.210 C 
HETATM   15  O   UNL     1      61.678  10.091   2.008  1.00  0.00    -0.644 OA
HETATM   16  O   UNL     1      61.564  11.073   4.013  1.00  0.00    -0.644 OA
ENDBRANCH   1  14
TORSDOF 2
ENDMDL
MODEL 3
REMARK VINA RESULT:      -5.0      3.106      6.174
REMARK  2 active torsions:
REMARK  status: ('A' for Active; 'I' for Inactive)
REMARK    1  A    between atoms: C_1  and  C_4 
REMARK    2  A    between atoms: C_5  and  C_10 
ROOT
HETATM    1  C   UNL     1      63.346   8.679   5.105  1.00  0.00     0.056 A 
HETATM    2  N   UNL     1      65.507   8.414   6.163  1.00  0.00    -0.364 N 
ATOM      3  HN  UNL     1      66.427   8.793   6.386  1.00  0.00     0.165 HD
HETATM    4  C   UNL     1      65.144   7.170   6.574  1.00  0.00     0.042 A 
HETATM    5  C   UNL     1      64.608   9.137   5.447  1.00  0.00     0.106 A 
HETATM    6  C   UNL     1      62.978   7.406   5.534  1.00  0.00     0.022 A 
HETATM    7  C   UNL     1      63.884   6.646   6.273  1.00  0.00     0.031 A 
ENDROOT
BRANCH   4   8
HETATM    8  C   UNL     1      66.168   6.403   7.313  1.00  0.00    -0.009 A 
HETATM    9  C   UNL     1      66.766   6.895   8.489  1.00  0.00     0.013 A 
HETATM   10  C   UNL     1      67.705   6.140   9.199  1.00  0.00     0.001 A 
HETATM   11  C   UNL     1      68.075   4.879   8.744  1.00  0.00     0.000 A 
HETATM   12  C   UNL     1      67.512   4.375   7.575  1.00  0.00     0.001 A 
HETATM   13  C   UNL     1      66.572   5.130   6.867  1.00  0.00     0.013 A 
ENDBRANCH   4   8
BRANCH   1  14
HETATM   14  C   UNL     1      62.470   9.542   4.297  1.00  0.00     0.210 C 
HETATM   15  O   UNL     1      62.170  10.693   4.552  1.00  0.00    -0.644 OA
HETATM   16  O   UNL     1      62.013   8.926   3.192  1.00  0.00    -0.644 OA
ENDBRANCH   1  14
TORSDOF 2
ENDMDL
MODEL 4
REMARK VINA RESULT:      -4.9      2.326      3.251
REMARK  2 active torsions:
REMARK  status: ('A' for Active; 'I' for Inactive)
REMARK    1  A    between atoms: C_1  and  C_4 
REMARK    2  A    between atoms: C_5  and  C_10 
ROOT
HETATM    1  C   UNL     1      65.483   7.860   5.091  1.00  0.00     0.056 A 
HETATM    2  N   UNL     1      63.411   8.870   4.355  1.00  0.00    -0.364 N 
ATOM      3  HN  UNL     1      62.714   9.609   4.446  1.00  0.00     0.165 HD
HETATM    4  C   UNL     1      63.272   7.887   3.426  1.00  0.00     0.042 A 
HETATM    5  C   UNL     1      64.504   8.838   5.158  1.00  0.00     0.106 A 
HETATM    6  C   UNL     1      65.339   6.859   4.133  1.00  0.00     0.022 A 
HETATM    7  C   UNL     1      64.224   6.873   3.295  1.00  0.00     0.031 A 
ENDROOT
BRANCH   4   8
HETATM    8  C   UNL     1      62.046   7.937   2.603  1.00  0.00    -0.009 A 
HETATM    9  C   UNL     1      62.055   8.409   1.276  1.00  0.00     0.013 A 
HETATM   10  C   UNL     1      60.894   8.413   0.497  1.00  0.00     0.001 A 
HETATM   11  C   UNL     1      59.694   7.953   1.029  1.00  0.00     0.000 A 
HETATM   12  C   UNL     1      59.653   7.496   2.343  1.00  0.00     0.001 A 
HETATM   13  C   UNL     1      60.814   7.492   3.120  1.00  0.00     0.013 A 
ENDBRANCH   4   8
BRANCH   1  14
HETATM   14  C   UNL     1      66.609   7.912   6.038  1.00  0.00     0.210 C 
HETATM   15  O   UNL     1      67.514   7.104   6.115  1.00  0.00    -0.644 OA
HETATM   16  O   UNL     1      66.557   8.988   6.844  1.00  0.00    -0.644 OA
ENDBRANCH   1  14
TORSDOF 2
ENDMDL
MODEL 5
REMARK VINA RESULT:      -4.9      3.251      6.257
REMARK  2 active torsions:
REMARK  status: ('A' for Active; 'I' for Inactive)
REMARK    1  A    between atoms: C_1  and  C_4 
REMARK    2  A    between atoms: C_5  and  C_10 
ROOT
HETATM    1  C   UNL     1      63.049   8.357   4.879  1.00  0.00     0.056 A 
HETATM    2  N   UNL     1      63.838   6.643   6.394  1.00  0.00    -0.364 N 
ATOM      3  HN  UNL     1      63.641   5.834   6.983  1.00  0.00     0.165 HD
HETATM    4  C   UNL     1      65.099   7.142   6.288  1.00  0.00     0.042 A 
HETATM    5  C   UNL     1      62.850   7.252   5.691  1.00  0.00     0.106 A 
HETATM    6  C   UNL     1      64.343   8.860   4.770  1.00  0.00     0.022 A 
HETATM    7  C   UNL     1      65.376   8.248   5.481  1.00  0.00     0.031 A 
ENDROOT
BRANCH   4   8
HETATM    8  C   UNL     1      66.135   6.474   7.103  1.00  0.00    -0.009 A 
HETATM    9  C   UNL     1      66.423   6.877   8.421  1.00  0.00     0.013 A 
HETATM   10  C   UNL     1      67.379   6.211   9.194  1.00  0.00     0.001 A 
HETATM   11  C   UNL     1      68.075   5.129   8.664  1.00  0.00     0.000 A 
HETATM   12  C   UNL     1      67.822   4.720   7.358  1.00  0.00     0.001 A 
HETATM   13  C   UNL     1      66.865   5.386   6.587  1.00  0.00     0.013 A 
ENDBRANCH   4   8
BRANCH   1  14
HETATM   14  C   UNL     1      61.892   8.952   4.190  1.00  0.00     0.210 C 
HETATM   15  O   UNL     1      61.777  10.121   3.872  1.00  0.00    -0.644 OA
HETATM   16  O   UNL     1      60.931   8.052   3.920  1.00  0.00    -0.644 OA
ENDBRANCH   1  14
TORSDOF 2
ENDMDL
MODEL 6
REMARK VINA RESULT:      -4.7      3.765      6.224
REMARK  2 active torsions:
REMARK  status: ('A' for Active; 'I' for Inactive)
REMARK    1  A    between atoms: C_1  and  C_4 
REMARK    2  A    between atoms: C_5  and  C_10 
ROOT
HETATM    1  C   UNL     1      62.579   8.843   3.020  1.00  0.00     0.056 A 
HETATM    2  N   UNL     1      64.219   7.179   3.648  1.00  0.00    -0.364 N 
ATOM      3  HN  UNL     1      64.705   6.305   3.446  1.00  0.00     0.165 HD
HETATM    4  C   UNL     1      64.496   7.889   4.774  1.00  0.00     0.042 A 
HETATM    5  C   UNL     1      63.278   7.668   2.801  1.00  0.00     0.106 A 
HETATM    6  C   UNL     1      62.870   9.569   4.171  1.00  0.00     0.022 A 
HETATM    7  C   UNL     1      63.836   9.088   5.056  1.00  0.00     0.031 A 
ENDROOT
BRANCH   4   8
HETATM    8  C   UNL     1      65.496   7.299   5.688  1.00  0.00    -0.009 A 
HETATM    9  C   UNL     1      65.139   6.767   6.942  1.00  0.00     0.013 A 
HETATM   10  C   UNL     1      66.089   6.176   7.780  1.00  0.00     0.001 A 
HETATM   11  C   UNL     1      67.422   6.110   7.386  1.00  0.00     0.000 A 
HETATM   12  C   UNL     1      67.806   6.643   6.159  1.00  0.00     0.001 A 
HETATM   13  C   UNL     1      66.854   7.232   5.323  1.00  0.00     0.013 A 
ENDBRANCH   4   8
BRANCH   1  14
HETATM   14  C   UNL     1      61.557   9.256   2.044  1.00  0.00     0.210 C 
HETATM   15  O   UNL     1      60.677   8.548   1.591  1.00  0.00    -0.644 OA
HETATM   16  O   UNL     1      61.675  10.547   1.686  1.00  0.00    -0.644 OA
ENDBRANCH   1  14
TORSDOF 2
ENDMDL
MODEL 7
REMARK VINA RESULT:      -4.6      3.863      4.899
REMARK  2 active torsions:
REMARK  status: ('A' for Active; 'I' for Inactive)
REMARK    1  A    between atoms: C_1  and  C_4 
REMARK    2  A    between atoms: C_5  and  C_10 
ROOT
HETATM    1  C   UNL     1      63.267   8.403   4.532  1.00  0.00     0.056 A 
HETATM    2  N   UNL     1      61.203   7.152   4.714  1.00  0.00    -0.364 N 
ATOM      3  HN  UNL     1      60.652   6.432   5.180  1.00  0.00     0.165 HD
HETATM    4  C   UNL     1      60.697   7.852   3.664  1.00  0.00     0.042 A 
HETATM    5  C   UNL     1      62.464   7.442   5.124  1.00  0.00     0.106 A 
HETATM    6  C   UNL     1      62.741   9.120   3.460  1.00  0.00     0.022 A 
HETATM    7  C   UNL     1      61.446   8.841   3.022  1.00  0.00     0.031 A 
ENDROOT
BRANCH   4   8
HETATM    8  C   UNL     1      59.338   7.474   3.224  1.00  0.00    -0.009 A 
HETATM    9  C   UNL     1      58.286   7.269   4.138  1.00  0.00     0.013 A 
HETATM   10  C   UNL     1      56.996   6.950   3.705  1.00  0.00     0.001 A 
HETATM   11  C   UNL     1      56.728   6.821   2.345  1.00  0.00     0.000 A 
HETATM   12  C   UNL     1      57.752   7.002   1.421  1.00  0.00     0.001 A 
HETATM   13  C   UNL     1      59.041   7.322   1.856  1.00  0.00     0.013 A 
ENDBRANCH   4   8
BRANCH   1  14
HETATM   14  C   UNL     1      64.632   8.606   5.045  1.00  0.00     0.210 C 
HETATM   15  O   UNL     1      64.991   9.507   5.778  1.00  0.00    -0.644 OA
HETATM   16  O   UNL     1      65.489   7.659   4.622  1.00  0.00    -0.644 OA
ENDBRANCH   1  14
TORSDOF 2
ENDMDL
MODEL 8
REMARK VINA RESULT:      -4.6      1.452      1.809
REMARK  2 active torsions:
REMARK  status: ('A' for Active; 'I' for Inactive)
REMARK    1  A    between atoms: C_1  and  C_4 
REMARK    2  A    between atoms: C_5  and  C_10 
ROOT
HETATM    1  C   UNL     1      65.649   6.148   6.115  1.00  0.00     0.056 A 
HETATM    2  N   UNL     1      65.030   6.736   3.850  1.00  0.00    -0.364 N 
ATOM      3  HN  UNL     1      65.205   6.671   2.848  1.00  0.00     0.165 HD
HETATM    4  C   UNL     1      63.989   7.465   4.333  1.00  0.00     0.042 A 
HETATM    5  C   UNL     1      65.828   6.096   4.742  1.00  0.00     0.106 A 
HETATM    6  C   UNL     1      64.578   6.892   6.604  1.00  0.00     0.022 A 
HETATM    7  C   UNL     1      63.742   7.556   5.706  1.00  0.00     0.031 A 
ENDROOT
BRANCH   4   8
HETATM    8  C   UNL     1      63.172   8.179   3.330  1.00  0.00    -0.009 A 
HETATM    9  C   UNL     1      62.613   9.446   3.587  1.00  0.00     0.013 A 
HETATM   10  C   UNL     1      61.875  10.127   2.614  1.00  0.00     0.001 A 
HETATM   11  C   UNL     1      61.672   9.553   1.363  1.00  0.00     0.000 A 
HETATM   12  C   UNL     1      62.199   8.295   1.088  1.00  0.00     0.001 A 
HETATM   13  C   UNL     1      62.938   7.616   2.061  1.00  0.00     0.013 A 
ENDBRANCH   4   8
BRANCH   1  14
HETATM   14  C   UNL     1      66.600   5.438   6.985  1.00  0.00     0.210 C 
HETATM   15  O   UNL     1      67.138   4.375   6.736  1.00  0.00    -0.644 OA
HETATM   16  O   UNL     1      66.847   6.099   8.130  1.00  0.00    -0.644 OA
ENDBRANCH   1  14
TORSDOF 2
ENDMDL
MODEL 9
REMARK VINA RESULT:      -4.6      2.724      3.841
REMARK  2 active torsions:
REMARK  status: ('A' for Active; 'I' for Inactive)
REMARK    1  A    between atoms: C_1  and  C_4 
REMARK    2  A    between atoms: C_5  and  C_10 
ROOT
HETATM    1  C   UNL     1      64.324   7.975   5.102  1.00  0.00     0.056 A 
HETATM    2  N   UNL     1      62.528   6.786   4.000  1.00  0.00    -0.364 N 
ATOM      3  HN  UNL     1      62.075   5.903   3.765  1.00  0.00     0.165 HD
HETATM    4  C   UNL     1      62.018   7.971   3.571  1.00  0.00     0.042 A 
HETATM    5  C   UNL     1      63.657   6.813   4.752  1.00  0.00     0.106 A 
HETATM    6  C   UNL     1      63.795   9.187   4.664  1.00  0.00     0.022 A 
HETATM    7  C   UNL     1      62.633   9.184   3.892  1.00  0.00     0.031 A 
ENDROOT
BRANCH   4   8
HETATM    8  C   UNL     1      60.812   7.892   2.720  1.00  0.00    -0.009 A 
HETATM    9  C   UNL     1      60.811   8.337   1.384  1.00  0.00     0.013 A 
HETATM   10  C   UNL     1      59.674   8.220   0.579  1.00  0.00     0.001 A 
HETATM   11  C   UNL     1      58.508   7.663   1.095  1.00  0.00     0.000 A 
HETATM   12  C   UNL     1      58.476   7.231   2.417  1.00  0.00     0.001 A 
HETATM   13  C   UNL     1      59.614   7.347   3.220  1.00  0.00     0.013 A 
ENDBRANCH   4   8
BRANCH   1  14
HETATM   14  C   UNL     1      65.561   7.876   5.895  1.00  0.00     0.210 C 
HETATM   15  O   UNL     1      66.183   8.810   6.364  1.00  0.00    -0.644 OA
HETATM   16  O   UNL     1      65.958   6.604   6.076  1.00  0.00    -0.644 OA
ENDBRANCH   1  14
TORSDOF 2
ENDMDL
