MODEL 1
REMARK VINA RESULT:      -5.0      0.000      0.000
REMARK  3 active torsions:
REMARK  status: ('A' for Active; 'I' for Inactive)
REMARK    1  A    between atoms: N_1  and  C_2 
REMARK    2  A    between atoms: C_8  and  C_12 
REMARK    3  A    between atoms: N_9  and  C_12 
ROOT
HETATM    1  C   UNL     1      63.247   8.518   4.615  1.00  0.00     0.038 A 
HETATM    2  C   UNL     1      64.632   8.537   4.845  1.00  0.00     0.038 A 
HETATM    3  C   UNL     1      65.225   7.689   5.800  1.00  0.00    -0.031 A 
HETATM    4  C   UNL     1      62.458   7.616   5.342  1.00  0.00     0.030 A 
HETATM    5  C   UNL     1      63.041   6.759   6.279  1.00  0.00     0.003 A 
HETATM    6  C   UNL     1      64.415   6.798   6.511  1.00  0.00     0.009 A 
ENDROOT
BRANCH   1   7
HETATM    7  N   UNL     1      62.653   9.418   3.673  1.00  0.00    -0.333 N 
HETATM    8  C   UNL     1      62.236  10.716   3.917  1.00  0.00     0.096 A 
HETATM    9  C   UNL     1      61.748  11.269   2.752  1.00  0.00     0.019 A 
HETATM   10  C   UNL     1      61.850  10.287   1.751  1.00  0.00     0.019 A 
HETATM   11  C   UNL     1      62.400   9.167   2.335  1.00  0.00     0.096 A 
ENDBRANCH   1   7
BRANCH   3  12
HETATM   12  C   UNL     1      66.704   7.779   6.080  1.00  0.00     0.268 C 
BRANCH  12  13
HETATM   13  N   UNL     1      66.985   8.604   7.248  1.00  0.00    -0.075 N 
HETATM   14  H   UNL     1      66.178   9.196   7.449  1.00  0.00     0.274 HD
HETATM   15  H   UNL     1      67.798   9.191   7.062  1.00  0.00     0.274 HD
HETATM   16  H   UNL     1      67.175   8.005   8.051  1.00  0.00     0.274 HD
ENDBRANCH  12  13
ENDBRANCH   3  12
TORSDOF 3
ENDMDL
MODEL 2
REMARK VINA RESULT:      -4.9      1.476      5.343
REMARK  3 active torsions:
REMARK  status: ('A' for Active; 'I' for Inactive)
REMARK    1  A    between atoms: N_1  and  C_2 
REMARK    2  A    between atoms: C_8  and  C_12 
REMARK    3  A    between atoms: N_9  and  C_12 
ROOT
HETATM    1  C   UNL     1      63.408   9.042   4.694  1.00  0.00     0.038 A 
HETATM    2  C   UNL     1      62.981   8.703   3.401  1.00  0.00     0.038 A 
HETATM    3  C   UNL     1      62.195   9.586   2.636  1.00  0.00    -0.031 A 
HETATM    4  C   UNL     1      63.055  10.296   5.211  1.00  0.00     0.030 A 
HETATM    5  C   UNL     1      62.288  11.185   4.453  1.00  0.00     0.003 A 
HETATM    6  C   UNL     1      61.855  10.831   3.176  1.00  0.00     0.009 A 
ENDROOT
BRANCH   1   7
HETATM    7  N   UNL     1      64.170   8.116   5.476  1.00  0.00    -0.333 N 
HETATM    8  C   UNL     1      63.680   7.036   6.192  1.00  0.00     0.096 A 
HETATM    9  C   UNL     1      64.726   6.364   6.786  1.00  0.00     0.019 A 
HETATM   10  C   UNL     1      65.906   7.047   6.443  1.00  0.00     0.019 A 
HETATM   11  C   UNL     1      65.544   8.113   5.649  1.00  0.00     0.096 A 
ENDBRANCH   1   7
BRANCH   3  12
HETATM   12  C   UNL     1      61.688   9.170   1.279  1.00  0.00     0.268 C 
BRANCH  12  13
HETATM   13  N   UNL     1      60.292   8.752   1.325  1.00  0.00    -0.075 N 
HETATM   14  H   UNL     1      60.227   7.830   1.757  1.00  0.00     0.274 HD
HETATM   15  H   UNL     1      59.918   8.710   0.377  1.00  0.00     0.274 HD
HETATM   16  H   UNL     1      59.754   9.423   1.873  1.00  0.00     0.274 HD
ENDBRANCH  12  13
ENDBRANCH   3  12
TORSDOF 3
ENDMDL
MODEL 3
REMARK VINA RESULT:      -4.9      1.492      5.257
REMARK  3 active torsions:
REMARK  status: ('A' for Active; 'I' for Inactive)
REMARK    1  A    between atoms: N_1  and  C_2 
REMARK    2  A    between atoms: C_8  and  C_12 
REMARK    3  A    between atoms: N_9  and  C_12 
ROOT
HETATM    1  C   UNL     1      64.129   7.943   4.760  1.00  0.00     0.038 A 
HETATM    2  C   UNL     1      63.430   9.159   4.782  1.00  0.00     0.038 A 
HETATM    3  C   UNL     1      62.622   9.556   3.699  1.00  0.00    -0.031 A 
HETATM    4  C   UNL     1      63.992   7.109   3.641  1.00  0.00     0.030 A 
HETATM    5  C   UNL     1      63.180   7.489   2.569  1.00  0.00     0.003 A 
HETATM    6  C   UNL     1      62.503   8.707   2.594  1.00  0.00     0.009 A 
ENDROOT
BRANCH   1   7
HETATM    7  N   UNL     1      64.982   7.573   5.849  1.00  0.00    -0.333 N 
HETATM    8  C   UNL     1      64.715   6.629   6.827  1.00  0.00     0.096 A 
HETATM    9  C   UNL     1      65.792   6.534   7.681  1.00  0.00     0.019 A 
HETATM   10  C   UNL     1      66.760   7.450   7.234  1.00  0.00     0.019 A 
HETATM   11  C   UNL     1      66.244   8.076   6.120  1.00  0.00     0.096 A 
ENDBRANCH   1   7
BRANCH   3  12
HETATM   12  C   UNL     1      61.938  10.900   3.716  1.00  0.00     0.268 C 
BRANCH  12  13
HETATM   13  N   UNL     1      61.544  11.325   2.378  1.00  0.00    -0.075 N 
HETATM   14  H   UNL     1      61.555  10.522   1.749  1.00  0.00     0.274 HD
HETATM   15  H   UNL     1      62.197  12.031   2.039  1.00  0.00     0.274 HD
HETATM   16  H   UNL     1      60.604  11.719   2.410  1.00  0.00     0.274 HD
ENDBRANCH  12  13
ENDBRANCH   3  12
TORSDOF 3
ENDMDL
MODEL 4
REMARK VINA RESULT:      -4.3      1.446      2.000
REMARK  3 active torsions:
REMARK  status: ('A' for Active; 'I' for Inactive)
REMARK    1  A    between atoms: N_1  and  C_2 
REMARK    2  A    between atoms: C_8  and  C_12 
REMARK    3  A    between atoms: N_9  and  C_12 
ROOT
HETATM    1  C   UNL     1      64.250   8.048   4.331  1.00  0.00     0.038 A 
HETATM    2  C   UNL     1      65.265   8.050   5.299  1.00  0.00     0.038 A 
HETATM    3  C   UNL     1      66.106   6.934   5.479  1.00  0.00    -0.031 A 
HETATM    4  C   UNL     1      64.097   6.913   3.521  1.00  0.00     0.030 A 
HETATM    5  C   UNL     1      64.936   5.808   3.682  1.00  0.00     0.003 A 
HETATM    6  C   UNL     1      65.931   5.815   4.659  1.00  0.00     0.009 A 
ENDROOT
BRANCH   1   7
HETATM    7  N   UNL     1      63.376   9.172   4.190  1.00  0.00    -0.333 N 
HETATM    8  C   UNL     1      62.492   9.410   3.150  1.00  0.00     0.096 A 
HETATM    9  C   UNL     1      61.802  10.579   3.390  1.00  0.00     0.019 A 
HETATM   10  C   UNL     1      62.273  11.097   4.609  1.00  0.00     0.019 A 
HETATM   11  C   UNL     1      63.234  10.227   5.076  1.00  0.00     0.096 A 
ENDBRANCH   1   7
BRANCH   3  12
HETATM   12  C   UNL     1      67.141   6.933   6.575  1.00  0.00     0.268 C 
BRANCH  12  13
HETATM   13  N   UNL     1      66.962   8.052   7.492  1.00  0.00    -0.075 N 
HETATM   14  H   UNL     1      67.780   8.131   8.096  1.00  0.00     0.274 HD
HETATM   15  H   UNL     1      66.133   7.893   8.063  1.00  0.00     0.274 HD
HETATM   16  H   UNL     1      66.848   8.913   6.959  1.00  0.00     0.274 HD
ENDBRANCH  12  13
ENDBRANCH   3  12
TORSDOF 3
ENDMDL
MODEL 5
REMARK VINA RESULT:      -4.3      2.039      5.393
REMARK  3 active torsions:
REMARK  status: ('A' for Active; 'I' for Inactive)
REMARK    1  A    between atoms: N_1  and  C_2 
REMARK    2  A    between atoms: C_8  and  C_12 
REMARK    3  A    between atoms: N_9  and  C_12 
ROOT
HETATM    1  C   UNL     1      63.034   7.743   3.394  1.00  0.00     0.038 A 
HETATM    2  C   UNL     1      62.667   9.066   3.685  1.00  0.00     0.038 A 
HETATM    3  C   UNL     1      62.145   9.915   2.690  1.00  0.00    -0.031 A 
HETATM    4  C   UNL     1      62.849   7.267   2.088  1.00  0.00     0.030 A 
HETATM    5  C   UNL     1      62.317   8.097   1.099  1.00  0.00     0.003 A 
HETATM    6  C   UNL     1      61.972   9.415   1.395  1.00  0.00     0.009 A 
ENDROOT
BRANCH   1   7
HETATM    7  N   UNL     1      63.605   6.906   4.405  1.00  0.00    -0.333 N 
HETATM    8  C   UNL     1      64.363   5.764   4.206  1.00  0.00     0.096 A 
HETATM    9  C   UNL     1      64.759   5.256   5.424  1.00  0.00     0.019 A 
HETATM   10  C   UNL     1      64.226   6.095   6.418  1.00  0.00     0.019 A 
HETATM   11  C   UNL     1      63.522   7.091   5.776  1.00  0.00     0.096 A 
ENDBRANCH   1   7
BRANCH   3  12
HETATM   12  C   UNL     1      61.827  11.353   3.010  1.00  0.00     0.268 C 
BRANCH  12  13
HETATM   13  N   UNL     1      61.754  12.174   1.808  1.00  0.00    -0.075 N 
HETATM   14  H   UNL     1      60.959  11.878   1.241  1.00  0.00     0.274 HD
HETATM   15  H   UNL     1      62.614  12.066   1.270  1.00  0.00     0.274 HD
HETATM   16  H   UNL     1      61.639  13.152   2.070  1.00  0.00     0.274 HD
ENDBRANCH  12  13
ENDBRANCH   3  12
TORSDOF 3
ENDMDL
MODEL 6
REMARK VINA RESULT:      -4.0      2.343      3.035
REMARK  3 active torsions:
REMARK  status: ('A' for Active; 'I' for Inactive)
REMARK    1  A    between atoms: N_1  and  C_2 
REMARK    2  A    between atoms: C_8  and  C_12 
REMARK    3  A    between atoms: N_9  and  C_12 
ROOT
HETATM    1  C   UNL     1      65.067   7.739   4.752  1.00  0.00     0.038 A 
HETATM    2  C   UNL     1      65.534   6.541   4.189  1.00  0.00     0.038 A 
HETATM    3  C   UNL     1      66.711   5.925   4.655  1.00  0.00    -0.031 A 
HETATM    4  C   UNL     1      65.787   8.307   5.813  1.00  0.00     0.030 A 
HETATM    5  C   UNL     1      66.947   7.694   6.292  1.00  0.00     0.003 A 
HETATM    6  C   UNL     1      67.411   6.513   5.714  1.00  0.00     0.009 A 
ENDROOT
BRANCH   1   7
HETATM    7  N   UNL     1      63.893   8.376   4.239  1.00  0.00    -0.333 N 
HETATM    8  C   UNL     1      63.225   9.455   4.794  1.00  0.00     0.096 A 
HETATM    9  C   UNL     1      62.161   9.801   3.989  1.00  0.00     0.019 A 
HETATM   10  C   UNL     1      62.152   8.908   2.904  1.00  0.00     0.019 A 
HETATM   11  C   UNL     1      63.212   8.046   3.078  1.00  0.00     0.096 A 
ENDBRANCH   1   7
BRANCH   3  12
HETATM   12  C   UNL     1      67.231   4.678   3.986  1.00  0.00     0.268 C 
BRANCH  12  13
HETATM   13  N   UNL     1      67.442   4.877   2.558  1.00  0.00    -0.075 N 
HETATM   14  H   UNL     1      68.315   5.383   2.410  1.00  0.00     0.274 HD
HETATM   15  H   UNL     1      66.668   5.415   2.171  1.00  0.00     0.274 HD
HETATM   16  H   UNL     1      67.492   3.971   2.092  1.00  0.00     0.274 HD
ENDBRANCH  12  13
ENDBRANCH   3  12
TORSDOF 3
ENDMDL
MODEL 7
REMARK VINA RESULT:      -4.0      1.961      5.469
REMARK  3 active torsions:
REMARK  status: ('A' for Active; 'I' for Inactive)
REMARK    1  A    between atoms: N_1  and  C_2 
REMARK    2  A    between atoms: C_8  and  C_12 
REMARK    3  A    between atoms: N_9  and  C_12 
ROOT
HETATM    1  C   UNL     1      64.259   7.911   4.330  1.00  0.00     0.038 A 
HETATM    2  C   UNL     1      63.499   7.590   3.194  1.00  0.00     0.038 A 
HETATM    3  C   UNL     1      62.400   8.379   2.803  1.00  0.00    -0.031 A 
HETATM    4  C   UNL     1      63.917   9.056   5.064  1.00  0.00     0.030 A 
HETATM    5  C   UNL     1      62.838   9.853   4.674  1.00  0.00     0.003 A 
HETATM    6  C   UNL     1      62.080   9.515   3.554  1.00  0.00     0.009 A 
ENDROOT
BRANCH   1   7
HETATM    7  N   UNL     1      65.345   7.075   4.740  1.00  0.00    -0.333 N 
HETATM    8  C   UNL     1      66.360   6.581   3.937  1.00  0.00     0.096 A 
HETATM    9  C   UNL     1      67.236   5.844   4.703  1.00  0.00     0.019 A 
HETATM   10  C   UNL     1      66.753   5.864   6.023  1.00  0.00     0.019 A 
HETATM   11  C   UNL     1      65.598   6.616   6.022  1.00  0.00     0.096 A 
ENDBRANCH   1   7
BRANCH   3  12
HETATM   12  C   UNL     1      61.556   7.972   1.622  1.00  0.00     0.268 C 
BRANCH  12  13
HETATM   13  N   UNL     1      60.417   8.862   1.437  1.00  0.00    -0.075 N 
HETATM   14  H   UNL     1      60.166   8.893   0.449  1.00  0.00     0.274 HD
HETATM   15  H   UNL     1      60.663   9.800   1.755  1.00  0.00     0.274 HD
HETATM   16  H   UNL     1      59.624   8.518   1.978  1.00  0.00     0.274 HD
ENDBRANCH  12  13
ENDBRANCH   3  12
TORSDOF 3
ENDMDL
MODEL 8
REMARK VINA RESULT:      -4.0      2.428      3.011
REMARK  3 active torsions:
REMARK  status: ('A' for Active; 'I' for Inactive)
REMARK    1  A    between atoms: N_1  and  C_2 
REMARK    2  A    between atoms: C_8  and  C_12 
REMARK    3  A    between atoms: N_9  and  C_12 
ROOT
HETATM    1  C   UNL     1      63.524   7.911   3.355  1.00  0.00     0.038 A 
HETATM    2  C   UNL     1      64.618   7.238   3.921  1.00  0.00     0.038 A 
HETATM    3  C   UNL     1      65.040   5.988   3.431  1.00  0.00    -0.031 A 
HETATM    4  C   UNL     1      62.863   7.321   2.267  1.00  0.00     0.030 A 
HETATM    5  C   UNL     1      63.286   6.088   1.764  1.00  0.00     0.003 A 
HETATM    6  C   UNL     1      64.364   5.422   2.345  1.00  0.00     0.009 A 
ENDROOT
BRANCH   1   7
HETATM    7  N   UNL     1      63.079   9.160   3.892  1.00  0.00    -0.333 N 
HETATM    8  C   UNL     1      62.220  10.064   3.288  1.00  0.00     0.096 A 
HETATM    9  C   UNL     1      62.006  11.131   4.134  1.00  0.00     0.019 A 
HETATM   10  C   UNL     1      62.760  10.898   5.297  1.00  0.00     0.019 A 
HETATM   11  C   UNL     1      63.409   9.695   5.127  1.00  0.00     0.096 A 
ENDBRANCH   1   7
BRANCH   3  12
HETATM   12  C   UNL     1      66.172   5.252   4.102  1.00  0.00     0.268 C 
BRANCH  12  13
HETATM   13  N   UNL     1      67.445   5.942   3.929  1.00  0.00    -0.075 N 
HETATM   14  H   UNL     1      67.591   6.144   2.940  1.00  0.00     0.274 HD
HETATM   15  H   UNL     1      68.202   5.348   4.269  1.00  0.00     0.274 HD
HETATM   16  H   UNL     1      67.434   6.814   4.457  1.00  0.00     0.274 HD
ENDBRANCH  12  13
ENDBRANCH   3  12
TORSDOF 3
ENDMDL
MODEL 9
REMARK VINA RESULT:      -4.0      2.336      6.178
REMARK  3 active torsions:
REMARK  status: ('A' for Active; 'I' for Inactive)
REMARK    1  A    between atoms: N_1  and  C_2 
REMARK    2  A    between atoms: C_8  and  C_12 
REMARK    3  A    between atoms: N_9  and  C_12 
ROOT
HETATM    1  C   UNL     1      65.308   6.901   6.640  1.00  0.00     0.038 A 
HETATM    2  C   UNL     1      63.985   6.441   6.543  1.00  0.00     0.038 A 
HETATM    3  C   UNL     1      63.055   7.067   5.691  1.00  0.00    -0.031 A 
HETATM    4  C   UNL     1      65.698   7.992   5.851  1.00  0.00     0.030 A 
HETATM    5  C   UNL     1      64.786   8.609   4.991  1.00  0.00     0.003 A 
HETATM    6  C   UNL     1      63.470   8.154   4.915  1.00  0.00     0.009 A 
ENDROOT
BRANCH   1   7
HETATM    7  N   UNL     1      66.230   6.282   7.543  1.00  0.00    -0.333 N 
HETATM    8  C   UNL     1      67.009   6.917   8.496  1.00  0.00     0.096 A 
HETATM    9  C   UNL     1      67.741   5.978   9.191  1.00  0.00     0.019 A 
HETATM   10  C   UNL     1      67.422   4.720   8.653  1.00  0.00     0.019 A 
HETATM   11  C   UNL     1      66.503   4.928   7.647  1.00  0.00     0.096 A 
ENDBRANCH   1   7
BRANCH   3  12
HETATM   12  C   UNL     1      61.622   6.600   5.659  1.00  0.00     0.268 C 
BRANCH  12  13
HETATM   13  N   UNL     1      60.928   7.060   4.463  1.00  0.00    -0.075 N 
HETATM   14  H   UNL     1      61.610   7.367   3.770  1.00  0.00     0.274 HD
HETATM   15  H   UNL     1      60.315   7.839   4.704  1.00  0.00     0.274 HD
HETATM   16  H   UNL     1      60.371   6.297   4.078  1.00  0.00     0.274 HD
ENDBRANCH  12  13
ENDBRANCH   3  12
TORSDOF 3
ENDMDL
