MODEL 1
REMARK VINA RESULT:      -5.8      0.000      0.000
REMARK  1 active torsions:
REMARK  status: ('A' for Active; 'I' for Inactive)
REMARK    1  A    between atoms: C_5  and  C_8 
ROOT
HETATM    1  N   UNL     1      65.113   8.396   5.780  1.00  0.00    -0.364 N 
ATOM      2  HN  UNL     1      65.558   9.275   5.518  1.00  0.00     0.165 HD
HETATM    3  N   UNL     1      66.519   4.675   8.500  1.00  0.00    -0.191 NA
HETATM    4  C   UNL     1      65.934   5.397   7.805  1.00  0.00     0.101 C 
HETATM    5  C   UNL     1      63.855   8.097   5.356  1.00  0.00     0.042 A 
HETATM    6  C   UNL     1      65.207   6.287   6.957  1.00  0.00     0.060 A 
HETATM    7  C   UNL     1      65.757   7.493   6.559  1.00  0.00     0.111 A 
HETATM    8  C   UNL     1      63.241   6.894   5.709  1.00  0.00     0.032 A 
HETATM    9  C   UNL     1      63.923   5.982   6.517  1.00  0.00     0.026 A 
ENDROOT
BRANCH   5  10
HETATM   10  C   UNL     1      63.175   9.135   4.553  1.00  0.00    -0.009 A 
HETATM   11  C   UNL     1      62.760   8.905   3.228  1.00  0.00     0.013 A 
HETATM   12  C   UNL     1      62.070   9.880   2.500  1.00  0.00     0.001 A 
HETATM   13  C   UNL     1      61.788  11.114   3.080  1.00  0.00     0.000 A 
HETATM   14  C   UNL     1      62.205  11.377   4.380  1.00  0.00     0.001 A 
HETATM   15  C   UNL     1      62.895  10.399   5.104  1.00  0.00     0.013 A 
ENDBRANCH   5  10
TORSDOF 1
ENDMDL
MODEL 2
REMARK VINA RESULT:      -5.8      0.964      1.931
REMARK  1 active torsions:
REMARK  status: ('A' for Active; 'I' for Inactive)
REMARK    1  A    between atoms: C_5  and  C_8 
ROOT
HETATM    1  N   UNL     1      62.948   7.331   5.526  1.00  0.00    -0.364 N 
ATOM      2  HN  UNL     1      61.950   7.235   5.340  1.00  0.00     0.165 HD
HETATM    3  N   UNL     1      66.029   4.885   8.309  1.00  0.00    -0.191 NA
HETATM    4  C   UNL     1      65.534   5.642   7.582  1.00  0.00     0.101 C 
HETATM    5  C   UNL     1      63.682   8.296   4.911  1.00  0.00     0.042 A 
HETATM    6  C   UNL     1      64.930   6.571   6.682  1.00  0.00     0.060 A 
HETATM    7  C   UNL     1      63.579   6.500   6.392  1.00  0.00     0.111 A 
HETATM    8  C   UNL     1      65.048   8.434   5.163  1.00  0.00     0.032 A 
HETATM    9  C   UNL     1      65.677   7.564   6.055  1.00  0.00     0.026 A 
ENDROOT
BRANCH   5  10
HETATM   10  C   UNL     1      62.961   9.142   3.937  1.00  0.00    -0.009 A 
HETATM   11  C   UNL     1      62.511  10.437   4.257  1.00  0.00     0.013 A 
HETATM   12  C   UNL     1      61.877  11.244   3.306  1.00  0.00     0.001 A 
HETATM   13  C   UNL     1      61.670  10.769   2.015  1.00  0.00     0.000 A 
HETATM   14  C   UNL     1      62.085   9.486   1.676  1.00  0.00     0.001 A 
HETATM   15  C   UNL     1      62.718   8.682   2.629  1.00  0.00     0.013 A 
ENDBRANCH   5  10
TORSDOF 1
ENDMDL
MODEL 3
REMARK VINA RESULT:      -5.5      1.184      1.675
REMARK  1 active torsions:
REMARK  status: ('A' for Active; 'I' for Inactive)
REMARK    1  A    between atoms: C_5  and  C_8 
ROOT
HETATM    1  N   UNL     1      64.273   7.227   6.474  1.00  0.00    -0.364 N 
ATOM      2  HN  UNL     1      63.266   7.090   6.562  1.00  0.00     0.165 HD
HETATM    3  N   UNL     1      68.070   5.236   8.675  1.00  0.00    -0.191 NA
HETATM    4  C   UNL     1      67.371   5.879   8.008  1.00  0.00     0.101 C 
HETATM    5  C   UNL     1      64.781   8.110   5.575  1.00  0.00     0.042 A 
HETATM    6  C   UNL     1      66.516   6.666   7.178  1.00  0.00     0.060 A 
HETATM    7  C   UNL     1      65.141   6.533   7.251  1.00  0.00     0.111 A 
HETATM    8  C   UNL     1      66.158   8.304   5.452  1.00  0.00     0.032 A 
HETATM    9  C   UNL     1      67.033   7.575   6.260  1.00  0.00     0.026 A 
ENDROOT
BRANCH   5  10
HETATM   10  C   UNL     1      63.798   8.803   4.715  1.00  0.00    -0.009 A 
HETATM   11  C   UNL     1      63.355   8.259   3.494  1.00  0.00     0.013 A 
HETATM   12  C   UNL     1      62.385   8.903   2.719  1.00  0.00     0.001 A 
HETATM   13  C   UNL     1      61.843  10.113   3.143  1.00  0.00     0.000 A 
HETATM   14  C   UNL     1      62.278  10.685   4.333  1.00  0.00     0.001 A 
HETATM   15  C   UNL     1      63.248  10.038   5.106  1.00  0.00     0.013 A 
ENDBRANCH   5  10
TORSDOF 1
ENDMDL
MODEL 4
REMARK VINA RESULT:      -4.8      2.058      6.235
REMARK  1 active torsions:
REMARK  status: ('A' for Active; 'I' for Inactive)
REMARK    1  A    between atoms: C_5  and  C_8 
ROOT
HETATM    1  N   UNL     1      63.942   7.272   6.576  1.00  0.00    -0.364 N 
ATOM      2  HN  UNL     1      63.794   7.244   7.584  1.00  0.00     0.165 HD
HETATM    3  N   UNL     1      61.241   8.810   2.894  1.00  0.00    -0.191 NA
HETATM    4  C   UNL     1      62.083   8.363   3.556  1.00  0.00     0.101 C 
HETATM    5  C   UNL     1      65.108   6.833   6.029  1.00  0.00     0.042 A 
HETATM    6  C   UNL     1      63.124   7.821   4.369  1.00  0.00     0.060 A 
HETATM    7  C   UNL     1      62.984   7.748   5.744  1.00  0.00     0.111 A 
HETATM    8  C   UNL     1      65.315   6.866   4.650  1.00  0.00     0.032 A 
HETATM    9  C   UNL     1      64.315   7.365   3.812  1.00  0.00     0.026 A 
ENDROOT
BRANCH   5  10
HETATM   10  C   UNL     1      66.141   6.372   6.981  1.00  0.00    -0.009 A 
HETATM   11  C   UNL     1      66.205   6.845   8.305  1.00  0.00     0.013 A 
HETATM   12  C   UNL     1      67.157   6.359   9.207  1.00  0.00     0.001 A 
HETATM   13  C   UNL     1      68.075   5.396   8.801  1.00  0.00     0.000 A 
HETATM   14  C   UNL     1      68.050   4.926   7.493  1.00  0.00     0.001 A 
HETATM   15  C   UNL     1      67.096   5.414   6.593  1.00  0.00     0.013 A 
ENDBRANCH   5  10
TORSDOF 1
ENDMDL
MODEL 5
REMARK VINA RESULT:      -4.6      3.526      4.806
REMARK  1 active torsions:
REMARK  status: ('A' for Active; 'I' for Inactive)
REMARK    1  A    between atoms: C_5  and  C_8 
ROOT
HETATM    1  N   UNL     1      61.256   7.146   4.543  1.00  0.00    -0.364 N 
ATOM      2  HN  UNL     1      60.741   6.317   4.839  1.00  0.00     0.165 HD
HETATM    3  N   UNL     1      65.577   8.930   5.712  1.00  0.00    -0.191 NA
HETATM    4  C   UNL     1      64.523   8.752   5.260  1.00  0.00     0.101 C 
HETATM    5  C   UNL     1      60.736   7.996   3.617  1.00  0.00     0.042 A 
HETATM    6  C   UNL     1      63.230   8.532   4.696  1.00  0.00     0.060 A 
HETATM    7  C   UNL     1      62.476   7.430   5.060  1.00  0.00     0.111 A 
HETATM    8  C   UNL     1      61.435   9.134   3.210  1.00  0.00     0.032 A 
HETATM    9  C   UNL     1      62.693   9.403   3.753  1.00  0.00     0.026 A 
ENDROOT
BRANCH   5  10
HETATM   10  C   UNL     1      59.428   7.616   3.045  1.00  0.00    -0.009 A 
HETATM   11  C   UNL     1      59.238   7.439   1.661  1.00  0.00     0.013 A 
HETATM   12  C   UNL     1      58.006   7.028   1.141  1.00  0.00     0.001 A 
HETATM   13  C   UNL     1      56.932   6.793   1.995  1.00  0.00     0.000 A 
HETATM   14  C   UNL     1      57.084   6.981   3.364  1.00  0.00     0.001 A 
HETATM   15  C   UNL     1      58.317   7.393   3.880  1.00  0.00     0.013 A 
ENDBRANCH   5  10
TORSDOF 1
ENDMDL
MODEL 6
REMARK VINA RESULT:      -4.6      1.904      2.697
REMARK  1 active torsions:
REMARK  status: ('A' for Active; 'I' for Inactive)
REMARK    1  A    between atoms: C_5  and  C_8 
ROOT
HETATM    1  N   UNL     1      62.689   6.592   5.070  1.00  0.00    -0.364 N 
ATOM      2  HN  UNL     1      61.841   6.049   4.915  1.00  0.00     0.165 HD
HETATM    3  N   UNL     1      66.214   6.328   8.346  1.00  0.00    -0.191 NA
HETATM    4  C   UNL     1      65.525   6.632   7.463  1.00  0.00     0.101 C 
HETATM    5  C   UNL     1      63.021   7.620   4.244  1.00  0.00     0.042 A 
HETATM    6  C   UNL     1      64.685   7.004   6.369  1.00  0.00     0.060 A 
HETATM    7  C   UNL     1      63.517   6.311   6.107  1.00  0.00     0.111 A 
HETATM    8  C   UNL     1      64.179   8.370   4.454  1.00  0.00     0.032 A 
HETATM    9  C   UNL     1      65.019   8.058   5.525  1.00  0.00     0.026 A 
ENDROOT
BRANCH   5  10
HETATM   10  C   UNL     1      62.116   7.854   3.099  1.00  0.00    -0.009 A 
HETATM   11  C   UNL     1      60.793   7.374   3.079  1.00  0.00     0.013 A 
HETATM   12  C   UNL     1      59.933   7.650   2.010  1.00  0.00     0.001 A 
HETATM   13  C   UNL     1      60.382   8.404   0.931  1.00  0.00     0.000 A 
HETATM   14  C   UNL     1      61.692   8.873   0.913  1.00  0.00     0.001 A 
HETATM   15  C   UNL     1      62.548   8.595   1.983  1.00  0.00     0.013 A 
ENDBRANCH   5  10
TORSDOF 1
ENDMDL
MODEL 7
REMARK VINA RESULT:      -4.5      1.536      1.698
REMARK  1 active torsions:
REMARK  status: ('A' for Active; 'I' for Inactive)
REMARK    1  A    between atoms: C_5  and  C_8 
ROOT
HETATM    1  N   UNL     1      63.842   6.419   3.884  1.00  0.00    -0.364 N 
ATOM      2  HN  UNL     1      63.482   6.462   2.931  1.00  0.00     0.165 HD
HETATM    3  N   UNL     1      66.157   3.005   6.376  1.00  0.00    -0.191 NA
HETATM    4  C   UNL     1      65.618   3.977   6.040  1.00  0.00     0.101 C 
HETATM    5  C   UNL     1      63.725   7.482   4.724  1.00  0.00     0.042 A 
HETATM    6  C   UNL     1      64.964   5.177   5.628  1.00  0.00     0.060 A 
HETATM    7  C   UNL     1      64.448   5.299   4.350  1.00  0.00     0.111 A 
HETATM    8  C   UNL     1      64.212   7.428   6.030  1.00  0.00     0.032 A 
HETATM    9  C   UNL     1      64.838   6.265   6.486  1.00  0.00     0.026 A 
ENDROOT
BRANCH   5  10
HETATM   10  C   UNL     1      63.104   8.697   4.154  1.00  0.00    -0.009 A 
HETATM   11  C   UNL     1      62.599   8.735   2.841  1.00  0.00     0.013 A 
HETATM   12  C   UNL     1      61.967   9.877   2.336  1.00  0.00     0.001 A 
HETATM   13  C   UNL     1      61.834  11.010   3.132  1.00  0.00     0.000 A 
HETATM   14  C   UNL     1      62.343  11.009   4.426  1.00  0.00     0.001 A 
HETATM   15  C   UNL     1      62.975   9.866   4.928  1.00  0.00     0.013 A 
ENDBRANCH   5  10
TORSDOF 1
ENDMDL
MODEL 8
REMARK VINA RESULT:      -4.5      4.762      5.835
REMARK  1 active torsions:
REMARK  status: ('A' for Active; 'I' for Inactive)
REMARK    1  A    between atoms: C_5  and  C_8 
ROOT
HETATM    1  N   UNL     1      59.915   6.520   4.885  1.00  0.00    -0.364 N 
ATOM      2  HN  UNL     1      60.906   6.290   4.824  1.00  0.00     0.165 HD
HETATM    3  N   UNL     1      56.450   5.348   8.022  1.00  0.00    -0.191 NA
HETATM    4  C   UNL     1      57.055   5.773   7.127  1.00  0.00     0.101 C 
HETATM    5  C   UNL     1      59.328   7.330   3.963  1.00  0.00     0.042 A 
HETATM    6  C   UNL     1      57.797   6.304   6.029  1.00  0.00     0.060 A 
HETATM    7  C   UNL     1      59.145   6.026   5.885  1.00  0.00     0.111 A 
HETATM    8  C   UNL     1      57.971   7.645   4.038  1.00  0.00     0.032 A 
HETATM    9  C   UNL     1      57.199   7.128   5.081  1.00  0.00     0.026 A 
ENDROOT
BRANCH   5  10
HETATM   10  C   UNL     1      60.219   7.885   2.922  1.00  0.00    -0.009 A 
HETATM   11  C   UNL     1      60.058   7.581   1.557  1.00  0.00     0.013 A 
HETATM   12  C   UNL     1      60.878   8.158   0.581  1.00  0.00     0.001 A 
HETATM   13  C   UNL     1      61.885   9.044   0.950  1.00  0.00     0.000 A 
HETATM   14  C   UNL     1      62.082   9.345   2.293  1.00  0.00     0.001 A 
HETATM   15  C   UNL     1      61.261   8.767   3.267  1.00  0.00     0.013 A 
ENDBRANCH   5  10
TORSDOF 1
ENDMDL
MODEL 9
REMARK VINA RESULT:      -4.4      2.542      3.078
REMARK  1 active torsions:
REMARK  status: ('A' for Active; 'I' for Inactive)
REMARK    1  A    between atoms: C_5  and  C_8 
ROOT
HETATM    1  N   UNL     1      62.378   6.249   3.875  1.00  0.00    -0.364 N 
ATOM      2  HN  UNL     1      61.378   6.440   3.817  1.00  0.00     0.165 HD
HETATM    3  N   UNL     1      64.920   2.245   4.727  1.00  0.00    -0.191 NA
HETATM    4  C   UNL     1      64.584   3.336   4.514  1.00  0.00     0.101 C 
HETATM    5  C   UNL     1      63.290   7.237   3.672  1.00  0.00     0.042 A 
HETATM    6  C   UNL     1      64.176   4.677   4.243  1.00  0.00     0.060 A 
HETATM    7  C   UNL     1      62.834   5.004   4.157  1.00  0.00     0.111 A 
HETATM    8  C   UNL     1      64.660   6.983   3.754  1.00  0.00     0.032 A 
HETATM    9  C   UNL     1      65.106   5.691   4.041  1.00  0.00     0.026 A 
ENDROOT
BRANCH   5  10
HETATM   10  C   UNL     1      62.745   8.564   3.316  1.00  0.00    -0.009 A 
HETATM   11  C   UNL     1      62.602   9.595   4.264  1.00  0.00     0.013 A 
HETATM   12  C   UNL     1      62.134  10.862   3.899  1.00  0.00     0.001 A 
HETATM   13  C   UNL     1      61.788  11.123   2.577  1.00  0.00     0.000 A 
HETATM   14  C   UNL     1      61.897  10.117   1.623  1.00  0.00     0.001 A 
HETATM   15  C   UNL     1      62.366   8.852   1.992  1.00  0.00     0.013 A 
ENDBRANCH   5  10
TORSDOF 1
ENDMDL
