MODEL 1
REMARK VINA RESULT:      -5.5      0.000      0.000
REMARK  3 active torsions:
REMARK  status: ('A' for Active; 'I' for Inactive)
REMARK    1  A    between atoms: C_3  and  C_6 
REMARK    2  A    between atoms: C_4  and  C_10 
REMARK    3  A    between atoms: O_9  and  C_10 
ROOT
HETATM    1  N   UNL     1      64.548   7.376   6.601  1.00  0.00    -0.365 N 
ATOM      2  HN  UNL     1      63.574   7.376   6.901  1.00  0.00     0.165 HD
HETATM    3  C   UNL     1      64.938   8.059   5.494  1.00  0.00     0.042 A 
HETATM    4  C   UNL     1      66.830   6.639   6.935  1.00  0.00    -0.019 A 
HETATM    5  C   UNL     1      65.491   6.697   7.293  1.00  0.00     0.097 A 
HETATM    6  C   UNL     1      66.269   8.072   5.079  1.00  0.00     0.031 A 
HETATM    7  C   UNL     1      67.219   7.357   5.808  1.00  0.00     0.013 A 
ENDROOT
BRANCH   3   8
HETATM    8  C   UNL     1      63.866   8.743   4.743  1.00  0.00    -0.009 A 
HETATM    9  C   UNL     1      63.319   9.967   5.171  1.00  0.00     0.013 A 
HETATM   10  C   UNL     1      62.330  10.622   4.434  1.00  0.00     0.001 A 
HETATM   11  C   UNL     1      61.858  10.059   3.251  1.00  0.00     0.000 A 
HETATM   12  C   UNL     1      62.369   8.844   2.809  1.00  0.00     0.001 A 
HETATM   13  C   UNL     1      63.361   8.193   3.550  1.00  0.00     0.013 A 
ENDBRANCH   3   8
BRANCH   4  14
HETATM   14  C   UNL     1      67.812   5.831   7.725  1.00  0.00     0.204 C 
BRANCH  14  15
HETATM   15  O   UNL     1      68.075   6.454   8.975  1.00  0.00    -0.396 OA
HETATM   16  H   UNL     1      67.739   5.896   9.692  1.00  0.00     0.209 HD
ENDBRANCH  14  15
ENDBRANCH   4  14
TORSDOF 3
ENDMDL
MODEL 2
REMARK VINA RESULT:      -5.1      2.786      5.872
REMARK  3 active torsions:
REMARK  status: ('A' for Active; 'I' for Inactive)
REMARK    1  A    between atoms: C_3  and  C_6 
REMARK    2  A    between atoms: C_4  and  C_10 
REMARK    3  A    between atoms: O_9  and  C_10 
ROOT
HETATM    1  N   UNL     1      64.262   9.094   5.678  1.00  0.00    -0.365 N 
ATOM      2  HN  UNL     1      64.719   9.340   6.556  1.00  0.00     0.165 HD
HETATM    3  C   UNL     1      64.553   7.931   5.041  1.00  0.00     0.042 A 
HETATM    4  C   UNL     1      62.699   9.656   3.917  1.00  0.00    -0.019 A 
HETATM    5  C   UNL     1      63.348   9.917   5.115  1.00  0.00     0.097 A 
HETATM    6  C   UNL     1      63.928   7.582   3.844  1.00  0.00     0.031 A 
HETATM    7  C   UNL     1      62.994   8.452   3.282  1.00  0.00     0.013 A 
ENDROOT
BRANCH   3   8
HETATM    8  C   UNL     1      65.592   7.091   5.668  1.00  0.00    -0.009 A 
HETATM    9  C   UNL     1      66.615   6.483   4.916  1.00  0.00     0.013 A 
HETATM   10  C   UNL     1      67.612   5.718   5.526  1.00  0.00     0.001 A 
HETATM   11  C   UNL     1      67.604   5.538   6.906  1.00  0.00     0.000 A 
HETATM   12  C   UNL     1      66.599   6.116   7.674  1.00  0.00     0.001 A 
HETATM   13  C   UNL     1      65.603   6.881   7.060  1.00  0.00     0.013 A 
ENDBRANCH   3   8
BRANCH   4  14
HETATM   14  C   UNL     1      61.729  10.633   3.328  1.00  0.00     0.204 C 
BRANCH  14  15
HETATM   15  O   UNL     1      61.959  11.935   3.851  1.00  0.00    -0.396 OA
HETATM   16  H   UNL     1      61.285  12.543   3.513  1.00  0.00     0.209 HD
ENDBRANCH  14  15
ENDBRANCH   4  14
TORSDOF 3
ENDMDL
MODEL 3
REMARK VINA RESULT:      -5.0      2.773      5.801
REMARK  3 active torsions:
REMARK  status: ('A' for Active; 'I' for Inactive)
REMARK    1  A    between atoms: C_3  and  C_6 
REMARK    2  A    between atoms: C_4  and  C_10 
REMARK    3  A    between atoms: O_9  and  C_10 
ROOT
HETATM    1  N   UNL     1      64.207   8.710   5.715  1.00  0.00    -0.365 N 
ATOM      2  HN  UNL     1      64.507   9.030   6.636  1.00  0.00     0.165 HD
HETATM    3  C   UNL     1      64.680   7.550   5.191  1.00  0.00     0.042 A 
HETATM    4  C   UNL     1      62.889   9.064   3.715  1.00  0.00    -0.019 A 
HETATM    5  C   UNL     1      63.328   9.428   4.980  1.00  0.00     0.097 A 
HETATM    6  C   UNL     1      64.271   7.099   3.936  1.00  0.00     0.031 A 
HETATM    7  C   UNL     1      63.368   7.863   3.197  1.00  0.00     0.013 A 
ENDROOT
BRANCH   3   8
HETATM    8  C   UNL     1      65.674   6.827   6.009  1.00  0.00    -0.009 A 
HETATM    9  C   UNL     1      65.584   6.764   7.412  1.00  0.00     0.013 A 
HETATM   10  C   UNL     1      66.512   6.048   8.171  1.00  0.00     0.001 A 
HETATM   11  C   UNL     1      67.561   5.383   7.541  1.00  0.00     0.000 A 
HETATM   12  C   UNL     1      67.684   5.437   6.157  1.00  0.00     0.001 A 
HETATM   13  C   UNL     1      66.751   6.154   5.401  1.00  0.00     0.013 A 
ENDBRANCH   3   8
BRANCH   4  14
HETATM   14  C   UNL     1      61.947   9.929   2.939  1.00  0.00     0.204 C 
BRANCH  14  15
HETATM   15  O   UNL     1      61.239  10.798   3.813  1.00  0.00    -0.396 OA
HETATM   16  H   UNL     1      60.287  10.634   3.733  1.00  0.00     0.209 HD
ENDBRANCH  14  15
ENDBRANCH   4  14
TORSDOF 3
ENDMDL
MODEL 4
REMARK VINA RESULT:      -4.9      1.512      2.359
REMARK  3 active torsions:
REMARK  status: ('A' for Active; 'I' for Inactive)
REMARK    1  A    between atoms: C_3  and  C_6 
REMARK    2  A    between atoms: C_4  and  C_10 
REMARK    3  A    between atoms: O_9  and  C_10 
ROOT
HETATM    1  N   UNL     1      65.110   8.210   5.215  1.00  0.00    -0.365 N 
ATOM      2  HN  UNL     1      65.494   9.051   4.785  1.00  0.00     0.165 HD
HETATM    3  C   UNL     1      63.902   7.719   4.836  1.00  0.00     0.042 A 
HETATM    4  C   UNL     1      65.324   6.411   6.822  1.00  0.00    -0.019 A 
HETATM    5  C   UNL     1      65.789   7.550   6.181  1.00  0.00     0.097 A 
HETATM    6  C   UNL     1      63.373   6.565   5.413  1.00  0.00     0.031 A 
HETATM    7  C   UNL     1      64.092   5.908   6.411  1.00  0.00     0.013 A 
ENDROOT
BRANCH   3   8
HETATM    8  C   UNL     1      63.177   8.501   3.815  1.00  0.00    -0.009 A 
HETATM    9  C   UNL     1      62.991   8.027   2.503  1.00  0.00     0.013 A 
HETATM   10  C   UNL     1      62.273   8.761   1.557  1.00  0.00     0.001 A 
HETATM   11  C   UNL     1      61.729   9.995   1.902  1.00  0.00     0.000 A 
HETATM   12  C   UNL     1      61.907  10.497   3.186  1.00  0.00     0.001 A 
HETATM   13  C   UNL     1      62.625   9.757   4.131  1.00  0.00     0.013 A 
ENDBRANCH   3   8
BRANCH   4  14
HETATM   14  C   UNL     1      66.110   5.756   7.914  1.00  0.00     0.204 C 
BRANCH  14  15
HETATM   15  O   UNL     1      65.706   4.402   8.072  1.00  0.00    -0.396 OA
HETATM   16  H   UNL     1      64.991   4.352   8.725  1.00  0.00     0.209 HD
ENDBRANCH  14  15
ENDBRANCH   4  14
TORSDOF 3
ENDMDL
MODEL 5
REMARK VINA RESULT:      -4.8      2.248      2.554
REMARK  3 active torsions:
REMARK  status: ('A' for Active; 'I' for Inactive)
REMARK    1  A    between atoms: C_3  and  C_6 
REMARK    2  A    between atoms: C_4  and  C_10 
REMARK    3  A    between atoms: O_9  and  C_10 
ROOT
HETATM    1  N   UNL     1      64.055   6.977   3.662  1.00  0.00    -0.365 N 
ATOM      2  HN  UNL     1      64.167   7.111   2.657  1.00  0.00     0.165 HD
HETATM    3  C   UNL     1      63.321   7.845   4.405  1.00  0.00     0.042 A 
HETATM    4  C   UNL     1      64.537   5.692   5.657  1.00  0.00    -0.019 A 
HETATM    5  C   UNL     1      64.632   5.930   4.293  1.00  0.00     0.097 A 
HETATM    6  C   UNL     1      63.155   7.665   5.779  1.00  0.00     0.031 A 
HETATM    7  C   UNL     1      63.767   6.580   6.405  1.00  0.00     0.013 A 
ENDROOT
BRANCH   3   8
HETATM    8  C   UNL     1      62.753   8.999   3.681  1.00  0.00    -0.009 A 
HETATM    9  C   UNL     1      62.462  10.216   4.326  1.00  0.00     0.013 A 
HETATM   10  C   UNL     1      61.957  11.311   3.622  1.00  0.00     0.001 A 
HETATM   11  C   UNL     1      61.723  11.211   2.253  1.00  0.00     0.000 A 
HETATM   12  C   UNL     1      61.989  10.018   1.591  1.00  0.00     0.001 A 
HETATM   13  C   UNL     1      62.496   8.924   2.299  1.00  0.00     0.013 A 
ENDBRANCH   3   8
BRANCH   4  14
HETATM   14  C   UNL     1      65.238   4.535   6.297  1.00  0.00     0.204 C 
BRANCH  14  15
HETATM   15  O   UNL     1      65.171   4.638   7.713  1.00  0.00    -0.396 OA
HETATM   16  H   UNL     1      64.255   4.515   8.003  1.00  0.00     0.209 HD
ENDBRANCH  14  15
ENDBRANCH   4  14
TORSDOF 3
ENDMDL
MODEL 6
REMARK VINA RESULT:      -4.7      1.502      2.027
REMARK  3 active torsions:
REMARK  status: ('A' for Active; 'I' for Inactive)
REMARK    1  A    between atoms: C_3  and  C_6 
REMARK    2  A    between atoms: C_4  and  C_10 
REMARK    3  A    between atoms: O_9  and  C_10 
ROOT
HETATM    1  N   UNL     1      64.033   6.361   4.559  1.00  0.00    -0.365 N 
ATOM      2  HN  UNL     1      63.463   5.690   4.043  1.00  0.00     0.165 HD
HETATM    3  C   UNL     1      64.017   7.680   4.241  1.00  0.00     0.042 A 
HETATM    4  C   UNL     1      65.637   6.813   6.314  1.00  0.00    -0.019 A 
HETATM    5  C   UNL     1      64.825   5.962   5.579  1.00  0.00     0.097 A 
HETATM    6  C   UNL     1      64.786   8.607   4.945  1.00  0.00     0.031 A 
HETATM    7  C   UNL     1      65.599   8.167   5.990  1.00  0.00     0.013 A 
ENDROOT
BRANCH   3   8
HETATM    8  C   UNL     1      63.176   8.060   3.089  1.00  0.00    -0.009 A 
HETATM    9  C   UNL     1      62.516   9.301   3.022  1.00  0.00     0.013 A 
HETATM   10  C   UNL     1      61.751   9.662   1.910  1.00  0.00     0.001 A 
HETATM   11  C   UNL     1      61.623   8.782   0.840  1.00  0.00     0.000 A 
HETATM   12  C   UNL     1      62.252   7.543   0.882  1.00  0.00     0.001 A 
HETATM   13  C   UNL     1      63.018   7.186   1.996  1.00  0.00     0.013 A 
ENDBRANCH   3   8
BRANCH   4  14
HETATM   14  C   UNL     1      66.523   6.296   7.404  1.00  0.00     0.204 C 
BRANCH  14  15
HETATM   15  O   UNL     1      67.267   7.359   7.984  1.00  0.00    -0.396 OA
HETATM   16  H   UNL     1      67.899   7.001   8.626  1.00  0.00     0.209 HD
ENDBRANCH  14  15
ENDBRANCH   4  14
TORSDOF 3
ENDMDL
MODEL 7
REMARK VINA RESULT:      -4.2      4.128      5.568
REMARK  3 active torsions:
REMARK  status: ('A' for Active; 'I' for Inactive)
REMARK    1  A    between atoms: C_3  and  C_6 
REMARK    2  A    between atoms: C_4  and  C_10 
REMARK    3  A    between atoms: O_9  and  C_10 
ROOT
HETATM    1  N   UNL     1      60.833   9.253   3.419  1.00  0.00    -0.365 N 
ATOM      2  HN  UNL     1      60.216   9.878   2.902  1.00  0.00     0.165 HD
HETATM    3  C   UNL     1      60.495   7.955   3.631  1.00  0.00     0.042 A 
HETATM    4  C   UNL     1      62.894   8.904   4.641  1.00  0.00    -0.019 A 
HETATM    5  C   UNL     1      62.012   9.692   3.915  1.00  0.00     0.097 A 
HETATM    6  C   UNL     1      61.337   7.090   4.331  1.00  0.00     0.031 A 
HETATM    7  C   UNL     1      62.544   7.571   4.836  1.00  0.00     0.013 A 
ENDROOT
BRANCH   3   8
HETATM    8  C   UNL     1      59.177   7.535   3.115  1.00  0.00    -0.009 A 
HETATM    9  C   UNL     1      58.090   7.271   3.970  1.00  0.00     0.013 A 
HETATM   10  C   UNL     1      56.839   6.909   3.467  1.00  0.00     0.001 A 
HETATM   11  C   UNL     1      56.648   6.795   2.092  1.00  0.00     0.000 A 
HETATM   12  C   UNL     1      57.706   7.037   1.224  1.00  0.00     0.001 A 
HETATM   13  C   UNL     1      58.957   7.401   1.731  1.00  0.00     0.013 A 
ENDBRANCH   3   8
BRANCH   4  14
HETATM   14  C   UNL     1      64.164   9.468   5.197  1.00  0.00     0.204 C 
BRANCH  14  15
HETATM   15  O   UNL     1      63.942  10.775   5.712  1.00  0.00    -0.396 OA
HETATM   16  H   UNL     1      63.297  11.237   5.154  1.00  0.00     0.209 HD
ENDBRANCH  14  15
ENDBRANCH   4  14
TORSDOF 3
ENDMDL
MODEL 8
REMARK VINA RESULT:      -4.2      2.682      6.003
REMARK  3 active torsions:
REMARK  status: ('A' for Active; 'I' for Inactive)
REMARK    1  A    between atoms: C_3  and  C_6 
REMARK    2  A    between atoms: C_4  and  C_10 
REMARK    3  A    between atoms: O_9  and  C_10 
ROOT
HETATM    1  N   UNL     1      64.183   6.103   6.107  1.00  0.00    -0.365 N 
ATOM      2  HN  UNL     1      64.023   5.173   6.495  1.00  0.00     0.165 HD
HETATM    3  C   UNL     1      65.331   6.780   6.364  1.00  0.00     0.042 A 
HETATM    4  C   UNL     1      63.396   7.964   4.774  1.00  0.00    -0.019 A 
HETATM    5  C   UNL     1      63.256   6.698   5.322  1.00  0.00     0.097 A 
HETATM    6  C   UNL     1      65.562   8.049   5.833  1.00  0.00     0.031 A 
HETATM    7  C   UNL     1      64.586   8.641   5.031  1.00  0.00     0.013 A 
ENDROOT
BRANCH   3   8
HETATM    8  C   UNL     1      66.290   6.112   7.267  1.00  0.00    -0.009 A 
HETATM    9  C   UNL     1      66.915   6.792   8.329  1.00  0.00     0.013 A 
HETATM   10  C   UNL     1      67.793   6.139   9.196  1.00  0.00     0.001 A 
HETATM   11  C   UNL     1      68.073   4.787   9.015  1.00  0.00     0.000 A 
HETATM   12  C   UNL     1      67.480   4.091   7.968  1.00  0.00     0.001 A 
HETATM   13  C   UNL     1      66.601   4.749   7.102  1.00  0.00     0.013 A 
ENDBRANCH   3   8
BRANCH   4  14
HETATM   14  C   UNL     1      62.310   8.579   3.948  1.00  0.00     0.204 C 
BRANCH  14  15
HETATM   15  O   UNL     1      61.444   7.573   3.440  1.00  0.00    -0.396 OA
HETATM   16  H   UNL     1      60.952   7.922   2.681  1.00  0.00     0.209 HD
ENDBRANCH  14  15
ENDBRANCH   4  14
TORSDOF 3
ENDMDL
MODEL 9
REMARK VINA RESULT:      -4.1      3.389      5.970
REMARK  3 active torsions:
REMARK  status: ('A' for Active; 'I' for Inactive)
REMARK    1  A    between atoms: C_3  and  C_6 
REMARK    2  A    between atoms: C_4  and  C_10 
REMARK    3  A    between atoms: O_9  and  C_10 
ROOT
HETATM    1  N   UNL     1      62.324   6.703   5.141  1.00  0.00    -0.365 N 
ATOM      2  HN  UNL     1      62.353   6.095   5.959  1.00  0.00     0.165 HD
HETATM    3  C   UNL     1      63.396   7.460   4.794  1.00  0.00     0.042 A 
HETATM    4  C   UNL     1      61.096   7.596   3.255  1.00  0.00    -0.019 A 
HETATM    5  C   UNL     1      61.215   6.781   4.371  1.00  0.00     0.097 A 
HETATM    6  C   UNL     1      63.368   8.289   3.672  1.00  0.00     0.031 A 
HETATM    7  C   UNL     1      62.209   8.354   2.899  1.00  0.00     0.013 A 
ENDROOT
BRANCH   3   8
HETATM    8  C   UNL     1      64.564   7.380   5.693  1.00  0.00    -0.009 A 
HETATM    9  C   UNL     1      65.675   8.234   5.552  1.00  0.00     0.013 A 
HETATM   10  C   UNL     1      66.758   8.171   6.431  1.00  0.00     0.001 A 
HETATM   11  C   UNL     1      66.759   7.244   7.469  1.00  0.00     0.000 A 
HETATM   12  C   UNL     1      65.682   6.378   7.626  1.00  0.00     0.001 A 
HETATM   13  C   UNL     1      64.599   6.446   6.745  1.00  0.00     0.013 A 
ENDBRANCH   3   8
BRANCH   4  14
HETATM   14  C   UNL     1      59.822   7.664   2.473  1.00  0.00     0.204 C 
BRANCH  14  15
HETATM   15  O   UNL     1      59.920   8.649   1.452  1.00  0.00    -0.396 OA
HETATM   16  H   UNL     1      60.850   8.767   1.205  1.00  0.00     0.209 HD
ENDBRANCH  14  15
ENDBRANCH   4  14
TORSDOF 3
ENDMDL
