MODEL 1
REMARK VINA RESULT:      -4.7      0.000      0.000
REMARK  2 active torsions:
REMARK  status: ('A' for Active; 'I' for Inactive)
REMARK    1  A    between atoms: C_5  and  C_11 
REMARK    2  A    between atoms: C_11  and  O_13 
ROOT
HETATM    1  N   UNL     1      62.653   9.803   3.736  1.00  0.00    -0.308 N 
HETATM    2  N   UNL     1      63.426   7.705   3.878  1.00  0.00    -0.344 N 
ATOM      3  HN  UNL     1      63.683   6.745   3.647  1.00  0.00     0.167 HD
HETATM    4  C   UNL     1      62.851   8.586   3.088  1.00  0.00     0.112 A 
HETATM    5  C   UNL     1      63.146   9.651   5.018  1.00  0.00     0.063 A 
HETATM    6  C   UNL     1      63.609   8.346   5.078  1.00  0.00     0.032 A 
HETATM    7  C   UNL     1      62.062  10.905   3.115  1.00  0.00     0.099 A 
HETATM    8  C   UNL     1      62.420   8.487   1.733  1.00  0.00     0.049 A 
HETATM    9  C   UNL     1      61.661  10.809   1.837  1.00  0.00     0.018 A 
HETATM   10  C   UNL     1      61.850   9.549   1.132  1.00  0.00     0.005 A 
HETATM   11  C   UNL     1      64.219   7.636   6.224  1.00  0.00     0.070 C 
ENDROOT
BRANCH   5  12
HETATM   12  C   UNL     1      63.111  10.700   6.058  1.00  0.00     0.223 C 
BRANCH  12  13
HETATM   13  O   UNL     1      64.421  11.229   6.182  1.00  0.00    -0.395 OA
HETATM   14  H   UNL     1      65.052  10.502   6.302  1.00  0.00     0.209 HD
ENDBRANCH  12  13
ENDBRANCH   5  12
TORSDOF 2
ENDMDL
MODEL 2
REMARK VINA RESULT:      -4.6      1.296      2.661
REMARK  2 active torsions:
REMARK  status: ('A' for Active; 'I' for Inactive)
REMARK    1  A    between atoms: C_5  and  C_11 
REMARK    2  A    between atoms: C_11  and  O_13 
ROOT
HETATM    1  N   UNL     1      62.801   8.565   3.053  1.00  0.00    -0.308 N 
HETATM    2  N   UNL     1      61.856  10.595   3.149  1.00  0.00    -0.344 N 
ATOM      3  HN  UNL     1      61.331  11.437   2.908  1.00  0.00     0.167 HD
HETATM    4  C   UNL     1      62.033   9.528   2.400  1.00  0.00     0.112 A 
HETATM    5  C   UNL     1      63.113   9.087   4.294  1.00  0.00     0.063 A 
HETATM    6  C   UNL     1      62.523  10.342   4.321  1.00  0.00     0.032 A 
HETATM    7  C   UNL     1      63.130   7.338   2.475  1.00  0.00     0.099 A 
HETATM    8  C   UNL     1      61.580   9.222   1.084  1.00  0.00     0.049 A 
HETATM    9  C   UNL     1      62.698   7.053   1.235  1.00  0.00     0.018 A 
HETATM   10  C   UNL     1      61.897   8.040   0.524  1.00  0.00     0.005 A 
HETATM   11  C   UNL     1      62.556  11.353   5.402  1.00  0.00     0.070 C 
ENDROOT
BRANCH   5  12
HETATM   12  C   UNL     1      63.942   8.401   5.306  1.00  0.00     0.223 C 
BRANCH  12  13
HETATM   13  O   UNL     1      65.102   9.188   5.519  1.00  0.00    -0.395 OA
HETATM   14  H   UNL     1      65.876   8.728   5.156  1.00  0.00     0.209 HD
ENDBRANCH  12  13
ENDBRANCH   5  12
TORSDOF 2
ENDMDL
MODEL 3
REMARK VINA RESULT:      -4.5      1.820      2.570
REMARK  2 active torsions:
REMARK  status: ('A' for Active; 'I' for Inactive)
REMARK    1  A    between atoms: C_5  and  C_11 
REMARK    2  A    between atoms: C_11  and  O_13 
ROOT
HETATM    1  N   UNL     1      63.360   9.017   4.393  1.00  0.00    -0.308 N 
HETATM    2  N   UNL     1      63.145   7.726   2.574  1.00  0.00    -0.344 N 
ATOM      3  HN  UNL     1      62.881   7.383   1.650  1.00  0.00     0.167 HD
HETATM    4  C   UNL     1      62.817   8.878   3.117  1.00  0.00     0.112 A 
HETATM    5  C   UNL     1      64.074   7.861   4.644  1.00  0.00     0.063 A 
HETATM    6  C   UNL     1      63.917   7.082   3.508  1.00  0.00     0.032 A 
HETATM    7  C   UNL     1      63.161  10.152   5.182  1.00  0.00     0.099 A 
HETATM    8  C   UNL     1      62.027   9.956   2.621  1.00  0.00     0.049 A 
HETATM    9  C   UNL     1      62.418  11.166   4.709  1.00  0.00     0.018 A 
HETATM   10  C   UNL     1      61.833  11.051   3.381  1.00  0.00     0.005 A 
HETATM   11  C   UNL     1      64.451   5.728   3.238  1.00  0.00     0.070 C 
ENDROOT
BRANCH   5  12
HETATM   12  C   UNL     1      64.793   7.578   5.904  1.00  0.00     0.223 C 
BRANCH  12  13
HETATM   13  O   UNL     1      63.826   7.229   6.882  1.00  0.00    -0.395 OA
HETATM   14  H   UNL     1      63.922   6.290   7.109  1.00  0.00     0.209 HD
ENDBRANCH  12  13
ENDBRANCH   5  12
TORSDOF 2
ENDMDL
MODEL 4
REMARK VINA RESULT:      -4.3      2.232      3.022
REMARK  2 active torsions:
REMARK  status: ('A' for Active; 'I' for Inactive)
REMARK    1  A    between atoms: C_5  and  C_11 
REMARK    2  A    between atoms: C_11  and  O_13 
ROOT
HETATM    1  N   UNL     1      62.815   8.798   3.380  1.00  0.00    -0.308 N 
HETATM    2  N   UNL     1      63.135   9.193   5.563  1.00  0.00    -0.344 N 
ATOM      3  HN  UNL     1      63.159   9.646   6.477  1.00  0.00     0.167 HD
HETATM    4  C   UNL     1      62.704   9.706   4.431  1.00  0.00     0.112 A 
HETATM    5  C   UNL     1      63.354   7.643   3.914  1.00  0.00     0.063 A 
HETATM    6  C   UNL     1      63.548   7.919   5.259  1.00  0.00     0.032 A 
HETATM    7  C   UNL     1      62.423   9.099   2.074  1.00  0.00     0.099 A 
HETATM    8  C   UNL     1      62.166  10.992   4.132  1.00  0.00     0.049 A 
HETATM    9  C   UNL     1      61.913  10.310   1.798  1.00  0.00     0.018 A 
HETATM   10  C   UNL     1      61.787  11.284   2.874  1.00  0.00     0.005 A 
HETATM   11  C   UNL     1      64.121   7.044   6.306  1.00  0.00     0.070 C 
ENDROOT
BRANCH   5  12
HETATM   12  C   UNL     1      63.666   6.428   3.135  1.00  0.00     0.223 C 
BRANCH  12  13
HETATM   13  O   UNL     1      62.584   5.524   3.294  1.00  0.00    -0.395 OA
HETATM   14  H   UNL     1      62.913   4.689   3.662  1.00  0.00     0.209 HD
ENDBRANCH  12  13
ENDBRANCH   5  12
TORSDOF 2
ENDMDL
MODEL 5
REMARK VINA RESULT:      -4.1      2.201      3.743
REMARK  2 active torsions:
REMARK  status: ('A' for Active; 'I' for Inactive)
REMARK    1  A    between atoms: C_5  and  C_11 
REMARK    2  A    between atoms: C_11  and  O_13 
ROOT
HETATM    1  N   UNL     1      63.595   8.187   3.891  1.00  0.00    -0.308 N 
HETATM    2  N   UNL     1      64.495   9.417   5.535  1.00  0.00    -0.344 N 
ATOM      3  HN  UNL     1      65.124   9.758   6.262  1.00  0.00     0.167 HD
HETATM    4  C   UNL     1      64.650   8.345   4.789  1.00  0.00     0.112 A 
HETATM    5  C   UNL     1      62.733   9.245   4.108  1.00  0.00     0.063 A 
HETATM    6  C   UNL     1      63.310   9.981   5.132  1.00  0.00     0.032 A 
HETATM    7  C   UNL     1      63.523   7.127   2.985  1.00  0.00     0.099 A 
HETATM    8  C   UNL     1      65.685   7.366   4.760  1.00  0.00     0.049 A 
HETATM    9  C   UNL     1      64.503   6.209   2.960  1.00  0.00     0.018 A 
HETATM   10  C   UNL     1      65.618   6.343   3.888  1.00  0.00     0.005 A 
HETATM   11  C   UNL     1      62.802  11.210   5.783  1.00  0.00     0.070 C 
ENDROOT
BRANCH   5  12
HETATM   12  C   UNL     1      61.462   9.451   3.384  1.00  0.00     0.223 C 
BRANCH  12  13
HETATM   13  O   UNL     1      61.601  10.620   2.593  1.00  0.00    -0.395 OA
HETATM   14  H   UNL     1      61.266  11.385   3.087  1.00  0.00     0.209 HD
ENDBRANCH  12  13
ENDBRANCH   5  12
TORSDOF 2
ENDMDL
MODEL 6
REMARK VINA RESULT:      -4.1      2.490      3.534
REMARK  2 active torsions:
REMARK  status: ('A' for Active; 'I' for Inactive)
REMARK    1  A    between atoms: C_5  and  C_11 
REMARK    2  A    between atoms: C_11  and  O_13 
ROOT
HETATM    1  N   UNL     1      64.267   7.681   3.999  1.00  0.00    -0.308 N 
HETATM    2  N   UNL     1      64.658   9.083   5.702  1.00  0.00    -0.344 N 
ATOM      3  HN  UNL     1      64.580   9.856   6.364  1.00  0.00     0.167 HD
HETATM    4  C   UNL     1      63.861   8.821   4.689  1.00  0.00     0.112 A 
HETATM    5  C   UNL     1      65.396   7.213   4.642  1.00  0.00     0.063 A 
HETATM    6  C   UNL     1      65.618   8.102   5.683  1.00  0.00     0.032 A 
HETATM    7  C   UNL     1      63.587   7.188   2.884  1.00  0.00     0.099 A 
HETATM    8  C   UNL     1      62.699   9.496   4.214  1.00  0.00     0.049 A 
HETATM    9  C   UNL     1      62.490   7.825   2.441  1.00  0.00     0.018 A 
HETATM   10  C   UNL     1      62.042   9.022   3.138  1.00  0.00     0.005 A 
HETATM   11  C   UNL     1      66.709   8.097   6.683  1.00  0.00     0.070 C 
ENDROOT
BRANCH   5  12
HETATM   12  C   UNL     1      66.171   6.028   4.218  1.00  0.00     0.223 C 
BRANCH  12  13
HETATM   13  O   UNL     1      67.370   6.490   3.617  1.00  0.00    -0.395 OA
HETATM   14  H   UNL     1      68.039   5.788   3.651  1.00  0.00     0.209 HD
ENDBRANCH  12  13
ENDBRANCH   5  12
TORSDOF 2
ENDMDL
MODEL 7
REMARK VINA RESULT:      -4.1      2.324      3.785
REMARK  2 active torsions:
REMARK  status: ('A' for Active; 'I' for Inactive)
REMARK    1  A    between atoms: C_5  and  C_11 
REMARK    2  A    between atoms: C_11  and  O_13 
ROOT
HETATM    1  N   UNL     1      62.473   9.044   2.921  1.00  0.00    -0.308 N 
HETATM    2  N   UNL     1      62.144   8.989   0.705  1.00  0.00    -0.344 N 
ATOM      3  HN  UNL     1      61.931   9.265  -0.254  1.00  0.00     0.167 HD
HETATM    4  C   UNL     1      62.119   9.754   1.776  1.00  0.00     0.112 A 
HETATM    5  C   UNL     1      62.735   7.749   2.517  1.00  0.00     0.063 A 
HETATM    6  C   UNL     1      62.516   7.744   1.147  1.00  0.00     0.032 A 
HETATM    7  C   UNL     1      62.527   9.628   4.188  1.00  0.00     0.099 A 
HETATM    8  C   UNL     1      61.799  11.134   1.933  1.00  0.00     0.049 A 
HETATM    9  C   UNL     1      62.228  10.930   4.331  1.00  0.00     0.018 A 
HETATM   10  C   UNL     1      61.850  11.699   3.154  1.00  0.00     0.005 A 
HETATM   11  C   UNL     1      62.626   6.612   0.200  1.00  0.00     0.070 C 
ENDROOT
BRANCH   5  12
HETATM   12  C   UNL     1      63.121   6.650   3.425  1.00  0.00     0.223 C 
BRANCH  12  13
HETATM   13  O   UNL     1      61.930   6.079   3.941  1.00  0.00    -0.395 OA
HETATM   14  H   UNL     1      61.510   6.705   4.551  1.00  0.00     0.209 HD
ENDBRANCH  12  13
ENDBRANCH   5  12
TORSDOF 2
ENDMDL
MODEL 8
REMARK VINA RESULT:      -4.1      4.114      7.073
REMARK  2 active torsions:
REMARK  status: ('A' for Active; 'I' for Inactive)
REMARK    1  A    between atoms: C_5  and  C_11 
REMARK    2  A    between atoms: C_11  and  O_13 
ROOT
HETATM    1  N   UNL     1      66.802   5.869   6.603  1.00  0.00    -0.308 N 
HETATM    2  N   UNL     1      65.815   7.851   6.949  1.00  0.00    -0.344 N 
ATOM      3  HN  UNL     1      65.494   8.715   7.387  1.00  0.00     0.167 HD
HETATM    4  C   UNL     1      66.547   6.906   7.498  1.00  0.00     0.112 A 
HETATM    5  C   UNL     1      66.179   6.210   5.418  1.00  0.00     0.063 A 
HETATM    6  C   UNL     1      65.572   7.432   5.664  1.00  0.00     0.032 A 
HETATM    7  C   UNL     1      67.560   4.746   6.941  1.00  0.00     0.099 A 
HETATM    8  C   UNL     1      67.093   6.789   8.810  1.00  0.00     0.049 A 
HETATM    9  C   UNL     1      68.075   4.641   8.177  1.00  0.00     0.018 A 
HETATM   10  C   UNL     1      67.823   5.706   9.138  1.00  0.00     0.005 A 
HETATM   11  C   UNL     1      64.747   8.253   4.749  1.00  0.00     0.070 C 
ENDROOT
BRANCH   5  12
HETATM   12  C   UNL     1      66.174   5.370   4.203  1.00  0.00     0.223 C 
BRANCH  12  13
HETATM   13  O   UNL     1      67.327   5.701   3.446  1.00  0.00    -0.395 OA
HETATM   14  H   UNL     1      67.987   4.995   3.537  1.00  0.00     0.209 HD
ENDBRANCH  12  13
ENDBRANCH   5  12
TORSDOF 2
ENDMDL
MODEL 9
REMARK VINA RESULT:      -3.8      2.347      3.159
REMARK  2 active torsions:
REMARK  status: ('A' for Active; 'I' for Inactive)
REMARK    1  A    between atoms: C_5  and  C_11 
REMARK    2  A    between atoms: C_11  and  O_13 
ROOT
HETATM    1  N   UNL     1      64.578   8.030   4.596  1.00  0.00    -0.308 N 
HETATM    2  N   UNL     1      65.005   6.289   3.251  1.00  0.00    -0.344 N 
ATOM      3  HN  UNL     1      64.944   5.604   2.497  1.00  0.00     0.167 HD
HETATM    4  C   UNL     1      64.186   7.292   3.481  1.00  0.00     0.112 A 
HETATM    5  C   UNL     1      65.725   7.430   5.080  1.00  0.00     0.063 A 
HETATM    6  C   UNL     1      65.959   6.356   4.235  1.00  0.00     0.032 A 
HETATM    7  C   UNL     1      63.877   9.148   5.050  1.00  0.00     0.099 A 
HETATM    8  C   UNL     1      63.012   7.718   2.794  1.00  0.00     0.049 A 
HETATM    9  C   UNL     1      62.773   9.548   4.398  1.00  0.00     0.018 A 
HETATM   10  C   UNL     1      62.333   8.796   3.231  1.00  0.00     0.005 A 
HETATM   11  C   UNL     1      67.045   5.352   4.300  1.00  0.00     0.070 C 
ENDROOT
BRANCH   5  12
HETATM   12  C   UNL     1      66.463   7.880   6.279  1.00  0.00     0.223 C 
BRANCH  12  13
HETATM   13  O   UNL     1      67.711   8.398   5.848  1.00  0.00    -0.395 OA
HETATM   14  H   UNL     1      67.593   9.313   5.545  1.00  0.00     0.209 HD
ENDBRANCH  12  13
ENDBRANCH   5  12
TORSDOF 2
ENDMDL
