MODEL 1
REMARK VINA RESULT:      -4.9      0.000      0.000
REMARK  2 active torsions:
REMARK  status: ('A' for Active; 'I' for Inactive)
REMARK    1  A    between atoms: C_1  and  C_4 
REMARK    2  A    between atoms: C_2  and  N_3 
ROOT
HETATM    1  C   UNL     1      63.821   7.860   5.249  1.00  0.00     0.108 A 
HETATM    2  C   UNL     1      62.615   8.051   4.589  1.00  0.00     0.062 A 
HETATM    3  S   UNL     1      63.780   6.444   6.227  1.00  0.00    -0.093 SA
HETATM    4  C   UNL     1      61.631   7.087   4.996  1.00  0.00     0.039 A 
HETATM    5  C   UNL     1      62.139   6.154   5.871  1.00  0.00     0.053 A 
ENDROOT
BRANCH   2   6
HETATM    6  N   UNL     1      62.335   9.061   3.612  1.00  0.00    -0.331 N 
HETATM    7  C   UNL     1      62.049  10.392   3.847  1.00  0.00     0.096 A 
HETATM    8  C   UNL     1      61.812  11.025   2.646  1.00  0.00     0.019 A 
HETATM    9  C   UNL     1      62.000  10.069   1.628  1.00  0.00     0.019 A 
HETATM   10  C   UNL     1      62.365   8.889   2.241  1.00  0.00     0.096 A 
ENDBRANCH   2   6
BRANCH   1  11
HETATM   11  C   UNL     1      65.026   8.653   5.307  1.00  0.00     0.218 C 
HETATM   12  O   UNL     1      66.157   8.349   4.952  1.00  0.00    -0.643 OA
HETATM   13  O   UNL     1      64.814   9.848   5.900  1.00  0.00    -0.643 OA
ENDBRANCH   1  11
TORSDOF 2
ENDMDL
MODEL 2
REMARK VINA RESULT:      -4.7      2.442      4.313
REMARK  2 active torsions:
REMARK  status: ('A' for Active; 'I' for Inactive)
REMARK    1  A    between atoms: C_1  and  C_4 
REMARK    2  A    between atoms: C_2  and  N_3 
ROOT
HETATM    1  C   UNL     1      62.764   9.554   4.112  1.00  0.00     0.108 A 
HETATM    2  C   UNL     1      63.483   8.367   4.106  1.00  0.00     0.062 A 
HETATM    3  S   UNL     1      61.788   9.698   2.701  1.00  0.00    -0.093 SA
HETATM    4  C   UNL     1      63.307   7.647   2.876  1.00  0.00     0.039 A 
HETATM    5  C   UNL     1      62.404   8.256   2.035  1.00  0.00     0.053 A 
ENDROOT
BRANCH   2   6
HETATM    6  N   UNL     1      64.307   7.871   5.168  1.00  0.00    -0.331 N 
HETATM    7  C   UNL     1      65.627   8.192   5.420  1.00  0.00     0.096 A 
HETATM    8  C   UNL     1      66.067   7.483   6.516  1.00  0.00     0.019 A 
HETATM    9  C   UNL     1      64.973   6.731   6.990  1.00  0.00     0.019 A 
HETATM   10  C   UNL     1      63.898   7.022   6.179  1.00  0.00     0.096 A 
ENDBRANCH   2   6
BRANCH   1  11
HETATM   11  C   UNL     1      62.752  10.672   5.025  1.00  0.00     0.218 C 
HETATM   12  O   UNL     1      63.215  10.739   6.155  1.00  0.00    -0.643 OA
HETATM   13  O   UNL     1      62.069  11.724   4.522  1.00  0.00    -0.643 OA
ENDBRANCH   1  11
TORSDOF 2
ENDMDL
MODEL 3
REMARK VINA RESULT:      -4.6      2.338      4.288
REMARK  2 active torsions:
REMARK  status: ('A' for Active; 'I' for Inactive)
REMARK    1  A    between atoms: C_1  and  C_4 
REMARK    2  A    between atoms: C_2  and  N_3 
ROOT
HETATM    1  C   UNL     1      62.343  10.143   3.669  1.00  0.00     0.108 A 
HETATM    2  C   UNL     1      62.618   8.790   3.525  1.00  0.00     0.062 A 
HETATM    3  S   UNL     1      61.826  10.835   2.180  1.00  0.00    -0.093 SA
HETATM    4  C   UNL     1      62.511   8.371   2.156  1.00  0.00     0.039 A 
HETATM    5  C   UNL     1      62.079   9.381   1.328  1.00  0.00     0.053 A 
ENDROOT
BRANCH   2   6
HETATM    6  N   UNL     1      62.962   7.880   4.577  1.00  0.00    -0.331 N 
HETATM    7  C   UNL     1      64.225   7.614   5.069  1.00  0.00     0.096 A 
HETATM    8  C   UNL     1      64.136   6.659   6.059  1.00  0.00     0.019 A 
HETATM    9  C   UNL     1      62.770   6.353   6.219  1.00  0.00     0.019 A 
HETATM   10  C   UNL     1      62.070   7.147   5.336  1.00  0.00     0.096 A 
ENDBRANCH   2   6
BRANCH   1  11
HETATM   11  C   UNL     1      62.481  11.043   4.789  1.00  0.00     0.218 C 
HETATM   12  O   UNL     1      63.016  10.840   5.870  1.00  0.00    -0.643 OA
HETATM   13  O   UNL     1      61.860  12.222   4.566  1.00  0.00    -0.643 OA
ENDBRANCH   1  11
TORSDOF 2
ENDMDL
MODEL 4
REMARK VINA RESULT:      -4.5      2.196      2.980
REMARK  2 active torsions:
REMARK  status: ('A' for Active; 'I' for Inactive)
REMARK    1  A    between atoms: C_1  and  C_4 
REMARK    2  A    between atoms: C_2  and  N_3 
ROOT
HETATM    1  C   UNL     1      63.362   7.208   5.906  1.00  0.00     0.108 A 
HETATM    2  C   UNL     1      63.892   8.319   5.266  1.00  0.00     0.062 A 
HETATM    3  S   UNL     1      64.605   6.220   6.572  1.00  0.00    -0.093 SA
HETATM    4  C   UNL     1      65.327   8.277   5.232  1.00  0.00     0.039 A 
HETATM    5  C   UNL     1      65.837   7.197   5.914  1.00  0.00     0.053 A 
ENDROOT
BRANCH   2   6
HETATM    6  N   UNL     1      63.147   9.405   4.699  1.00  0.00    -0.331 N 
HETATM    7  C   UNL     1      62.931  10.649   5.258  1.00  0.00     0.096 A 
HETATM    8  C   UNL     1      62.143  11.398   4.410  1.00  0.00     0.019 A 
HETATM    9  C   UNL     1      61.898  10.610   3.267  1.00  0.00     0.019 A 
HETATM   10  C   UNL     1      62.562   9.416   3.447  1.00  0.00     0.096 A 
ENDBRANCH   2   6
BRANCH   1  11
HETATM   11  C   UNL     1      62.009   6.723   6.039  1.00  0.00     0.218 C 
HETATM   12  O   UNL     1      61.344   6.586   7.056  1.00  0.00    -0.643 OA
HETATM   13  O   UNL     1      61.497   6.329   4.852  1.00  0.00    -0.643 OA
ENDBRANCH   1  11
TORSDOF 2
ENDMDL
MODEL 5
REMARK VINA RESULT:      -4.4      2.782      3.494
REMARK  2 active torsions:
REMARK  status: ('A' for Active; 'I' for Inactive)
REMARK    1  A    between atoms: C_1  and  C_4 
REMARK    2  A    between atoms: C_2  and  N_3 
ROOT
HETATM    1  C   UNL     1      62.207   9.706   3.787  1.00  0.00     0.108 A 
HETATM    2  C   UNL     1      61.620   8.483   3.489  1.00  0.00     0.062 A 
HETATM    3  S   UNL     1      63.362   9.550   5.054  1.00  0.00    -0.093 SA
HETATM    4  C   UNL     1      62.048   7.455   4.395  1.00  0.00     0.039 A 
HETATM    5  C   UNL     1      62.999   7.900   5.284  1.00  0.00     0.053 A 
ENDROOT
BRANCH   2   6
HETATM    6  N   UNL     1      60.703   8.224   2.419  1.00  0.00    -0.331 N 
HETATM    7  C   UNL     1      60.931   8.386   1.066  1.00  0.00     0.096 A 
HETATM    8  C   UNL     1      59.789   8.055   0.369  1.00  0.00     0.019 A 
HETATM    9  C   UNL     1      58.834   7.630   1.314  1.00  0.00     0.019 A 
HETATM   10  C   UNL     1      59.432   7.697   2.555  1.00  0.00     0.096 A 
ENDBRANCH   2   6
BRANCH   1  11
HETATM   11  C   UNL     1      61.971  11.039   3.286  1.00  0.00     0.218 C 
HETATM   12  O   UNL     1      61.990  11.433   2.129  1.00  0.00    -0.643 OA
HETATM   13  O   UNL     1      61.772  11.924   4.287  1.00  0.00    -0.643 OA
ENDBRANCH   1  11
TORSDOF 2
ENDMDL
MODEL 6
REMARK VINA RESULT:      -4.3      3.411      5.567
REMARK  2 active torsions:
REMARK  status: ('A' for Active; 'I' for Inactive)
REMARK    1  A    between atoms: C_1  and  C_4 
REMARK    2  A    between atoms: C_2  and  N_3 
ROOT
HETATM    1  C   UNL     1      64.671   7.235   5.825  1.00  0.00     0.108 A 
HETATM    2  C   UNL     1      64.941   6.118   6.605  1.00  0.00     0.062 A 
HETATM    3  S   UNL     1      63.115   7.127   5.098  1.00  0.00    -0.093 SA
HETATM    4  C   UNL     1      63.903   5.132   6.493  1.00  0.00     0.039 A 
HETATM    5  C   UNL     1      62.852   5.560   5.715  1.00  0.00     0.053 A 
ENDROOT
BRANCH   2   6
HETATM    6  N   UNL     1      66.090   5.926   7.439  1.00  0.00    -0.331 N 
HETATM    7  C   UNL     1      67.195   5.142   7.168  1.00  0.00     0.096 A 
HETATM    8  C   UNL     1      68.067   5.201   8.234  1.00  0.00     0.019 A 
HETATM    9  C   UNL     1      67.508   6.085   9.179  1.00  0.00     0.019 A 
HETATM   10  C   UNL     1      66.324   6.551   8.649  1.00  0.00     0.096 A 
ENDBRANCH   2   6
BRANCH   1  11
HETATM   11  C   UNL     1      65.469   8.387   5.479  1.00  0.00     0.218 C 
HETATM   12  O   UNL     1      66.619   8.422   5.064  1.00  0.00    -0.643 OA
HETATM   13  O   UNL     1      64.818   9.544   5.733  1.00  0.00    -0.643 OA
ENDBRANCH   1  11
TORSDOF 2
ENDMDL
MODEL 7
REMARK VINA RESULT:      -4.2      1.765      2.274
REMARK  2 active torsions:
REMARK  status: ('A' for Active; 'I' for Inactive)
REMARK    1  A    between atoms: C_1  and  C_4 
REMARK    2  A    between atoms: C_2  and  N_3 
ROOT
HETATM    1  C   UNL     1      65.546   7.072   6.105  1.00  0.00     0.108 A 
HETATM    2  C   UNL     1      64.243   6.964   5.639  1.00  0.00     0.062 A 
HETATM    3  S   UNL     1      66.038   5.634   6.915  1.00  0.00    -0.093 SA
HETATM    4  C   UNL     1      63.628   5.738   6.062  1.00  0.00     0.039 A 
HETATM    5  C   UNL     1      64.498   4.924   6.751  1.00  0.00     0.053 A 
ENDROOT
BRANCH   2   6
HETATM    6  N   UNL     1      63.553   7.923   4.828  1.00  0.00    -0.331 N 
HETATM    7  C   UNL     1      63.006   9.123   5.239  1.00  0.00     0.096 A 
HETATM    8  C   UNL     1      62.405   9.742   4.164  1.00  0.00     0.019 A 
HETATM    9  C   UNL     1      62.623   8.922   3.038  1.00  0.00     0.019 A 
HETATM   10  C   UNL     1      63.368   7.841   3.461  1.00  0.00     0.096 A 
ENDBRANCH   2   6
BRANCH   1  11
HETATM   11  C   UNL     1      66.491   8.163   6.090  1.00  0.00     0.218 C 
HETATM   12  O   UNL     1      66.715   8.989   6.964  1.00  0.00    -0.643 OA
HETATM   13  O   UNL     1      67.127   8.261   4.903  1.00  0.00    -0.643 OA
ENDBRANCH   1  11
TORSDOF 2
ENDMDL
MODEL 8
REMARK VINA RESULT:      -4.2      1.969      2.536
REMARK  2 active torsions:
REMARK  status: ('A' for Active; 'I' for Inactive)
REMARK    1  A    between atoms: C_1  and  C_4 
REMARK    2  A    between atoms: C_2  and  N_3 
ROOT
HETATM    1  C   UNL     1      63.935   8.771   4.575  1.00  0.00     0.108 A 
HETATM    2  C   UNL     1      63.488   7.879   3.610  1.00  0.00     0.062 A 
HETATM    3  S   UNL     1      65.384   8.211   5.318  1.00  0.00    -0.093 SA
HETATM    4  C   UNL     1      64.286   6.685   3.582  1.00  0.00     0.039 A 
HETATM    5  C   UNL     1      65.351   6.744   4.451  1.00  0.00     0.053 A 
ENDROOT
BRANCH   2   6
HETATM    6  N   UNL     1      62.380   8.077   2.723  1.00  0.00    -0.331 N 
HETATM    7  C   UNL     1      61.103   7.567   2.857  1.00  0.00     0.096 A 
HETATM    8  C   UNL     1      60.339   7.965   1.781  1.00  0.00     0.019 A 
HETATM    9  C   UNL     1      61.154   8.785   0.975  1.00  0.00     0.019 A 
HETATM   10  C   UNL     1      62.380   8.877   1.597  1.00  0.00     0.096 A 
ENDBRANCH   2   6
BRANCH   1  11
HETATM   11  C   UNL     1      63.376   9.999   5.089  1.00  0.00     0.218 C 
HETATM   12  O   UNL     1      62.328  10.547   4.781  1.00  0.00    -0.643 OA
HETATM   13  O   UNL     1      64.204  10.595   5.975  1.00  0.00    -0.643 OA
ENDBRANCH   1  11
TORSDOF 2
ENDMDL
MODEL 9
REMARK VINA RESULT:      -4.0      3.329      5.470
REMARK  2 active torsions:
REMARK  status: ('A' for Active; 'I' for Inactive)
REMARK    1  A    between atoms: C_1  and  C_4 
REMARK    2  A    between atoms: C_2  and  N_3 
ROOT
HETATM    1  C   UNL     1      64.094   7.129   5.226  1.00  0.00     0.108 A 
HETATM    2  C   UNL     1      65.284   6.466   5.491  1.00  0.00     0.062 A 
HETATM    3  S   UNL     1      63.630   6.943   3.578  1.00  0.00    -0.093 SA
HETATM    4  C   UNL     1      65.859   5.913   4.297  1.00  0.00     0.039 A 
HETATM    5  C   UNL     1      65.056   6.092   3.194  1.00  0.00     0.053 A 
ENDROOT
BRANCH   2   6
HETATM    6  N   UNL     1      65.902   6.317   6.775  1.00  0.00    -0.331 N 
HETATM    7  C   UNL     1      65.909   5.188   7.571  1.00  0.00     0.096 A 
HETATM    8  C   UNL     1      66.586   5.459   8.740  1.00  0.00     0.019 A 
HETATM    9  C   UNL     1      67.053   6.786   8.651  1.00  0.00     0.019 A 
HETATM   10  C   UNL     1      66.663   7.272   7.421  1.00  0.00     0.096 A 
ENDBRANCH   2   6
BRANCH   1  11
HETATM   11  C   UNL     1      63.253   7.971   6.044  1.00  0.00     0.218 C 
HETATM   12  O   UNL     1      62.510   7.647   6.959  1.00  0.00    -0.643 OA
HETATM   13  O   UNL     1      63.297   9.262   5.647  1.00  0.00    -0.643 OA
ENDBRANCH   1  11
TORSDOF 2
ENDMDL
