MODEL 1
REMARK VINA RESULT:      -5.4      0.000      0.000
REMARK  1 active torsions:
REMARK  status: ('A' for Active; 'I' for Inactive)
REMARK    1  A    between atoms: C_1  and  C_6 
ROOT
HETATM    1  C   UNL     1      63.108   7.877   4.547  1.00  0.00     0.088 A 
HETATM    2  S   UNL     1      63.323   6.532   3.505  1.00  0.00    -0.094 SA
HETATM    3  C   UNL     1      62.676   8.998   3.842  1.00  0.00    -0.027 A 
HETATM    4  C   UNL     1      62.514   8.730   2.448  1.00  0.00    -0.044 A 
HETATM    5  C   UNL     1      62.844   7.427   2.139  1.00  0.00     0.058 A 
HETATM    6  C   UNL     1      62.403  10.335   4.446  1.00  0.00     0.041 A 
HETATM    7  C   UNL     1      62.055   9.734   1.452  1.00  0.00     0.040 A 
HETATM    8  C   UNL     1      61.961  11.435   3.481  1.00  0.00     0.005 A 
HETATM    9  C   UNL     1      61.719  11.116   2.004  1.00  0.00     0.005 A 
ENDROOT
BRANCH   1  10
HETATM   10  C   UNL     1      63.369   7.771   5.971  1.00  0.00     0.217 C 
HETATM   11  O   UNL     1      62.545   7.678   6.875  1.00  0.00    -0.643 OA
HETATM   12  O   UNL     1      64.684   7.780   6.286  1.00  0.00    -0.643 OA
ENDBRANCH   1  10
TORSDOF 1
ENDMDL
MODEL 2
REMARK VINA RESULT:      -5.1      1.651      2.729
REMARK  1 active torsions:
REMARK  status: ('A' for Active; 'I' for Inactive)
REMARK    1  A    between atoms: C_1  and  C_6 
ROOT
HETATM    1  C   UNL     1      63.384   9.172   4.726  1.00  0.00     0.088 A 
HETATM    2  S   UNL     1      62.754  10.730   5.066  1.00  0.00    -0.094 SA
HETATM    3  C   UNL     1      62.984   8.730   3.466  1.00  0.00    -0.027 A 
HETATM    4  C   UNL     1      62.171   9.692   2.790  1.00  0.00    -0.044 A 
HETATM    5  C   UNL     1      61.966  10.817   3.561  1.00  0.00     0.058 A 
HETATM    6  C   UNL     1      63.348   7.413   2.866  1.00  0.00     0.041 A 
HETATM    7  C   UNL     1      61.608   9.498   1.427  1.00  0.00     0.040 A 
HETATM    8  C   UNL     1      62.777   7.122   1.479  1.00  0.00     0.005 A 
HETATM    9  C   UNL     1      61.971   8.188   0.735  1.00  0.00     0.005 A 
ENDROOT
BRANCH   1  10
HETATM   10  C   UNL     1      64.218   8.473   5.687  1.00  0.00     0.217 C 
HETATM   11  O   UNL     1      63.907   7.516   6.386  1.00  0.00    -0.643 OA
HETATM   12  O   UNL     1      65.471   8.972   5.784  1.00  0.00    -0.643 OA
ENDBRANCH   1  10
TORSDOF 1
ENDMDL
MODEL 3
REMARK VINA RESULT:      -4.9      2.037      3.006
REMARK  1 active torsions:
REMARK  status: ('A' for Active; 'I' for Inactive)
REMARK    1  A    between atoms: C_1  and  C_6 
ROOT
HETATM    1  C   UNL     1      62.961   9.457   4.393  1.00  0.00     0.088 A 
HETATM    2  S   UNL     1      63.788   8.314   5.367  1.00  0.00    -0.094 SA
HETATM    3  C   UNL     1      62.702   8.945   3.124  1.00  0.00    -0.027 A 
HETATM    4  C   UNL     1      63.179   7.606   2.975  1.00  0.00    -0.044 A 
HETATM    5  C   UNL     1      63.797   7.155   4.122  1.00  0.00     0.058 A 
HETATM    6  C   UNL     1      62.007   9.683   2.028  1.00  0.00     0.041 A 
HETATM    7  C   UNL     1      63.035   6.802   1.732  1.00  0.00     0.040 A 
HETATM    8  C   UNL     1      61.852   8.937   0.703  1.00  0.00     0.005 A 
HETATM    9  C   UNL     1      62.300   7.478   0.580  1.00  0.00     0.005 A 
ENDROOT
BRANCH   1  10
HETATM   10  C   UNL     1      62.615  10.771   4.906  1.00  0.00     0.217 C 
HETATM   11  O   UNL     1      61.920  11.622   4.364  1.00  0.00    -0.643 OA
HETATM   12  O   UNL     1      63.144  11.036   6.122  1.00  0.00    -0.643 OA
ENDBRANCH   1  10
TORSDOF 1
ENDMDL
MODEL 4
REMARK VINA RESULT:      -4.6      1.264      2.000
REMARK  1 active torsions:
REMARK  status: ('A' for Active; 'I' for Inactive)
REMARK    1  A    between atoms: C_1  and  C_6 
ROOT
HETATM    1  C   UNL     1      63.891   7.793   4.220  1.00  0.00     0.088 A 
HETATM    2  S   UNL     1      64.592   6.247   3.977  1.00  0.00    -0.094 SA
HETATM    3  C   UNL     1      63.133   8.183   3.119  1.00  0.00    -0.027 A 
HETATM    4  C   UNL     1      63.129   7.191   2.089  1.00  0.00    -0.044 A 
HETATM    5  C   UNL     1      63.894   6.097   2.433  1.00  0.00     0.058 A 
HETATM    6  C   UNL     1      62.398   9.476   3.000  1.00  0.00     0.041 A 
HETATM    7  C   UNL     1      62.396   7.328   0.802  1.00  0.00     0.040 A 
HETATM    8  C   UNL     1      61.649   9.709   1.688  1.00  0.00     0.005 A 
HETATM    9  C   UNL     1      61.589   8.610   0.625  1.00  0.00     0.005 A 
ENDROOT
BRANCH   1  10
HETATM   10  C   UNL     1      64.115   8.534   5.449  1.00  0.00     0.217 C 
HETATM   11  O   UNL     1      65.090   9.217   5.740  1.00  0.00    -0.643 OA
HETATM   12  O   UNL     1      63.103   8.426   6.340  1.00  0.00    -0.643 OA
ENDBRANCH   1  10
TORSDOF 1
ENDMDL
MODEL 5
REMARK VINA RESULT:      -4.4      1.998      2.727
REMARK  1 active torsions:
REMARK  status: ('A' for Active; 'I' for Inactive)
REMARK    1  A    between atoms: C_1  and  C_6 
ROOT
HETATM    1  C   UNL     1      62.966   7.546   2.484  1.00  0.00     0.088 A 
HETATM    2  S   UNL     1      62.352   7.669   0.888  1.00  0.00    -0.094 SA
HETATM    3  C   UNL     1      62.785   8.734   3.188  1.00  0.00    -0.027 A 
HETATM    4  C   UNL     1      62.127   9.731   2.402  1.00  0.00    -0.044 A 
HETATM    5  C   UNL     1      61.849   9.276   1.131  1.00  0.00     0.058 A 
HETATM    6  C   UNL     1      63.214   8.968   4.598  1.00  0.00     0.041 A 
HETATM    7  C   UNL     1      61.793  11.094   2.894  1.00  0.00     0.040 A 
HETATM    8  C   UNL     1      62.939  10.360   5.166  1.00  0.00     0.005 A 
HETATM    9  C   UNL     1      62.168  11.394   4.342  1.00  0.00     0.005 A 
ENDROOT
BRANCH   1  10
HETATM   10  C   UNL     1      63.582   6.320   2.959  1.00  0.00     0.217 C 
HETATM   11  O   UNL     1      64.741   5.956   2.793  1.00  0.00    -0.643 OA
HETATM   12  O   UNL     1      62.742   5.524   3.658  1.00  0.00    -0.643 OA
ENDBRANCH   1  10
TORSDOF 1
ENDMDL
MODEL 6
REMARK VINA RESULT:      -4.3      2.060      2.963
REMARK  1 active torsions:
REMARK  status: ('A' for Active; 'I' for Inactive)
REMARK    1  A    between atoms: C_1  and  C_6 
ROOT
HETATM    1  C   UNL     1      63.393   7.397   3.831  1.00  0.00     0.088 A 
HETATM    2  S   UNL     1      63.669   7.615   5.509  1.00  0.00    -0.094 SA
HETATM    3  C   UNL     1      62.850   8.544   3.255  1.00  0.00    -0.027 A 
HETATM    4  C   UNL     1      62.681   9.597   4.207  1.00  0.00    -0.044 A 
HETATM    5  C   UNL     1      63.081   9.211   5.469  1.00  0.00     0.058 A 
HETATM    6  C   UNL     1      62.482   8.686   1.816  1.00  0.00     0.041 A 
HETATM    7  C   UNL     1      62.133  10.939   3.877  1.00  0.00     0.040 A 
HETATM    8  C   UNL     1      61.875  10.027   1.403  1.00  0.00     0.005 A 
HETATM    9  C   UNL     1      61.768  11.172   2.414  1.00  0.00     0.005 A 
ENDROOT
BRANCH   1  10
HETATM   10  C   UNL     1      63.712   6.142   3.175  1.00  0.00     0.217 C 
HETATM   11  O   UNL     1      64.784   5.812   2.679  1.00  0.00    -0.643 OA
HETATM   12  O   UNL     1      62.677   5.272   3.132  1.00  0.00    -0.643 OA
ENDBRANCH   1  10
TORSDOF 1
ENDMDL
MODEL 7
REMARK VINA RESULT:      -4.0      4.761      6.984
REMARK  1 active torsions:
REMARK  status: ('A' for Active; 'I' for Inactive)
REMARK    1  A    between atoms: C_1  and  C_6 
ROOT
HETATM    1  C   UNL     1      66.237   6.527   7.062  1.00  0.00     0.088 A 
HETATM    2  S   UNL     1      66.614   6.413   8.731  1.00  0.00    -0.094 SA
HETATM    3  C   UNL     1      66.748   5.442   6.354  1.00  0.00    -0.027 A 
HETATM    4  C   UNL     1      67.435   4.519   7.202  1.00  0.00    -0.044 A 
HETATM    5  C   UNL     1      67.439   4.941   8.515  1.00  0.00     0.058 A 
HETATM    6  C   UNL     1      66.609   5.238   4.882  1.00  0.00     0.041 A 
HETATM    7  C   UNL     1      68.075   3.264   6.726  1.00  0.00     0.040 A 
HETATM    8  C   UNL     1      67.272   3.987   4.307  1.00  0.00     0.005 A 
HETATM    9  C   UNL     1      67.940   2.969   5.236  1.00  0.00     0.005 A 
ENDROOT
BRANCH   1  10
HETATM   10  C   UNL     1      65.478   7.649   6.538  1.00  0.00     0.217 C 
HETATM   11  O   UNL     1      64.282   7.680   6.274  1.00  0.00    -0.643 OA
HETATM   12  O   UNL     1      66.221   8.761   6.337  1.00  0.00    -0.643 OA
ENDBRANCH   1  10
TORSDOF 1
ENDMDL
MODEL 8
REMARK VINA RESULT:      -3.9      1.492      1.840
REMARK  1 active torsions:
REMARK  status: ('A' for Active; 'I' for Inactive)
REMARK    1  A    between atoms: C_1  and  C_6 
ROOT
HETATM    1  C   UNL     1      61.761   6.978   3.894  1.00  0.00     0.088 A 
HETATM    2  S   UNL     1      61.907   5.738   2.718  1.00  0.00    -0.094 SA
HETATM    3  C   UNL     1      61.858   8.240   3.312  1.00  0.00    -0.027 A 
HETATM    4  C   UNL     1      62.038   8.169   1.896  1.00  0.00    -0.044 A 
HETATM    5  C   UNL     1      62.091   6.863   1.455  1.00  0.00     0.058 A 
HETATM    6  C   UNL     1      61.783   9.532   4.055  1.00  0.00     0.041 A 
HETATM    7  C   UNL     1      62.163   9.357   1.010  1.00  0.00     0.040 A 
HETATM    8  C   UNL     1      61.940  10.802   3.218  1.00  0.00     0.005 A 
HETATM    9  C   UNL     1      62.057  10.715   1.695  1.00  0.00     0.005 A 
ENDROOT
BRANCH   1  10
HETATM   10  C   UNL     1      61.566   6.661   5.297  1.00  0.00     0.217 C 
HETATM   11  O   UNL     1      62.389   6.747   6.202  1.00  0.00    -0.643 OA
HETATM   12  O   UNL     1      60.318   6.229   5.589  1.00  0.00    -0.643 OA
ENDBRANCH   1  10
TORSDOF 1
ENDMDL
MODEL 9
REMARK VINA RESULT:      -3.9      3.018      5.017
REMARK  1 active torsions:
REMARK  status: ('A' for Active; 'I' for Inactive)
REMARK    1  A    between atoms: C_1  and  C_6 
ROOT
HETATM    1  C   UNL     1      63.810   7.917   5.470  1.00  0.00     0.088 A 
HETATM    2  S   UNL     1      62.602   6.848   6.050  1.00  0.00    -0.094 SA
HETATM    3  C   UNL     1      65.064   7.309   5.471  1.00  0.00    -0.027 A 
HETATM    4  C   UNL     1      65.010   5.960   5.940  1.00  0.00    -0.044 A 
HETATM    5  C   UNL     1      63.727   5.596   6.294  1.00  0.00     0.058 A 
HETATM    6  C   UNL     1      66.333   7.965   5.038  1.00  0.00     0.041 A 
HETATM    7  C   UNL     1      66.192   5.063   6.040  1.00  0.00     0.040 A 
HETATM    8  C   UNL     1      67.601   7.120   5.146  1.00  0.00     0.005 A 
HETATM    9  C   UNL     1      67.520   5.653   5.578  1.00  0.00     0.005 A 
ENDROOT
BRANCH   1  10
HETATM   10  C   UNL     1      63.481   9.268   5.054  1.00  0.00     0.217 C 
HETATM   11  O   UNL     1      63.611  10.300   5.702  1.00  0.00    -0.643 OA
HETATM   12  O   UNL     1      62.977   9.343   3.801  1.00  0.00    -0.643 OA
ENDBRANCH   1  10
TORSDOF 1
ENDMDL
