MODEL 1
REMARK VINA RESULT:      -5.0      0.000      0.000
REMARK  2 active torsions:
REMARK  status: ('A' for Active; 'I' for Inactive)
REMARK    1  A    between atoms: C_9  and  C_12 
REMARK    2  A    between atoms: C_12  and  O_13 
ROOT
HETATM    1  C   UNL     1      63.547   8.217   3.711  1.00  0.00     0.103 A 
HETATM    2  C   UNL     1      62.587   8.945   3.137  1.00  0.00     0.024 A 
HETATM    3  N   UNL     1      63.735   7.135   2.928  1.00  0.00    -0.289 N 
HETATM    4  N   UNL     1      62.907   7.146   1.841  1.00  0.00    -0.302 N 
ATOM      5  HN  UNL     1      62.845   6.453   1.096  1.00  0.00     0.187 HD
HETATM    6  C   UNL     1      62.187   8.286   1.978  1.00  0.00     0.035 A 
HETATM    7  S   UNL     1      64.149   8.856   5.116  1.00  0.00    -0.072 SA
HETATM    8  C   UNL     1      62.253  10.112   3.813  1.00  0.00     0.033 A 
HETATM    9  C   UNL     1      63.048  10.210   4.961  1.00  0.00     0.009 A 
HETATM   10  C   UNL     1      64.663   6.053   3.130  1.00  0.00     0.178 C 
HETATM   11  C   UNL     1      61.162   8.656   0.978  1.00  0.00     0.070 C 
ENDROOT
BRANCH   9  12
HETATM   12  C   UNL     1      63.054  11.275   6.006  1.00  0.00     0.210 C 
BRANCH  12  13
HETATM   13  O   UNL     1      64.398  11.452   6.427  1.00  0.00    -0.396 OA
HETATM   14  H   UNL     1      64.779  10.592   6.664  1.00  0.00     0.209 HD
ENDBRANCH  12  13
ENDBRANCH   9  12
TORSDOF 2
ENDMDL
MODEL 2
REMARK VINA RESULT:      -4.9      1.107      2.490
REMARK  2 active torsions:
REMARK  status: ('A' for Active; 'I' for Inactive)
REMARK    1  A    between atoms: C_9  and  C_12 
REMARK    2  A    between atoms: C_12  and  O_13 
ROOT
HETATM    1  C   UNL     1      62.513   9.025   3.079  1.00  0.00     0.103 A 
HETATM    2  C   UNL     1      63.441   8.424   3.826  1.00  0.00     0.024 A 
HETATM    3  N   UNL     1      62.299   8.231   2.010  1.00  0.00    -0.289 N 
HETATM    4  N   UNL     1      63.078   7.110   2.049  1.00  0.00    -0.302 N 
ATOM      5  HN  UNL     1      63.112   6.349   1.370  1.00  0.00     0.187 HD
HETATM    6  C   UNL     1      63.794   7.236   3.192  1.00  0.00     0.035 A 
HETATM    7  S   UNL     1      61.969  10.468   3.687  1.00  0.00    -0.072 SA
HETATM    8  C   UNL     1      63.796   9.106   4.983  1.00  0.00     0.033 A 
HETATM    9  C   UNL     1      63.052  10.289   5.053  1.00  0.00     0.009 A 
HETATM   10  C   UNL     1      61.389   8.454   0.917  1.00  0.00     0.178 C 
HETATM   11  C   UNL     1      64.771   6.199   3.589  1.00  0.00     0.070 C 
ENDROOT
BRANCH   9  12
HETATM   12  C   UNL     1      63.084  11.353   6.099  1.00  0.00     0.210 C 
BRANCH  12  13
HETATM   13  O   UNL     1      64.436  11.512   6.505  1.00  0.00    -0.396 OA
HETATM   14  H   UNL     1      64.614  10.938   7.266  1.00  0.00     0.209 HD
ENDBRANCH  12  13
ENDBRANCH   9  12
TORSDOF 2
ENDMDL
MODEL 3
REMARK VINA RESULT:      -4.4      2.336      3.015
REMARK  2 active torsions:
REMARK  status: ('A' for Active; 'I' for Inactive)
REMARK    1  A    between atoms: C_9  and  C_12 
REMARK    2  A    between atoms: C_12  and  O_13 
ROOT
HETATM    1  C   UNL     1      62.328   7.752   4.313  1.00  0.00     0.103 A 
HETATM    2  C   UNL     1      62.798   9.000   4.305  1.00  0.00     0.024 A 
HETATM    3  N   UNL     1      61.135   7.781   3.683  1.00  0.00    -0.289 N 
HETATM    4  N   UNL     1      60.818   9.041   3.259  1.00  0.00    -0.302 N 
ATOM      5  HN  UNL     1      59.981   9.339   2.759  1.00  0.00     0.187 HD
HETATM    6  C   UNL     1      61.866   9.803   3.653  1.00  0.00     0.035 A 
HETATM    7  S   UNL     1      63.316   6.648   5.055  1.00  0.00    -0.072 SA
HETATM    8  C   UNL     1      64.033   9.166   4.920  1.00  0.00     0.033 A 
HETATM    9  C   UNL     1      64.465   7.925   5.401  1.00  0.00     0.009 A 
HETATM   10  C   UNL     1      60.240   6.681   3.443  1.00  0.00     0.178 C 
HETATM   11  C   UNL     1      61.892  11.255   3.372  1.00  0.00     0.070 C 
ENDROOT
BRANCH   9  12
HETATM   12  C   UNL     1      65.720   7.593   6.138  1.00  0.00     0.210 C 
BRANCH  12  13
HETATM   13  O   UNL     1      66.313   8.818   6.545  1.00  0.00    -0.396 OA
HETATM   14  H   UNL     1      66.978   8.644   7.229  1.00  0.00     0.209 HD
ENDBRANCH  12  13
ENDBRANCH   9  12
TORSDOF 2
ENDMDL
MODEL 4
REMARK VINA RESULT:      -4.3      2.331      3.163
REMARK  2 active torsions:
REMARK  status: ('A' for Active; 'I' for Inactive)
REMARK    1  A    between atoms: C_9  and  C_12 
REMARK    2  A    between atoms: C_12  and  O_13 
ROOT
HETATM    1  C   UNL     1      62.481   9.407   3.097  1.00  0.00     0.103 A 
HETATM    2  C   UNL     1      62.666   8.183   2.601  1.00  0.00     0.024 A 
HETATM    3  N   UNL     1      62.079  10.186   2.072  1.00  0.00    -0.289 N 
HETATM    4  N   UNL     1      61.997   9.482   0.904  1.00  0.00    -0.302 N 
ATOM      5  HN  UNL     1      61.719   9.827  -0.015  1.00  0.00     0.187 HD
HETATM    6  C   UNL     1      62.368   8.224   1.242  1.00  0.00     0.035 A 
HETATM    7  S   UNL     1      62.791   9.547   4.719  1.00  0.00    -0.072 SA
HETATM    8  C   UNL     1      63.090   7.233   3.523  1.00  0.00     0.033 A 
HETATM    9  C   UNL     1      63.212   7.847   4.775  1.00  0.00     0.009 A 
HETATM   10  C   UNL     1      61.757  11.589   2.107  1.00  0.00     0.178 C 
HETATM   11  C   UNL     1      62.408   7.151   0.225  1.00  0.00     0.070 C 
ENDROOT
BRANCH   9  12
HETATM   12  C   UNL     1      63.641   7.246   6.072  1.00  0.00     0.210 C 
BRANCH  12  13
HETATM   13  O   UNL     1      62.724   7.681   7.067  1.00  0.00    -0.396 OA
HETATM   14  H   UNL     1      62.995   7.331   7.931  1.00  0.00     0.209 HD
ENDBRANCH  12  13
ENDBRANCH   9  12
TORSDOF 2
ENDMDL
MODEL 5
REMARK VINA RESULT:      -4.2      2.791      4.074
REMARK  2 active torsions:
REMARK  status: ('A' for Active; 'I' for Inactive)
REMARK    1  A    between atoms: C_9  and  C_12 
REMARK    2  A    between atoms: C_12  and  O_13 
ROOT
HETATM    1  C   UNL     1      63.389   8.198   3.710  1.00  0.00     0.103 A 
HETATM    2  C   UNL     1      62.733   9.347   3.885  1.00  0.00     0.024 A 
HETATM    3  N   UNL     1      64.276   8.098   4.720  1.00  0.00    -0.289 N 
HETATM    4  N   UNL     1      64.208   9.172   5.562  1.00  0.00    -0.302 N 
ATOM      5  HN  UNL     1      64.763   9.345   6.400  1.00  0.00     0.187 HD
HETATM    6  C   UNL     1      63.237   9.954   5.032  1.00  0.00     0.035 A 
HETATM    7  S   UNL     1      62.915   7.332   2.379  1.00  0.00    -0.072 SA
HETATM    8  C   UNL     1      61.768   9.624   2.925  1.00  0.00     0.033 A 
HETATM    9  C   UNL     1      61.745   8.578   1.996  1.00  0.00     0.009 A 
HETATM   10  C   UNL     1      65.216   7.035   4.963  1.00  0.00     0.178 C 
HETATM   11  C   UNL     1      62.867  11.235   5.672  1.00  0.00     0.070 C 
ENDROOT
BRANCH   9  12
HETATM   12  C   UNL     1      60.889   8.424   0.783  1.00  0.00     0.210 C 
BRANCH  12  13
HETATM   13  O   UNL     1      59.541   8.620   1.185  1.00  0.00    -0.396 OA
HETATM   14  H   UNL     1      58.991   8.783   0.403  1.00  0.00     0.209 HD
ENDBRANCH  12  13
ENDBRANCH   9  12
TORSDOF 2
ENDMDL
MODEL 6
REMARK VINA RESULT:      -4.2      2.261      2.994
REMARK  2 active torsions:
REMARK  status: ('A' for Active; 'I' for Inactive)
REMARK    1  A    between atoms: C_9  and  C_12 
REMARK    2  A    between atoms: C_12  and  O_13 
ROOT
HETATM    1  C   UNL     1      61.978   7.908   2.696  1.00  0.00     0.103 A 
HETATM    2  C   UNL     1      62.319   9.131   3.108  1.00  0.00     0.024 A 
HETATM    3  N   UNL     1      61.220   8.066   1.592  1.00  0.00    -0.289 N 
HETATM    4  N   UNL     1      61.060   9.385   1.272  1.00  0.00    -0.302 N 
ATOM      5  HN  UNL     1      60.538   9.780   0.491  1.00  0.00     0.187 HD
HETATM    6  C   UNL     1      61.752  10.049   2.229  1.00  0.00     0.035 A 
HETATM    7  S   UNL     1      62.572   6.676   3.632  1.00  0.00    -0.072 SA
HETATM    8  C   UNL     1      63.109   9.166   4.250  1.00  0.00     0.033 A 
HETATM    9  C   UNL     1      63.342   7.854   4.676  1.00  0.00     0.009 A 
HETATM   10  C   UNL     1      60.612   7.039   0.788  1.00  0.00     0.178 C 
HETATM   11  C   UNL     1      61.815  11.527   2.226  1.00  0.00     0.070 C 
ENDROOT
BRANCH   9  12
HETATM   12  C   UNL     1      64.124   7.378   5.855  1.00  0.00     0.210 C 
BRANCH  12  13
HETATM   13  O   UNL     1      63.328   7.596   7.011  1.00  0.00    -0.396 OA
HETATM   14  H   UNL     1      63.769   7.210   7.784  1.00  0.00     0.209 HD
ENDBRANCH  12  13
ENDBRANCH   9  12
TORSDOF 2
ENDMDL
MODEL 7
REMARK VINA RESULT:      -4.0      4.522      5.937
REMARK  2 active torsions:
REMARK  status: ('A' for Active; 'I' for Inactive)
REMARK    1  A    between atoms: C_9  and  C_12 
REMARK    2  A    between atoms: C_12  and  O_13 
ROOT
HETATM    1  C   UNL     1      65.104   5.308   6.718  1.00  0.00     0.103 A 
HETATM    2  C   UNL     1      66.009   6.122   7.263  1.00  0.00     0.024 A 
HETATM    3  N   UNL     1      65.263   4.102   7.301  1.00  0.00    -0.289 N 
HETATM    4  N   UNL     1      66.266   4.117   8.229  1.00  0.00    -0.302 N 
ATOM      5  HN  UNL     1      66.590   3.345   8.811  1.00  0.00     0.187 HD
HETATM    6  C   UNL     1      66.732   5.389   8.200  1.00  0.00     0.035 A 
HETATM    7  S   UNL     1      64.143   6.018   5.569  1.00  0.00    -0.072 SA
HETATM    8  C   UNL     1      65.997   7.423   6.777  1.00  0.00     0.033 A 
HETATM    9  C   UNL     1      64.995   7.530   5.805  1.00  0.00     0.009 A 
HETATM   10  C   UNL     1      64.521   2.896   7.044  1.00  0.00     0.178 C 
HETATM   11  C   UNL     1      67.845   5.805   9.081  1.00  0.00     0.070 C 
ENDROOT
BRANCH   9  12
HETATM   12  C   UNL     1      64.602   8.720   4.994  1.00  0.00     0.210 C 
BRANCH  12  13
HETATM   13  O   UNL     1      64.673   9.857   5.843  1.00  0.00    -0.396 OA
HETATM   14  H   UNL     1      65.600  10.118   5.957  1.00  0.00     0.209 HD
ENDBRANCH  12  13
ENDBRANCH   9  12
TORSDOF 2
ENDMDL
MODEL 8
REMARK VINA RESULT:      -3.8      2.337      3.299
REMARK  2 active torsions:
REMARK  status: ('A' for Active; 'I' for Inactive)
REMARK    1  A    between atoms: C_9  and  C_12 
REMARK    2  A    between atoms: C_12  and  O_13 
ROOT
HETATM    1  C   UNL     1      64.693   8.330   4.987  1.00  0.00     0.103 A 
HETATM    2  C   UNL     1      64.260   7.616   3.946  1.00  0.00     0.024 A 
HETATM    3  N   UNL     1      65.766   7.682   5.485  1.00  0.00    -0.289 N 
HETATM    4  N   UNL     1      66.045   6.547   4.777  1.00  0.00    -0.302 N 
ATOM      5  HN  UNL     1      66.798   5.878   4.939  1.00  0.00     0.187 HD
HETATM    6  C   UNL     1      65.095   6.510   3.811  1.00  0.00     0.035 A 
HETATM    7  S   UNL     1      63.810   9.697   5.298  1.00  0.00    -0.072 SA
HETATM    8  C   UNL     1      63.145   8.136   3.301  1.00  0.00     0.033 A 
HETATM    9  C   UNL     1      62.762   9.317   3.947  1.00  0.00     0.009 A 
HETATM   10  C   UNL     1      66.576   8.058   6.613  1.00  0.00     0.178 C 
HETATM   11  C   UNL     1      65.061   5.406   2.827  1.00  0.00     0.070 C 
ENDROOT
BRANCH   9  12
HETATM   12  C   UNL     1      61.623  10.228   3.631  1.00  0.00     0.210 C 
BRANCH  12  13
HETATM   13  O   UNL     1      62.075  11.560   3.829  1.00  0.00    -0.396 OA
HETATM   14  H   UNL     1      62.774  11.568   4.502  1.00  0.00     0.209 HD
ENDBRANCH  12  13
ENDBRANCH   9  12
TORSDOF 2
ENDMDL
MODEL 9
REMARK VINA RESULT:      -3.8      2.527      3.539
REMARK  2 active torsions:
REMARK  status: ('A' for Active; 'I' for Inactive)
REMARK    1  A    between atoms: C_9  and  C_12 
REMARK    2  A    between atoms: C_12  and  O_13 
ROOT
HETATM    1  C   UNL     1      62.297   7.311   4.639  1.00  0.00     0.103 A 
HETATM    2  C   UNL     1      63.368   7.940   5.126  1.00  0.00     0.024 A 
HETATM    3  N   UNL     1      62.402   6.018   5.009  1.00  0.00    -0.289 N 
HETATM    4  N   UNL     1      63.535   5.791   5.739  1.00  0.00    -0.302 N 
ATOM      5  HN  UNL     1      63.854   4.909   6.140  1.00  0.00     0.187 HD
HETATM    6  C   UNL     1      64.138   7.002   5.809  1.00  0.00     0.035 A 
HETATM    7  S   UNL     1      61.257   8.282   3.789  1.00  0.00    -0.072 SA
HETATM    8  C   UNL     1      63.434   9.297   4.839  1.00  0.00     0.033 A 
HETATM    9  C   UNL     1      62.310   9.651   4.084  1.00  0.00     0.009 A 
HETATM   10  C   UNL     1      61.491   4.943   4.718  1.00  0.00     0.178 C 
HETATM   11  C   UNL     1      65.419   7.166   6.531  1.00  0.00     0.070 C 
ENDROOT
BRANCH   9  12
HETATM   12  C   UNL     1      61.937  10.986   3.531  1.00  0.00     0.210 C 
BRANCH  12  13
HETATM   13  O   UNL     1      62.117  11.942   4.566  1.00  0.00    -0.396 OA
HETATM   14  H   UNL     1      62.727  11.587   5.231  1.00  0.00     0.209 HD
ENDBRANCH  12  13
ENDBRANCH   9  12
TORSDOF 2
ENDMDL
