MODEL 1
REMARK VINA RESULT:      -4.7      0.000      0.000
REMARK  3 active torsions:
REMARK  status: ('A' for Active; 'I' for Inactive)
REMARK    1  A    between atoms: C_1  and  N_2 
REMARK    2  A    between atoms: C_3  and  C_11 
REMARK    3  A    between atoms: C_11  and  O_12 
ROOT
HETATM    1  C   UNL     1      63.410   8.920   4.551  1.00  0.00     0.054 A 
HETATM    2  C   UNL     1      62.908  10.191   4.809  1.00  0.00     0.033 A 
HETATM    3  S   UNL     1      61.969  10.770   3.482  1.00  0.00    -0.102 SA
HETATM    4  C   UNL     1      62.986   8.438   3.267  1.00  0.00     0.038 A 
HETATM    5  C   UNL     1      62.215   9.349   2.582  1.00  0.00     0.052 A 
ENDROOT
BRANCH   1   6
HETATM    6  N   UNL     1      64.237   8.131   5.422  1.00  0.00    -0.332 N 
HETATM    7  C   UNL     1      65.612   8.252   5.551  1.00  0.00     0.096 A 
HETATM    8  C   UNL     1      66.075   7.304   6.435  1.00  0.00     0.019 A 
HETATM    9  C   UNL     1      64.953   6.603   6.916  1.00  0.00     0.019 A 
HETATM   10  C   UNL     1      63.846   7.132   6.293  1.00  0.00     0.096 A 
ENDBRANCH   1   6
BRANCH   2  11
HETATM   11  C   UNL     1      62.998  11.077   6.014  1.00  0.00     0.212 C 
BRANCH  11  12
HETATM   12  O   UNL     1      64.364  11.401   6.229  1.00  0.00    -0.396 OA
HETATM   13  H   UNL     1      64.523  12.324   5.974  1.00  0.00     0.209 HD
ENDBRANCH  11  12
ENDBRANCH   2  11
TORSDOF 3
ENDMDL
MODEL 2
REMARK VINA RESULT:      -4.4      2.317      4.356
REMARK  3 active torsions:
REMARK  status: ('A' for Active; 'I' for Inactive)
REMARK    1  A    between atoms: C_1  and  N_2 
REMARK    2  A    between atoms: C_3  and  C_11 
REMARK    3  A    between atoms: C_11  and  O_12 
ROOT
HETATM    1  C   UNL     1      62.541   8.022   4.508  1.00  0.00     0.054 A 
HETATM    2  C   UNL     1      63.732   7.771   5.184  1.00  0.00     0.033 A 
HETATM    3  S   UNL     1      63.575   6.416   6.239  1.00  0.00    -0.102 SA
HETATM    4  C   UNL     1      61.527   7.067   4.860  1.00  0.00     0.038 A 
HETATM    5  C   UNL     1      61.955   6.156   5.798  1.00  0.00     0.052 A 
ENDROOT
BRANCH   1   6
HETATM    6  N   UNL     1      62.299   9.071   3.556  1.00  0.00    -0.332 N 
HETATM    7  C   UNL     1      62.061  10.400   3.871  1.00  0.00     0.096 A 
HETATM    8  C   UNL     1      61.821  11.108   2.715  1.00  0.00     0.019 A 
HETATM    9  C   UNL     1      61.966  10.210   1.641  1.00  0.00     0.019 A 
HETATM   10  C   UNL     1      62.267   8.979   2.178  1.00  0.00     0.096 A 
ENDBRANCH   1   6
BRANCH   2  11
HETATM   11  C   UNL     1      65.080   8.421   5.109  1.00  0.00     0.212 C 
BRANCH  11  12
HETATM   12  O   UNL     1      65.051   9.604   5.896  1.00  0.00    -0.396 OA
HETATM   13  H   UNL     1      64.169  10.006   5.845  1.00  0.00     0.209 HD
ENDBRANCH  11  12
ENDBRANCH   2  11
TORSDOF 3
ENDMDL
MODEL 3
REMARK VINA RESULT:      -4.0      2.557      4.562
REMARK  3 active torsions:
REMARK  status: ('A' for Active; 'I' for Inactive)
REMARK    1  A    between atoms: C_1  and  N_2 
REMARK    2  A    between atoms: C_3  and  C_11 
REMARK    3  A    between atoms: C_11  and  O_12 
ROOT
HETATM    1  C   UNL     1      64.268   8.070   5.360  1.00  0.00     0.054 A 
HETATM    2  C   UNL     1      63.940   6.888   6.015  1.00  0.00     0.033 A 
HETATM    3  S   UNL     1      65.310   6.223   6.825  1.00  0.00    -0.102 SA
HETATM    4  C   UNL     1      65.647   8.418   5.564  1.00  0.00     0.038 A 
HETATM    5  C   UNL     1      66.324   7.493   6.326  1.00  0.00     0.052 A 
ENDROOT
BRANCH   1   6
HETATM    6  N   UNL     1      63.385   8.894   4.580  1.00  0.00    -0.332 N 
HETATM    7  C   UNL     1      62.930   8.597   3.305  1.00  0.00     0.096 A 
HETATM    8  C   UNL     1      62.145   9.632   2.847  1.00  0.00     0.019 A 
HETATM    9  C   UNL     1      62.061  10.579   3.885  1.00  0.00     0.019 A 
HETATM   10  C   UNL     1      62.816  10.102   4.932  1.00  0.00     0.096 A 
ENDBRANCH   1   6
BRANCH   2  11
HETATM   11  C   UNL     1      62.640   6.159   6.171  1.00  0.00     0.212 C 
BRANCH  11  12
HETATM   12  O   UNL     1      61.758   6.973   6.931  1.00  0.00    -0.396 OA
HETATM   13  H   UNL     1      62.140   7.134   7.809  1.00  0.00     0.209 HD
ENDBRANCH  11  12
ENDBRANCH   2  11
TORSDOF 3
ENDMDL
MODEL 4
REMARK VINA RESULT:      -3.8      3.604      5.557
REMARK  3 active torsions:
REMARK  status: ('A' for Active; 'I' for Inactive)
REMARK    1  A    between atoms: C_1  and  N_2 
REMARK    2  A    between atoms: C_3  and  C_11 
REMARK    3  A    between atoms: C_11  and  O_12 
ROOT
HETATM    1  C   UNL     1      66.058   6.564   6.886  1.00  0.00     0.054 A 
HETATM    2  C   UNL     1      67.001   5.722   6.306  1.00  0.00     0.033 A 
HETATM    3  S   UNL     1      68.075   5.079   7.493  1.00  0.00    -0.102 SA
HETATM    4  C   UNL     1      66.226   6.640   8.311  1.00  0.00     0.038 A 
HETATM    5  C   UNL     1      67.291   5.895   8.762  1.00  0.00     0.052 A 
ENDROOT
BRANCH   1   6
HETATM    6  N   UNL     1      65.013   7.280   6.207  1.00  0.00    -0.332 N 
HETATM    7  C   UNL     1      65.198   8.385   5.390  1.00  0.00     0.096 A 
HETATM    8  C   UNL     1      63.975   8.841   4.952  1.00  0.00     0.019 A 
HETATM    9  C   UNL     1      62.999   7.963   5.463  1.00  0.00     0.019 A 
HETATM   10  C   UNL     1      63.657   7.017   6.215  1.00  0.00     0.096 A 
ENDBRANCH   1   6
BRANCH   2  11
HETATM   11  C   UNL     1      67.197   5.261   4.894  1.00  0.00     0.212 C 
BRANCH  11  12
HETATM   12  O   UNL     1      67.707   6.349   4.135  1.00  0.00    -0.396 OA
HETATM   13  H   UNL     1      67.259   7.168   4.399  1.00  0.00     0.209 HD
ENDBRANCH  11  12
ENDBRANCH   2  11
TORSDOF 3
ENDMDL
MODEL 5
REMARK VINA RESULT:      -3.7      3.152      4.816
REMARK  3 active torsions:
REMARK  status: ('A' for Active; 'I' for Inactive)
REMARK    1  A    between atoms: C_1  and  N_2 
REMARK    2  A    between atoms: C_3  and  C_11 
REMARK    3  A    between atoms: C_11  and  O_12 
ROOT
HETATM    1  C   UNL     1      60.908   7.406   4.124  1.00  0.00     0.054 A 
HETATM    2  C   UNL     1      61.608   6.862   5.196  1.00  0.00     0.033 A 
HETATM    3  S   UNL     1      60.696   5.618   5.968  1.00  0.00    -0.102 SA
HETATM    4  C   UNL     1      59.637   6.762   3.945  1.00  0.00     0.038 A 
HETATM    5  C   UNL     1      59.395   5.788   4.887  1.00  0.00     0.052 A 
ENDROOT
BRANCH   1   6
HETATM    6  N   UNL     1      61.351   8.463   3.256  1.00  0.00    -0.332 N 
HETATM    7  C   UNL     1      61.593   9.771   3.646  1.00  0.00     0.096 A 
HETATM    8  C   UNL     1      61.954  10.518   2.546  1.00  0.00     0.019 A 
HETATM    9  C   UNL     1      61.993   9.640   1.445  1.00  0.00     0.019 A 
HETATM   10  C   UNL     1      61.633   8.394   1.906  1.00  0.00     0.096 A 
ENDBRANCH   1   6
BRANCH   2  11
HETATM   11  C   UNL     1      62.981   7.129   5.733  1.00  0.00     0.212 C 
BRANCH  11  12
HETATM   12  O   UNL     1      62.855   7.905   6.917  1.00  0.00    -0.396 OA
HETATM   13  H   UNL     1      63.653   7.802   7.459  1.00  0.00     0.209 HD
ENDBRANCH  11  12
ENDBRANCH   2  11
TORSDOF 3
ENDMDL
MODEL 6
REMARK VINA RESULT:      -3.6      3.144      4.263
REMARK  3 active torsions:
REMARK  status: ('A' for Active; 'I' for Inactive)
REMARK    1  A    between atoms: C_1  and  N_2 
REMARK    2  A    between atoms: C_3  and  C_11 
REMARK    3  A    between atoms: C_11  and  O_12 
ROOT
HETATM    1  C   UNL     1      65.530   6.739   6.542  1.00  0.00     0.054 A 
HETATM    2  C   UNL     1      65.893   7.414   5.381  1.00  0.00     0.033 A 
HETATM    3  S   UNL     1      64.502   7.911   4.490  1.00  0.00    -0.102 SA
HETATM    4  C   UNL     1      64.103   6.669   6.686  1.00  0.00     0.038 A 
HETATM    5  C   UNL     1      63.432   7.252   5.635  1.00  0.00     0.052 A 
ENDROOT
BRANCH   1   6
HETATM    6  N   UNL     1      66.420   6.177   7.521  1.00  0.00    -0.332 N 
HETATM    7  C   UNL     1      66.806   4.847   7.584  1.00  0.00     0.096 A 
HETATM    8  C   UNL     1      67.621   4.658   8.678  1.00  0.00     0.019 A 
HETATM    9  C   UNL     1      67.796   5.916   9.286  1.00  0.00     0.019 A 
HETATM   10  C   UNL     1      67.063   6.825   8.558  1.00  0.00     0.096 A 
ENDBRANCH   1   6
BRANCH   2  11
HETATM   11  C   UNL     1      67.228   7.810   4.829  1.00  0.00     0.212 C 
BRANCH  11  12
HETATM   12  O   UNL     1      67.593   6.872   3.826  1.00  0.00    -0.396 OA
HETATM   13  H   UNL     1      68.425   6.438   4.074  1.00  0.00     0.209 HD
ENDBRANCH  11  12
ENDBRANCH   2  11
TORSDOF 3
ENDMDL
MODEL 7
REMARK VINA RESULT:      -3.6      2.685      4.567
REMARK  3 active torsions:
REMARK  status: ('A' for Active; 'I' for Inactive)
REMARK    1  A    between atoms: C_1  and  N_2 
REMARK    2  A    between atoms: C_3  and  C_11 
REMARK    3  A    between atoms: C_11  and  O_12 
ROOT
HETATM    1  C   UNL     1      64.593   6.755   5.707  1.00  0.00     0.054 A 
HETATM    2  C   UNL     1      65.890   6.907   6.186  1.00  0.00     0.033 A 
HETATM    3  S   UNL     1      66.343   5.579   7.189  1.00  0.00    -0.102 SA
HETATM    4  C   UNL     1      64.007   5.524   6.159  1.00  0.00     0.038 A 
HETATM    5  C   UNL     1      64.845   4.804   6.980  1.00  0.00     0.052 A 
ENDROOT
BRANCH   1   6
HETATM    6  N   UNL     1      63.882   7.665   4.851  1.00  0.00    -0.332 N 
HETATM    7  C   UNL     1      63.360   8.889   5.239  1.00  0.00     0.096 A 
HETATM    8  C   UNL     1      62.702   9.465   4.176  1.00  0.00     0.019 A 
HETATM    9  C   UNL     1      62.862   8.603   3.074  1.00  0.00     0.019 A 
HETATM   10  C   UNL     1      63.592   7.520   3.508  1.00  0.00     0.096 A 
ENDBRANCH   1   6
BRANCH   2  11
HETATM   11  C   UNL     1      66.929   7.959   5.943  1.00  0.00     0.212 C 
BRANCH  11  12
HETATM   12  O   UNL     1      66.852   8.914   6.993  1.00  0.00    -0.396 OA
HETATM   13  H   UNL     1      67.126   8.503   7.827  1.00  0.00     0.209 HD
ENDBRANCH  11  12
ENDBRANCH   2  11
TORSDOF 3
ENDMDL
MODEL 8
REMARK VINA RESULT:      -3.5      2.405      2.707
REMARK  3 active torsions:
REMARK  status: ('A' for Active; 'I' for Inactive)
REMARK    1  A    between atoms: C_1  and  N_2 
REMARK    2  A    between atoms: C_3  and  C_11 
REMARK    3  A    between atoms: C_11  and  O_12 
ROOT
HETATM    1  C   UNL     1      63.229   7.695   3.848  1.00  0.00     0.054 A 
HETATM    2  C   UNL     1      62.129   7.376   4.637  1.00  0.00     0.033 A 
HETATM    3  S   UNL     1      60.653   7.753   3.828  1.00  0.00    -0.102 SA
HETATM    4  C   UNL     1      62.827   8.223   2.574  1.00  0.00     0.038 A 
HETATM    5  C   UNL     1      61.461   8.319   2.444  1.00  0.00     0.052 A 
ENDROOT
BRANCH   1   6
HETATM    6  N   UNL     1      64.614   7.526   4.196  1.00  0.00    -0.332 N 
HETATM    7  C   UNL     1      65.449   6.535   3.705  1.00  0.00     0.096 A 
HETATM    8  C   UNL     1      66.689   6.647   4.293  1.00  0.00     0.019 A 
HETATM    9  C   UNL     1      66.647   7.774   5.135  1.00  0.00     0.019 A 
HETATM   10  C   UNL     1      65.377   8.298   5.050  1.00  0.00     0.096 A 
ENDBRANCH   1   6
BRANCH   2  11
HETATM   11  C   UNL     1      62.019   6.740   5.989  1.00  0.00     0.212 C 
BRANCH  11  12
HETATM   12  O   UNL     1      62.550   7.639   6.952  1.00  0.00    -0.396 OA
HETATM   13  H   UNL     1      63.516   7.671   6.868  1.00  0.00     0.209 HD
ENDBRANCH  11  12
ENDBRANCH   2  11
TORSDOF 3
ENDMDL
MODEL 9
REMARK VINA RESULT:      -3.2      3.566      4.587
REMARK  3 active torsions:
REMARK  status: ('A' for Active; 'I' for Inactive)
REMARK    1  A    between atoms: C_1  and  N_2 
REMARK    2  A    between atoms: C_3  and  C_11 
REMARK    3  A    between atoms: C_11  and  O_12 
ROOT
HETATM    1  C   UNL     1      61.898   8.068   2.974  1.00  0.00     0.054 A 
HETATM    2  C   UNL     1      60.688   7.384   2.909  1.00  0.00     0.033 A 
HETATM    3  S   UNL     1      60.768   6.084   1.778  1.00  0.00    -0.102 SA
HETATM    4  C   UNL     1      62.879   7.484   2.102  1.00  0.00     0.038 A 
HETATM    5  C   UNL     1      62.389   6.414   1.388  1.00  0.00     0.052 A 
ENDROOT
BRANCH   1   6
HETATM    6  N   UNL     1      62.198   9.206   3.799  1.00  0.00    -0.332 N 
HETATM    7  C   UNL     1      61.817  10.512   3.533  1.00  0.00     0.096 A 
HETATM    8  C   UNL     1      62.320  11.344   4.508  1.00  0.00     0.019 A 
HETATM    9  C   UNL     1      62.989  10.530   5.442  1.00  0.00     0.019 A 
HETATM   10  C   UNL     1      62.892   9.233   4.993  1.00  0.00     0.096 A 
ENDBRANCH   1   6
BRANCH   2  11
HETATM   11  C   UNL     1      59.405   7.549   3.664  1.00  0.00     0.212 C 
BRANCH  11  12
HETATM   12  O   UNL     1      58.361   6.950   2.908  1.00  0.00    -0.396 OA
HETATM   13  H   UNL     1      57.674   7.609   2.723  1.00  0.00     0.209 HD
ENDBRANCH  11  12
ENDBRANCH   2  11
TORSDOF 3
ENDMDL
