MODEL 1
REMARK VINA RESULT:      -3.6      0.000      0.000
REMARK  2 active torsions:
REMARK  status: ('A' for Active; 'I' for Inactive)
REMARK    1  A    between atoms: C_2  and  C_7 
REMARK    2  A    between atoms: C_7  and  N_8 
ROOT
HETATM    1  N   UNL     1      62.336   9.267   2.630  1.00  0.00    -0.348 N 
HETATM    2  C   UNL     1      62.397   9.773   3.907  1.00  0.00     0.053 A 
HETATM    3  N   UNL     1      61.643  11.367   2.478  1.00  0.00    -0.360 N 
ATOM      4  HN  UNL     1      61.294  12.252   2.107  1.00  0.00     0.166 HD
HETATM    5  C   UNL     1      61.897  10.267   1.809  1.00  0.00     0.182 A 
HETATM    6  C   UNL     1      61.949  11.073   3.779  1.00  0.00     0.115 A 
HETATM    7  C   UNL     1      62.685   7.935   2.205  1.00  0.00     0.157 C 
ENDROOT
BRANCH   2   8
HETATM    8  C   UNL     1      62.861   9.028   5.105  1.00  0.00     0.290 C 
BRANCH   8   9
HETATM    9  N   UNL     1      64.237   9.363   5.478  1.00  0.00    -0.074 N 
HETATM   10  C   UNL     1      65.177   8.297   5.145  1.00  0.00     0.267 C 
HETATM   11  H   UNL     1      64.272   9.530   6.484  1.00  0.00     0.277 HD
HETATM   12  H   UNL     1      64.508  10.195   4.954  1.00  0.00     0.277 HD
ENDBRANCH   8   9
ENDBRANCH   2   8
TORSDOF 2
ENDMDL
MODEL 2
REMARK VINA RESULT:      -3.3      1.310      2.094
REMARK  2 active torsions:
REMARK  status: ('A' for Active; 'I' for Inactive)
REMARK    1  A    between atoms: C_2  and  C_7 
REMARK    2  A    between atoms: C_7  and  N_8 
ROOT
HETATM    1  N   UNL     1      62.375  10.665   4.232  1.00  0.00    -0.348 N 
HETATM    2  C   UNL     1      62.383   9.384   3.732  1.00  0.00     0.053 A 
HETATM    3  N   UNL     1      61.552  10.814   2.179  1.00  0.00    -0.360 N 
ATOM      4  HN  UNL     1      61.160  11.186   1.312  1.00  0.00     0.166 HD
HETATM    5  C   UNL     1      61.850  11.481   3.269  1.00  0.00     0.182 A 
HETATM    6  C   UNL     1      61.878   9.513   2.454  1.00  0.00     0.115 A 
HETATM    7  C   UNL     1      62.815  11.093   5.535  1.00  0.00     0.157 C 
ENDROOT
BRANCH   2   8
HETATM    8  C   UNL     1      62.840   8.178   4.469  1.00  0.00     0.290 C 
BRANCH   8   9
HETATM    9  N   UNL     1      64.205   7.785   4.113  1.00  0.00    -0.074 N 
HETATM   10  C   UNL     1      65.185   8.230   5.100  1.00  0.00     0.267 C 
HETATM   11  H   UNL     1      64.440   8.197   3.209  1.00  0.00     0.277 HD
HETATM   12  H   UNL     1      64.238   6.767   4.077  1.00  0.00     0.277 HD
ENDBRANCH   8   9
ENDBRANCH   2   8
TORSDOF 2
ENDMDL
MODEL 3
REMARK VINA RESULT:      -3.3      1.758      3.534
REMARK  2 active torsions:
REMARK  status: ('A' for Active; 'I' for Inactive)
REMARK    1  A    between atoms: C_2  and  C_7 
REMARK    2  A    between atoms: C_7  and  N_8 
ROOT
HETATM    1  N   UNL     1      62.836   9.409   3.975  1.00  0.00    -0.348 N 
HETATM    2  C   UNL     1      62.123  10.117   3.036  1.00  0.00     0.053 A 
HETATM    3  N   UNL     1      62.464  11.400   4.878  1.00  0.00    -0.360 N 
ATOM      4  HN  UNL     1      62.456  12.187   5.527  1.00  0.00     0.166 HD
HETATM    5  C   UNL     1      62.998  10.216   5.066  1.00  0.00     0.182 A 
HETATM    6  C   UNL     1      61.919  11.351   3.622  1.00  0.00     0.115 A 
HETATM    7  C   UNL     1      63.320   8.057   3.861  1.00  0.00     0.157 C 
ENDROOT
BRANCH   2   8
HETATM    8  C   UNL     1      61.695   9.598   1.712  1.00  0.00     0.290 C 
BRANCH   8   9
HETATM    9  N   UNL     1      60.411   8.898   1.770  1.00  0.00    -0.074 N 
HETATM   10  C   UNL     1      60.165   8.091   0.578  1.00  0.00     0.267 C 
HETATM   11  H   UNL     1      59.665   9.589   1.858  1.00  0.00     0.277 HD
HETATM   12  H   UNL     1      60.433   8.271   2.573  1.00  0.00     0.277 HD
ENDBRANCH   8   9
ENDBRANCH   2   8
TORSDOF 2
ENDMDL
MODEL 4
REMARK VINA RESULT:      -3.2     12.430     13.743
REMARK  2 active torsions:
REMARK  status: ('A' for Active; 'I' for Inactive)
REMARK    1  A    between atoms: C_2  and  C_7 
REMARK    2  A    between atoms: C_7  and  N_8 
ROOT
HETATM    1  N   UNL     1      57.542   2.189  12.231  1.00  0.00    -0.348 N 
HETATM    2  C   UNL     1      57.079   1.898  13.492  1.00  0.00     0.053 A 
HETATM    3  N   UNL     1      59.349   1.940  13.492  1.00  0.00    -0.360 N 
ATOM      4  HN  UNL     1      60.320   1.894  13.801  1.00  0.00     0.166 HD
HETATM    5  C   UNL     1      58.908   2.183  12.279  1.00  0.00     0.182 A 
HETATM    6  C   UNL     1      58.224   1.762  14.252  1.00  0.00     0.115 A 
HETATM    7  C   UNL     1      56.753   2.438  11.050  1.00  0.00     0.157 C 
ENDROOT
BRANCH   2   8
HETATM    8  C   UNL     1      55.650   1.767  13.873  1.00  0.00     0.290 C 
BRANCH   8   9
HETATM    9  N   UNL     1      55.183   2.882  14.700  1.00  0.00    -0.074 N 
HETATM   10  C   UNL     1      54.558   3.937  13.906  1.00  0.00     0.267 C 
HETATM   11  H   UNL     1      55.981   3.276  15.199  1.00  0.00     0.277 HD
HETATM   12  H   UNL     1      54.483   2.520  15.346  1.00  0.00     0.277 HD
ENDBRANCH   8   9
ENDBRANCH   2   8
TORSDOF 2
ENDMDL
MODEL 5
REMARK VINA RESULT:      -3.2      1.208      3.503
REMARK  2 active torsions:
REMARK  status: ('A' for Active; 'I' for Inactive)
REMARK    1  A    between atoms: C_2  and  C_7 
REMARK    2  A    between atoms: C_7  and  N_8 
ROOT
HETATM    1  N   UNL     1      63.654   8.115   3.857  1.00  0.00    -0.348 N 
HETATM    2  C   UNL     1      62.772   9.161   3.994  1.00  0.00     0.053 A 
HETATM    3  N   UNL     1      64.355   9.265   5.618  1.00  0.00    -0.360 N 
ATOM      4  HN  UNL     1      64.899   9.573   6.425  1.00  0.00     0.166 HD
HETATM    5  C   UNL     1      64.571   8.212   4.866  1.00  0.00     0.182 A 
HETATM    6  C   UNL     1      63.243   9.862   5.087  1.00  0.00     0.115 A 
HETATM    7  C   UNL     1      63.626   7.080   2.855  1.00  0.00     0.157 C 
ENDROOT
BRANCH   2   8
HETATM    8  C   UNL     1      61.594   9.411   3.125  1.00  0.00     0.290 C 
BRANCH   8   9
HETATM    9  N   UNL     1      61.937  10.156   1.913  1.00  0.00    -0.074 N 
HETATM   10  C   UNL     1      61.781  11.598   2.086  1.00  0.00     0.267 C 
HETATM   11  H   UNL     1      61.326   9.848   1.155  1.00  0.00     0.277 HD
HETATM   12  H   UNL     1      62.916   9.970   1.699  1.00  0.00     0.277 HD
ENDBRANCH   8   9
ENDBRANCH   2   8
TORSDOF 2
ENDMDL
MODEL 6
REMARK VINA RESULT:      -3.0      3.293      5.175
REMARK  2 active torsions:
REMARK  status: ('A' for Active; 'I' for Inactive)
REMARK    1  A    between atoms: C_2  and  C_7 
REMARK    2  A    between atoms: C_7  and  N_8 
ROOT
HETATM    1  N   UNL     1      66.454   6.856   4.824  1.00  0.00    -0.348 N 
HETATM    2  C   UNL     1      65.849   7.928   5.437  1.00  0.00     0.053 A 
HETATM    3  N   UNL     1      67.748   7.371   6.548  1.00  0.00    -0.360 N 
ATOM      4  HN  UNL     1      68.511   7.369   7.227  1.00  0.00     0.166 HD
HETATM    5  C   UNL     1      67.577   6.549   5.539  1.00  0.00     0.182 A 
HETATM    6  C   UNL     1      66.684   8.230   6.495  1.00  0.00     0.115 A 
HETATM    7  C   UNL     1      65.997   6.153   3.652  1.00  0.00     0.157 C 
ENDROOT
BRANCH   2   8
HETATM    8  C   UNL     1      64.577   8.559   5.004  1.00  0.00     0.290 C 
BRANCH   8   9
HETATM    9  N   UNL     1      63.519   8.441   6.010  1.00  0.00    -0.074 N 
HETATM   10  C   UNL     1      63.077   7.061   6.190  1.00  0.00     0.267 C 
HETATM   11  H   UNL     1      62.722   9.006   5.715  1.00  0.00     0.277 HD
HETATM   12  H   UNL     1      63.897   8.768   6.899  1.00  0.00     0.277 HD
ENDBRANCH   8   9
ENDBRANCH   2   8
TORSDOF 2
ENDMDL
MODEL 7
REMARK VINA RESULT:      -2.9      4.825      6.218
REMARK  2 active torsions:
REMARK  status: ('A' for Active; 'I' for Inactive)
REMARK    1  A    between atoms: C_2  and  C_7 
REMARK    2  A    between atoms: C_7  and  N_8 
ROOT
HETATM    1  N   UNL     1      65.818   6.789   5.907  1.00  0.00    -0.348 N 
HETATM    2  C   UNL     1      66.121   6.209   7.116  1.00  0.00     0.053 A 
HETATM    3  N   UNL     1      66.849   8.359   7.085  1.00  0.00    -0.360 N 
ATOM      4  HN  UNL     1      67.267   9.246   7.367  1.00  0.00     0.166 HD
HETATM    5  C   UNL     1      66.292   8.070   5.932  1.00  0.00     0.182 A 
HETATM    6  C   UNL     1      66.748   7.212   7.827  1.00  0.00     0.115 A 
HETATM    7  C   UNL     1      65.142   6.174   4.792  1.00  0.00     0.157 C 
ENDROOT
BRANCH   2   8
HETATM    8  C   UNL     1      65.817   4.805   7.495  1.00  0.00     0.290 C 
BRANCH   8   9
HETATM    9  N   UNL     1      66.563   4.368   8.677  1.00  0.00    -0.074 N 
HETATM   10  C   UNL     1      67.556   3.345   8.358  1.00  0.00     0.267 C 
HETATM   11  H   UNL     1      65.905   3.986   9.357  1.00  0.00     0.277 HD
HETATM   12  H   UNL     1      67.057   5.178   9.051  1.00  0.00     0.277 HD
ENDBRANCH   8   9
ENDBRANCH   2   8
TORSDOF 2
ENDMDL
MODEL 8
REMARK VINA RESULT:      -2.8      2.679      5.620
REMARK  2 active torsions:
REMARK  status: ('A' for Active; 'I' for Inactive)
REMARK    1  A    between atoms: C_2  and  C_7 
REMARK    2  A    between atoms: C_7  and  N_8 
ROOT
HETATM    1  N   UNL     1      66.576   6.773   6.514  1.00  0.00    -0.348 N 
HETATM    2  C   UNL     1      65.657   7.006   5.518  1.00  0.00     0.053 A 
HETATM    3  N   UNL     1      67.712   6.673   4.612  1.00  0.00    -0.360 N 
ATOM      4  HN  UNL     1      68.468   6.567   3.936  1.00  0.00     0.166 HD
HETATM    5  C   UNL     1      67.795   6.599   5.920  1.00  0.00     0.182 A 
HETATM    6  C   UNL     1      66.391   6.925   4.351  1.00  0.00     0.115 A 
HETATM    7  C   UNL     1      66.330   6.734   7.933  1.00  0.00     0.157 C 
ENDROOT
BRANCH   2   8
HETATM    8  C   UNL     1      64.213   7.284   5.730  1.00  0.00     0.290 C 
BRANCH   8   9
HETATM    9  N   UNL     1      63.914   8.717   5.751  1.00  0.00    -0.074 N 
HETATM   10  C   UNL     1      63.224   9.158   4.542  1.00  0.00     0.267 C 
HETATM   11  H   UNL     1      64.791   9.234   5.836  1.00  0.00     0.277 HD
HETATM   12  H   UNL     1      63.300   8.896   6.545  1.00  0.00     0.277 HD
ENDBRANCH   8   9
ENDBRANCH   2   8
TORSDOF 2
ENDMDL
MODEL 9
REMARK VINA RESULT:      -2.8      5.355      6.629
REMARK  2 active torsions:
REMARK  status: ('A' for Active; 'I' for Inactive)
REMARK    1  A    between atoms: C_2  and  C_7 
REMARK    2  A    between atoms: C_7  and  N_8 
ROOT
HETATM    1  N   UNL     1      65.722   5.095   6.459  1.00  0.00    -0.348 N 
HETATM    2  C   UNL     1      66.027   6.250   7.139  1.00  0.00     0.053 A 
HETATM    3  N   UNL     1      66.222   4.463   8.525  1.00  0.00    -0.360 N 
ATOM      4  HN  UNL     1      66.394   3.891   9.352  1.00  0.00     0.166 HD
HETATM    5  C   UNL     1      65.836   4.055   7.339  1.00  0.00     0.182 A 
HETATM    6  C   UNL     1      66.344   5.822   8.413  1.00  0.00     0.115 A 
HETATM    7  C   UNL     1      65.332   4.975   5.077  1.00  0.00     0.157 C 
ENDROOT
BRANCH   2   8
HETATM    8  C   UNL     1      65.990   7.620   6.564  1.00  0.00     0.290 C 
BRANCH   8   9
HETATM    9  N   UNL     1      67.325   8.207   6.425  1.00  0.00    -0.074 N 
HETATM   10  C   UNL     1      67.962   7.842   5.163  1.00  0.00     0.267 C 
HETATM   11  H   UNL     1      67.909   7.878   7.195  1.00  0.00     0.277 HD
HETATM   12  H   UNL     1      67.223   9.221   6.443  1.00  0.00     0.277 HD
ENDBRANCH   8   9
ENDBRANCH   2   8
TORSDOF 2
ENDMDL
