MODEL 1
REMARK VINA RESULT:      -5.0      0.000      0.000
REMARK  4 active torsions:
REMARK  status: ('A' for Active; 'I' for Inactive)
REMARK    1  A    between atoms: N_1  and  C_7 
REMARK    2  A    between atoms: C_2  and  C_9 
REMARK    3  A    between atoms: C_7  and  C_8 
REMARK    4  A    between atoms: C_9  and  O_10 
ROOT
HETATM    1  N   UNL     1      62.656   9.405   4.439  1.00  0.00    -0.339 N 
HETATM    2  C   UNL     1      62.575  10.731   4.793  1.00  0.00     0.107 A 
HETATM    3  N   UNL     1      62.112  11.453   3.786  1.00  0.00    -0.352 N 
ATOM      4  HN  UNL     1      61.951  12.460   3.775  1.00  0.00     0.166 HD
HETATM    5  C   UNL     1      61.892  10.572   2.762  1.00  0.00     0.106 A 
HETATM    6  C   UNL     1      62.225   9.294   3.141  1.00  0.00     0.109 A 
ENDROOT
BRANCH   1   7
HETATM    7  C   UNL     1      63.115   8.293   5.262  1.00  0.00     0.168 C 
BRANCH   7   8
HETATM    8  C   UNL     1      64.435   7.705   4.820  1.00  0.00    -0.040 A 
HETATM    9  C   UNL     1      64.527   6.641   3.908  1.00  0.00     0.009 A 
HETATM   10  C   UNL     1      65.767   6.111   3.551  1.00  0.00     0.001 A 
HETATM   11  C   UNL     1      66.935   6.661   4.069  1.00  0.00     0.000 A 
HETATM   12  C   UNL     1      66.866   7.748   4.937  1.00  0.00     0.001 A 
HETATM   13  C   UNL     1      65.625   8.269   5.308  1.00  0.00     0.009 A 
ENDBRANCH   7   8
ENDBRANCH   1   7
BRANCH   2  14
HETATM   14  C   UNL     1      62.925  11.275   6.139  1.00  0.00     0.240 C 
BRANCH  14  15
HETATM   15  O   UNL     1      64.343  11.426   6.194  1.00  0.00    -0.393 OA
HETATM   16  H   UNL     1      64.700  10.868   6.903  1.00  0.00     0.209 HD
ENDBRANCH  14  15
ENDBRANCH   2  14
TORSDOF 4
ENDMDL
MODEL 2
REMARK VINA RESULT:      -4.9      2.386      4.780
REMARK  4 active torsions:
REMARK  status: ('A' for Active; 'I' for Inactive)
REMARK    1  A    between atoms: N_1  and  C_7 
REMARK    2  A    between atoms: C_2  and  C_9 
REMARK    3  A    between atoms: C_7  and  C_8 
REMARK    4  A    between atoms: C_9  and  O_10 
ROOT
HETATM    1  N   UNL     1      64.493   7.405   4.840  1.00  0.00    -0.339 N 
HETATM    2  C   UNL     1      64.197   6.857   6.065  1.00  0.00     0.107 A 
HETATM    3  N   UNL     1      65.168   7.099   6.930  1.00  0.00    -0.352 N 
ATOM      4  HN  UNL     1      65.207   6.810   7.907  1.00  0.00     0.166 HD
HETATM    5  C   UNL     1      66.110   7.818   6.243  1.00  0.00     0.106 A 
HETATM    6  C   UNL     1      65.716   8.018   4.942  1.00  0.00     0.109 A 
ENDROOT
BRANCH   1   7
HETATM    7  C   UNL     1      63.683   7.360   3.628  1.00  0.00     0.168 C 
BRANCH   7   8
HETATM    8  C   UNL     1      62.991   8.664   3.302  1.00  0.00    -0.040 A 
HETATM    9  C   UNL     1      62.514   8.972   2.018  1.00  0.00     0.009 A 
HETATM   10  C   UNL     1      61.908  10.202   1.758  1.00  0.00     0.001 A 
HETATM   11  C   UNL     1      61.735  11.125   2.785  1.00  0.00     0.000 A 
HETATM   12  C   UNL     1      62.158  10.816   4.075  1.00  0.00     0.001 A 
HETATM   13  C   UNL     1      62.779   9.592   4.334  1.00  0.00     0.009 A 
ENDBRANCH   7   8
ENDBRANCH   1   7
BRANCH   2  14
HETATM   14  C   UNL     1      62.936   6.123   6.387  1.00  0.00     0.240 C 
BRANCH  14  15
HETATM   15  O   UNL     1      61.973   7.080   6.826  1.00  0.00    -0.393 OA
HETATM   16  H   UNL     1      61.605   6.801   7.679  1.00  0.00     0.209 HD
ENDBRANCH  14  15
ENDBRANCH   2  14
TORSDOF 4
ENDMDL
MODEL 3
REMARK VINA RESULT:      -4.8      2.100      4.565
REMARK  4 active torsions:
REMARK  status: ('A' for Active; 'I' for Inactive)
REMARK    1  A    between atoms: N_1  and  C_7 
REMARK    2  A    between atoms: C_2  and  C_9 
REMARK    3  A    between atoms: C_7  and  C_8 
REMARK    4  A    between atoms: C_9  and  O_10 
ROOT
HETATM    1  N   UNL     1      63.455   7.809   5.743  1.00  0.00    -0.339 N 
HETATM    2  C   UNL     1      64.715   7.262   5.771  1.00  0.00     0.107 A 
HETATM    3  N   UNL     1      64.658   5.981   6.101  1.00  0.00    -0.352 N 
ATOM      4  HN  UNL     1      65.442   5.336   6.195  1.00  0.00     0.166 HD
HETATM    5  C   UNL     1      63.332   5.702   6.290  1.00  0.00     0.106 A 
HETATM    6  C   UNL     1      62.564   6.822   6.077  1.00  0.00     0.109 A 
ENDROOT
BRANCH   1   7
HETATM    7  C   UNL     1      63.093   9.186   5.425  1.00  0.00     0.168 C 
BRANCH   7   8
HETATM    8  C   UNL     1      62.676   9.395   3.987  1.00  0.00    -0.040 A 
HETATM    9  C   UNL     1      62.817   8.404   3.002  1.00  0.00     0.009 A 
HETATM   10  C   UNL     1      62.446   8.653   1.680  1.00  0.00     0.001 A 
HETATM   11  C   UNL     1      61.891   9.881   1.332  1.00  0.00     0.000 A 
HETATM   12  C   UNL     1      61.697  10.857   2.305  1.00  0.00     0.001 A 
HETATM   13  C   UNL     1      62.084  10.616   3.625  1.00  0.00     0.009 A 
ENDBRANCH   7   8
ENDBRANCH   1   7
BRANCH   2  14
HETATM   14  C   UNL     1      65.971   7.998   5.438  1.00  0.00     0.240 C 
BRANCH  14  15
HETATM   15  O   UNL     1      66.338   8.774   6.578  1.00  0.00    -0.393 OA
HETATM   16  H   UNL     1      67.283   8.650   6.763  1.00  0.00     0.209 HD
ENDBRANCH  14  15
ENDBRANCH   2  14
TORSDOF 4
ENDMDL
MODEL 4
REMARK VINA RESULT:      -4.8      1.236      1.848
REMARK  4 active torsions:
REMARK  status: ('A' for Active; 'I' for Inactive)
REMARK    1  A    between atoms: N_1  and  C_7 
REMARK    2  A    between atoms: C_2  and  C_9 
REMARK    3  A    between atoms: C_7  and  C_8 
REMARK    4  A    between atoms: C_9  and  O_10 
ROOT
HETATM    1  N   UNL     1      62.303   8.760   3.374  1.00  0.00    -0.339 N 
HETATM    2  C   UNL     1      62.173  10.126   3.459  1.00  0.00     0.107 A 
HETATM    3  N   UNL     1      61.760  10.626   2.306  1.00  0.00    -0.352 N 
ATOM      4  HN  UNL     1      61.581  11.606   2.090  1.00  0.00     0.166 HD
HETATM    5  C   UNL     1      61.624   9.557   1.461  1.00  0.00     0.106 A 
HETATM    6  C   UNL     1      61.958   8.388   2.101  1.00  0.00     0.109 A 
ENDROOT
BRANCH   1   7
HETATM    7  C   UNL     1      62.731   7.843   4.424  1.00  0.00     0.168 C 
BRANCH   7   8
HETATM    8  C   UNL     1      64.206   7.517   4.391  1.00  0.00    -0.040 A 
HETATM    9  C   UNL     1      65.164   8.252   5.109  1.00  0.00     0.009 A 
HETATM   10  C   UNL     1      66.519   7.933   5.024  1.00  0.00     0.001 A 
HETATM   11  C   UNL     1      66.934   6.851   4.253  1.00  0.00     0.000 A 
HETATM   12  C   UNL     1      65.993   6.081   3.574  1.00  0.00     0.001 A 
HETATM   13  C   UNL     1      64.638   6.409   3.645  1.00  0.00     0.009 A 
ENDBRANCH   7   8
ENDBRANCH   1   7
BRANCH   2  14
HETATM   14  C   UNL     1      62.426  10.931   4.692  1.00  0.00     0.240 C 
BRANCH  14  15
HETATM   15  O   UNL     1      62.064  12.283   4.413  1.00  0.00    -0.393 OA
HETATM   16  H   UNL     1      62.789  12.872   4.674  1.00  0.00     0.209 HD
ENDBRANCH  14  15
ENDBRANCH   2  14
TORSDOF 4
ENDMDL
MODEL 5
REMARK VINA RESULT:      -4.7      2.188      4.725
REMARK  4 active torsions:
REMARK  status: ('A' for Active; 'I' for Inactive)
REMARK    1  A    between atoms: N_1  and  C_7 
REMARK    2  A    between atoms: C_2  and  C_9 
REMARK    3  A    between atoms: C_7  and  C_8 
REMARK    4  A    between atoms: C_9  and  O_10 
ROOT
HETATM    1  N   UNL     1      63.225   8.963   3.862  1.00  0.00    -0.339 N 
HETATM    2  C   UNL     1      63.545   9.473   5.098  1.00  0.00     0.107 A 
HETATM    3  N   UNL     1      64.313   8.626   5.765  1.00  0.00    -0.352 N 
ATOM      4  HN  UNL     1      64.696   8.751   6.701  1.00  0.00     0.166 HD
HETATM    5  C   UNL     1      64.487   7.548   4.939  1.00  0.00     0.106 A 
HETATM    6  C   UNL     1      63.819   7.732   3.753  1.00  0.00     0.109 A 
ENDROOT
BRANCH   1   7
HETATM    7  C   UNL     1      62.402   9.586   2.831  1.00  0.00     0.168 C 
BRANCH   7   8
HETATM    8  C   UNL     1      61.224   8.746   2.395  1.00  0.00    -0.040 A 
HETATM    9  C   UNL     1      60.388   8.077   3.303  1.00  0.00     0.009 A 
HETATM   10  C   UNL     1      59.330   7.288   2.852  1.00  0.00     0.001 A 
HETATM   11  C   UNL     1      59.066   7.188   1.489  1.00  0.00     0.000 A 
HETATM   12  C   UNL     1      59.854   7.884   0.577  1.00  0.00     0.001 A 
HETATM   13  C   UNL     1      60.924   8.661   1.025  1.00  0.00     0.009 A 
ENDBRANCH   7   8
ENDBRANCH   1   7
BRANCH   2  14
HETATM   14  C   UNL     1      63.119  10.812   5.603  1.00  0.00     0.240 C 
BRANCH  14  15
HETATM   15  O   UNL     1      64.237  11.409   6.257  1.00  0.00    -0.393 OA
HETATM   16  H   UNL     1      64.926  11.607   5.603  1.00  0.00     0.209 HD
ENDBRANCH  14  15
ENDBRANCH   2  14
TORSDOF 4
ENDMDL
MODEL 6
REMARK VINA RESULT:      -4.7      2.902      4.794
REMARK  4 active torsions:
REMARK  status: ('A' for Active; 'I' for Inactive)
REMARK    1  A    between atoms: N_1  and  C_7 
REMARK    2  A    between atoms: C_2  and  C_9 
REMARK    3  A    between atoms: C_7  and  C_8 
REMARK    4  A    between atoms: C_9  and  O_10 
ROOT
HETATM    1  N   UNL     1      61.876   6.684   4.360  1.00  0.00    -0.339 N 
HETATM    2  C   UNL     1      62.173   6.240   5.626  1.00  0.00     0.107 A 
HETATM    3  N   UNL     1      61.107   5.696   6.190  1.00  0.00    -0.352 N 
ATOM      4  HN  UNL     1      61.045   5.287   7.122  1.00  0.00     0.166 HD
HETATM    5  C   UNL     1      60.102   5.795   5.265  1.00  0.00     0.106 A 
HETATM    6  C   UNL     1      60.554   6.408   4.121  1.00  0.00     0.109 A 
ENDROOT
BRANCH   1   7
HETATM    7  C   UNL     1      62.775   7.339   3.416  1.00  0.00     0.168 C 
BRANCH   7   8
HETATM    8  C   UNL     1      62.440   8.789   3.153  1.00  0.00    -0.040 A 
HETATM    9  C   UNL     1      62.119   9.277   1.877  1.00  0.00     0.009 A 
HETATM   10  C   UNL     1      61.845  10.631   1.677  1.00  0.00     0.001 A 
HETATM   11  C   UNL     1      61.849  11.509   2.757  1.00  0.00     0.000 A 
HETATM   12  C   UNL     1      62.116  11.034   4.038  1.00  0.00     0.001 A 
HETATM   13  C   UNL     1      62.407   9.682   4.237  1.00  0.00     0.009 A 
ENDBRANCH   7   8
ENDBRANCH   1   7
BRANCH   2  14
HETATM   14  C   UNL     1      63.521   6.324   6.264  1.00  0.00     0.240 C 
BRANCH  14  15
HETATM   15  O   UNL     1      63.583   7.547   6.996  1.00  0.00    -0.393 OA
HETATM   16  H   UNL     1      62.733   7.703   7.438  1.00  0.00     0.209 HD
ENDBRANCH  14  15
ENDBRANCH   2  14
TORSDOF 4
ENDMDL
MODEL 7
REMARK VINA RESULT:      -4.6      2.688      5.168
REMARK  4 active torsions:
REMARK  status: ('A' for Active; 'I' for Inactive)
REMARK    1  A    between atoms: N_1  and  C_7 
REMARK    2  A    between atoms: C_2  and  C_9 
REMARK    3  A    between atoms: C_7  and  C_8 
REMARK    4  A    between atoms: C_9  and  O_10 
ROOT
HETATM    1  N   UNL     1      65.118   7.007   5.631  1.00  0.00    -0.339 N 
HETATM    2  C   UNL     1      66.429   7.366   5.833  1.00  0.00     0.107 A 
HETATM    3  N   UNL     1      66.782   7.147   7.089  1.00  0.00    -0.352 N 
ATOM      4  HN  UNL     1      67.694   7.322   7.511  1.00  0.00     0.166 HD
HETATM    5  C   UNL     1      65.672   6.638   7.708  1.00  0.00     0.106 A 
HETATM    6  C   UNL     1      64.624   6.544   6.824  1.00  0.00     0.109 A 
ENDROOT
BRANCH   1   7
HETATM    7  C   UNL     1      64.356   7.092   4.390  1.00  0.00     0.168 C 
BRANCH   7   8
HETATM    8  C   UNL     1      63.569   8.374   4.240  1.00  0.00    -0.040 A 
HETATM    9  C   UNL     1      63.562   9.382   5.217  1.00  0.00     0.009 A 
HETATM   10  C   UNL     1      62.797  10.536   5.047  1.00  0.00     0.001 A 
HETATM   11  C   UNL     1      62.060  10.718   3.881  1.00  0.00     0.000 A 
HETATM   12  C   UNL     1      62.094   9.752   2.880  1.00  0.00     0.001 A 
HETATM   13  C   UNL     1      62.846   8.588   3.055  1.00  0.00     0.009 A 
ENDBRANCH   7   8
ENDBRANCH   1   7
BRANCH   2  14
HETATM   14  C   UNL     1      67.341   7.893   4.774  1.00  0.00     0.240 C 
BRANCH  14  15
HETATM   15  O   UNL     1      67.742   6.795   3.956  1.00  0.00    -0.393 OA
HETATM   16  H   UNL     1      67.061   6.104   3.985  1.00  0.00     0.209 HD
ENDBRANCH  14  15
ENDBRANCH   2  14
TORSDOF 4
ENDMDL
MODEL 8
REMARK VINA RESULT:      -4.6      2.079      4.780
REMARK  4 active torsions:
REMARK  status: ('A' for Active; 'I' for Inactive)
REMARK    1  A    between atoms: N_1  and  C_7 
REMARK    2  A    between atoms: C_2  and  C_9 
REMARK    3  A    between atoms: C_7  and  C_8 
REMARK    4  A    between atoms: C_9  and  O_10 
ROOT
HETATM    1  N   UNL     1      64.027   6.840   4.050  1.00  0.00    -0.339 N 
HETATM    2  C   UNL     1      65.119   7.031   4.863  1.00  0.00     0.107 A 
HETATM    3  N   UNL     1      66.178   6.408   4.374  1.00  0.00    -0.352 N 
ATOM      4  HN  UNL     1      67.116   6.384   4.773  1.00  0.00     0.166 HD
HETATM    5  C   UNL     1      65.757   5.801   3.222  1.00  0.00     0.106 A 
HETATM    6  C   UNL     1      64.424   6.051   3.000  1.00  0.00     0.109 A 
ENDROOT
BRANCH   1   7
HETATM    7  C   UNL     1      62.678   7.359   4.239  1.00  0.00     0.168 C 
BRANCH   7   8
HETATM    8  C   UNL     1      62.407   8.649   3.499  1.00  0.00    -0.040 A 
HETATM    9  C   UNL     1      62.278   9.887   4.148  1.00  0.00     0.009 A 
HETATM   10  C   UNL     1      61.999  11.047   3.426  1.00  0.00     0.001 A 
HETATM   11  C   UNL     1      61.883  10.994   2.040  1.00  0.00     0.000 A 
HETATM   12  C   UNL     1      62.057   9.784   1.374  1.00  0.00     0.001 A 
HETATM   13  C   UNL     1      62.320   8.619   2.097  1.00  0.00     0.009 A 
ENDBRANCH   7   8
ENDBRANCH   1   7
BRANCH   2  14
HETATM   14  C   UNL     1      65.120   7.860   6.106  1.00  0.00     0.240 C 
BRANCH  14  15
HETATM   15  O   UNL     1      65.387   9.210   5.731  1.00  0.00    -0.393 OA
HETATM   16  H   UNL     1      66.170   9.529   6.207  1.00  0.00     0.209 HD
ENDBRANCH  14  15
ENDBRANCH   2  14
TORSDOF 4
ENDMDL
MODEL 9
REMARK VINA RESULT:      -4.5      2.734      4.914
REMARK  4 active torsions:
REMARK  status: ('A' for Active; 'I' for Inactive)
REMARK    1  A    between atoms: N_1  and  C_7 
REMARK    2  A    between atoms: C_2  and  C_9 
REMARK    3  A    between atoms: C_7  and  C_8 
REMARK    4  A    between atoms: C_9  and  O_10 
ROOT
HETATM    1  N   UNL     1      65.537   7.439   5.752  1.00  0.00    -0.339 N 
HETATM    2  C   UNL     1      66.390   7.116   6.780  1.00  0.00     0.107 A 
HETATM    3  N   UNL     1      67.644   7.366   6.438  1.00  0.00    -0.352 N 
ATOM      4  HN  UNL     1      68.477   7.222   7.008  1.00  0.00     0.166 HD
HETATM    5  C   UNL     1      67.594   7.858   5.161  1.00  0.00     0.106 A 
HETATM    6  C   UNL     1      66.296   7.909   4.712  1.00  0.00     0.109 A 
ENDROOT
BRANCH   1   7
HETATM    7  C   UNL     1      64.084   7.312   5.732  1.00  0.00     0.168 C 
BRANCH   7   8
HETATM    8  C   UNL     1      63.391   8.323   4.847  1.00  0.00    -0.040 A 
HETATM    9  C   UNL     1      62.985   8.034   3.535  1.00  0.00     0.009 A 
HETATM   10  C   UNL     1      62.375   9.009   2.745  1.00  0.00     0.001 A 
HETATM   11  C   UNL     1      62.127  10.275   3.268  1.00  0.00     0.000 A 
HETATM   12  C   UNL     1      62.478  10.564   4.583  1.00  0.00     0.001 A 
HETATM   13  C   UNL     1      63.103   9.594   5.371  1.00  0.00     0.009 A 
ENDBRANCH   7   8
ENDBRANCH   1   7
BRANCH   2  14
HETATM   14  C   UNL     1      65.961   6.594   8.111  1.00  0.00     0.240 C 
BRANCH  14  15
HETATM   15  O   UNL     1      66.997   6.883   9.049  1.00  0.00    -0.393 OA
HETATM   16  H   UNL     1      66.896   6.313   9.828  1.00  0.00     0.209 HD
ENDBRANCH  14  15
ENDBRANCH   2  14
TORSDOF 4
ENDMDL
