MODEL 1
REMARK VINA RESULT:      -5.1      0.000      0.000
REMARK  2 active torsions:
REMARK  status: ('A' for Active; 'I' for Inactive)
REMARK    1  A    between atoms: C_4  and  C_9 
REMARK    2  A    between atoms: O_6  and  C_9 
ROOT
HETATM    1  O   UNL     1      62.087  11.127   3.961  1.00  0.00    -0.343 OA
HETATM    2  C   UNL     1      62.179  10.096   3.063  1.00  0.00     0.075 A 
HETATM    3  C   UNL     1      62.870   8.996   3.548  1.00  0.00    -0.022 A 
HETATM    4  C   UNL     1      62.475  10.508   5.223  1.00  0.00     0.156 C 
HETATM    5  C   UNL     1      63.349   9.284   4.919  1.00  0.00     0.076 C 
HETATM    6  C   UNL     1      61.659  10.128   1.787  1.00  0.00     0.037 A 
HETATM    7  C   UNL     1      63.071   7.878   2.756  1.00  0.00     0.010 A 
HETATM    8  C   UNL     1      61.835   9.001   0.981  1.00  0.00     0.003 A 
HETATM    9  C   UNL     1      62.538   7.884   1.464  1.00  0.00     0.001 A 
ENDROOT
BRANCH   4  10
HETATM   10  C   UNL     1      63.202  11.542   6.076  1.00  0.00     0.196 C 
BRANCH  10  11
HETATM   11  O   UNL     1      64.567  11.164   6.256  1.00  0.00    -0.398 OA
HETATM   12  H   UNL     1      64.859  11.423   7.145  1.00  0.00     0.209 HD
ENDBRANCH  10  11
ENDBRANCH   4  10
TORSDOF 2
ENDMDL
MODEL 2
REMARK VINA RESULT:      -4.9      1.967      3.057
REMARK  2 active torsions:
REMARK  status: ('A' for Active; 'I' for Inactive)
REMARK    1  A    between atoms: C_4  and  C_9 
REMARK    2  A    between atoms: O_6  and  C_9 
ROOT
HETATM    1  O   UNL     1      64.673   9.405   5.878  1.00  0.00    -0.343 OA
HETATM    2  C   UNL     1      63.686   9.526   4.936  1.00  0.00     0.075 A 
HETATM    3  C   UNL     1      63.658   8.482   4.023  1.00  0.00    -0.022 A 
HETATM    4  C   UNL     1      65.099   8.017   5.743  1.00  0.00     0.156 C 
HETATM    5  C   UNL     1      64.758   7.538   4.326  1.00  0.00     0.076 C 
HETATM    6  C   UNL     1      62.803  10.582   4.866  1.00  0.00     0.037 A 
HETATM    7  C   UNL     1      62.735   8.465   2.992  1.00  0.00     0.010 A 
HETATM    8  C   UNL     1      61.852  10.570   3.843  1.00  0.00     0.003 A 
HETATM    9  C   UNL     1      61.819   9.518   2.912  1.00  0.00     0.001 A 
ENDROOT
BRANCH   4  10
HETATM   10  C   UNL     1      66.592   7.929   6.041  1.00  0.00     0.196 C 
BRANCH  10  11
HETATM   11  O   UNL     1      66.955   8.886   7.037  1.00  0.00    -0.398 OA
HETATM   12  H   UNL     1      67.363   9.656   6.611  1.00  0.00     0.209 HD
ENDBRANCH  10  11
ENDBRANCH   4  10
TORSDOF 2
ENDMDL
MODEL 3
REMARK VINA RESULT:      -4.8      1.961      2.772
REMARK  2 active torsions:
REMARK  status: ('A' for Active; 'I' for Inactive)
REMARK    1  A    between atoms: C_4  and  C_9 
REMARK    2  A    between atoms: O_6  and  C_9 
ROOT
HETATM    1  O   UNL     1      63.378   7.617   3.855  1.00  0.00    -0.343 OA
HETATM    2  C   UNL     1      62.828   8.653   3.148  1.00  0.00     0.075 A 
HETATM    3  C   UNL     1      62.613   9.793   3.907  1.00  0.00    -0.022 A 
HETATM    4  C   UNL     1      63.842   8.256   5.080  1.00  0.00     0.156 C 
HETATM    5  C   UNL     1      63.021   9.532   5.307  1.00  0.00     0.076 C 
HETATM    6  C   UNL     1      62.492   8.591   1.812  1.00  0.00     0.037 A 
HETATM    7  C   UNL     1      62.041  10.922   3.348  1.00  0.00     0.010 A 
HETATM    8  C   UNL     1      61.932   9.729   1.226  1.00  0.00     0.003 A 
HETATM    9  C   UNL     1      61.707  10.887   1.991  1.00  0.00     0.001 A 
ENDROOT
BRANCH   4  10
HETATM   10  C   UNL     1      63.707   7.267   6.233  1.00  0.00     0.196 C 
BRANCH  10  11
HETATM   11  O   UNL     1      62.604   7.625   7.066  1.00  0.00    -0.398 OA
HETATM   12  H   UNL     1      61.809   7.735   6.521  1.00  0.00     0.209 HD
ENDBRANCH  10  11
ENDBRANCH   4  10
TORSDOF 2
ENDMDL
MODEL 4
REMARK VINA RESULT:      -4.3      2.370      4.503
REMARK  2 active torsions:
REMARK  status: ('A' for Active; 'I' for Inactive)
REMARK    1  A    between atoms: C_4  and  C_9 
REMARK    2  A    between atoms: O_6  and  C_9 
ROOT
HETATM    1  O   UNL     1      62.608   7.582   2.689  1.00  0.00    -0.343 OA
HETATM    2  C   UNL     1      62.374   8.910   2.932  1.00  0.00     0.075 A 
HETATM    3  C   UNL     1      62.081   9.642   1.790  1.00  0.00    -0.022 A 
HETATM    4  C   UNL     1      62.112   7.397   1.330  1.00  0.00     0.156 C 
HETATM    5  C   UNL     1      62.146   8.751   0.609  1.00  0.00     0.076 C 
HETATM    6  C   UNL     1      62.434   9.495   4.179  1.00  0.00     0.037 A 
HETATM    7  C   UNL     1      61.842  11.003   1.861  1.00  0.00     0.010 A 
HETATM    8  C   UNL     1      62.176  10.864   4.270  1.00  0.00     0.003 A 
HETATM    9  C   UNL     1      61.883  11.613   3.118  1.00  0.00     0.001 A 
ENDROOT
BRANCH   4  10
HETATM   10  C   UNL     1      62.969   6.346   0.632  1.00  0.00     0.196 C 
BRANCH  10  11
HETATM   11  O   UNL     1      63.995   5.881   1.510  1.00  0.00    -0.398 OA
HETATM   12  H   UNL     1      63.609   5.284   2.171  1.00  0.00     0.209 HD
ENDBRANCH  10  11
ENDBRANCH   4  10
TORSDOF 2
ENDMDL
MODEL 5
REMARK VINA RESULT:      -4.3      1.931      3.246
REMARK  2 active torsions:
REMARK  status: ('A' for Active; 'I' for Inactive)
REMARK    1  A    between atoms: C_4  and  C_9 
REMARK    2  A    between atoms: O_6  and  C_9 
ROOT
HETATM    1  O   UNL     1      62.606   8.882   3.028  1.00  0.00    -0.343 OA
HETATM    2  C   UNL     1      63.573   8.117   3.625  1.00  0.00     0.075 A 
HETATM    3  C   UNL     1      64.066   8.661   4.802  1.00  0.00    -0.022 A 
HETATM    4  C   UNL     1      62.230   9.824   4.076  1.00  0.00     0.156 C 
HETATM    5  C   UNL     1      63.405   9.962   5.053  1.00  0.00     0.076 C 
HETATM    6  C   UNL     1      64.045   6.925   3.117  1.00  0.00     0.037 A 
HETATM    7  C   UNL     1      65.065   8.022   5.516  1.00  0.00     0.010 A 
HETATM    8  C   UNL     1      65.040   6.258   3.835  1.00  0.00     0.003 A 
HETATM    9  C   UNL     1      65.547   6.805   5.027  1.00  0.00     0.001 A 
ENDROOT
BRANCH   4  10
HETATM   10  C   UNL     1      61.855  11.154   3.429  1.00  0.00     0.196 C 
BRANCH  10  11
HETATM   11  O   UNL     1      62.085  12.229   4.340  1.00  0.00    -0.398 OA
HETATM   12  H   UNL     1      63.010  12.213   4.631  1.00  0.00     0.209 HD
ENDBRANCH  10  11
ENDBRANCH   4  10
TORSDOF 2
ENDMDL
MODEL 6
REMARK VINA RESULT:      -4.0      4.544      6.216
REMARK  2 active torsions:
REMARK  status: ('A' for Active; 'I' for Inactive)
REMARK    1  A    between atoms: C_4  and  C_9 
REMARK    2  A    between atoms: O_6  and  C_9 
ROOT
HETATM    1  O   UNL     1      65.517   8.154   6.634  1.00  0.00    -0.343 OA
HETATM    2  C   UNL     1      66.382   7.123   6.891  1.00  0.00     0.075 A 
HETATM    3  C   UNL     1      66.665   6.344   5.779  1.00  0.00    -0.022 A 
HETATM    4  C   UNL     1      65.501   8.224   5.178  1.00  0.00     0.156 C 
HETATM    5  C   UNL     1      65.898   6.851   4.618  1.00  0.00     0.076 C 
HETATM    6  C   UNL     1      66.922   6.852   8.131  1.00  0.00     0.037 A 
HETATM    7  C   UNL     1      67.505   5.249   5.875  1.00  0.00     0.010 A 
HETATM    8  C   UNL     1      67.787   5.761   8.241  1.00  0.00     0.003 A 
HETATM    9  C   UNL     1      68.075   4.964   7.119  1.00  0.00     0.001 A 
ENDROOT
BRANCH   4  10
HETATM   10  C   UNL     1      64.112   8.657   4.721  1.00  0.00     0.196 C 
BRANCH  10  11
HETATM   11  O   UNL     1      63.268   8.883   5.850  1.00  0.00    -0.398 OA
HETATM   12  H   UNL     1      63.649   9.582   6.404  1.00  0.00     0.209 HD
ENDBRANCH  10  11
ENDBRANCH   4  10
TORSDOF 2
ENDMDL
MODEL 7
REMARK VINA RESULT:      -4.0     13.760     14.579
REMARK  2 active torsions:
REMARK  status: ('A' for Active; 'I' for Inactive)
REMARK    1  A    between atoms: C_4  and  C_9 
REMARK    2  A    between atoms: O_6  and  C_9 
ROOT
HETATM    1  O   UNL     1      56.717   2.349  13.424  1.00  0.00    -0.343 OA
HETATM    2  C   UNL     1      57.767   1.473  13.348  1.00  0.00     0.075 A 
HETATM    3  C   UNL     1      57.441   0.178  13.720  1.00  0.00    -0.022 A 
HETATM    4  C   UNL     1      55.558   1.473  13.550  1.00  0.00     0.156 C 
HETATM    5  C   UNL     1      56.020   0.133  14.137  1.00  0.00     0.076 C 
HETATM    6  C   UNL     1      59.043   1.821  12.958  1.00  0.00     0.037 A 
HETATM    7  C   UNL     1      58.395  -0.824  13.721  1.00  0.00     0.010 A 
HETATM    8  C   UNL     1      60.015   0.818  12.934  1.00  0.00     0.003 A 
HETATM    9  C   UNL     1      59.692  -0.496  13.314  1.00  0.00     0.001 A 
ENDROOT
BRANCH   4  10
HETATM   10  C   UNL     1      54.514   2.160  14.424  1.00  0.00     0.196 C 
BRANCH  10  11
HETATM   11  O   UNL     1      55.047   3.364  14.977  1.00  0.00    -0.398 OA
HETATM   12  H   UNL     1      54.736   4.123  14.459  1.00  0.00     0.209 HD
ENDBRANCH  10  11
ENDBRANCH   4  10
TORSDOF 2
ENDMDL
MODEL 8
REMARK VINA RESULT:      -3.9     12.787     13.638
REMARK  2 active torsions:
REMARK  status: ('A' for Active; 'I' for Inactive)
REMARK    1  A    between atoms: C_4  and  C_9 
REMARK    2  A    between atoms: O_6  and  C_9 
ROOT
HETATM    1  O   UNL     1      55.968   3.177  11.747  1.00  0.00    -0.343 OA
HETATM    2  C   UNL     1      57.046   2.558  12.323  1.00  0.00     0.075 A 
HETATM    3  C   UNL     1      56.757   1.950  13.535  1.00  0.00    -0.022 A 
HETATM    4  C   UNL     1      54.836   2.647  12.498  1.00  0.00     0.156 C 
HETATM    5  C   UNL     1      55.335   2.188  13.874  1.00  0.00     0.076 C 
HETATM    6  C   UNL     1      58.314   2.541  11.780  1.00  0.00     0.037 A 
HETATM    7  C   UNL     1      57.743   1.301  14.257  1.00  0.00     0.010 A 
HETATM    8  C   UNL     1      59.317   1.873  12.487  1.00  0.00     0.003 A 
HETATM    9  C   UNL     1      59.032   1.258  13.718  1.00  0.00     0.001 A 
ENDROOT
BRANCH   4  10
HETATM   10  C   UNL     1      53.764   3.726  12.600  1.00  0.00     0.196 C 
BRANCH  10  11
HETATM   11  O   UNL     1      54.202   4.780  13.458  1.00  0.00    -0.398 OA
HETATM   12  H   UNL     1      55.083   5.077  13.180  1.00  0.00     0.209 HD
ENDBRANCH  10  11
ENDBRANCH   4  10
TORSDOF 2
ENDMDL
MODEL 9
REMARK VINA RESULT:      -3.8      2.938      3.999
REMARK  2 active torsions:
REMARK  status: ('A' for Active; 'I' for Inactive)
REMARK    1  A    between atoms: C_4  and  C_9 
REMARK    2  A    between atoms: O_6  and  C_9 
ROOT
HETATM    1  O   UNL     1      64.373   6.639   6.650  1.00  0.00    -0.343 OA
HETATM    2  C   UNL     1      63.498   7.094   5.700  1.00  0.00     0.075 A 
HETATM    3  C   UNL     1      64.062   8.001   4.814  1.00  0.00    -0.022 A 
HETATM    4  C   UNL     1      65.674   7.045   6.132  1.00  0.00     0.156 C 
HETATM    5  C   UNL     1      65.473   8.241   5.191  1.00  0.00     0.076 C 
HETATM    6  C   UNL     1      62.174   6.719   5.618  1.00  0.00     0.037 A 
HETATM    7  C   UNL     1      63.305   8.573   3.806  1.00  0.00     0.010 A 
HETATM    8  C   UNL     1      61.401   7.272   4.595  1.00  0.00     0.003 A 
HETATM    9  C   UNL     1      61.964   8.195   3.696  1.00  0.00     0.001 A 
ENDROOT
BRANCH   4  10
HETATM   10  C   UNL     1      66.590   7.378   7.305  1.00  0.00     0.196 C 
BRANCH  10  11
HETATM   11  O   UNL     1      66.988   8.748   7.250  1.00  0.00    -0.398 OA
HETATM   12  H   UNL     1      66.377   9.284   7.779  1.00  0.00     0.209 HD
ENDBRANCH  10  11
ENDBRANCH   4  10
TORSDOF 2
ENDMDL
