MODEL 1
REMARK VINA RESULT:      -3.6      0.000      0.000
REMARK  0 active torsions:
REMARK  status: ('A' for Active; 'I' for Inactive)
ROOT
HETATM    1  C   UNL     1      62.429  10.551   4.013  1.00  0.00     0.132 A 
HETATM    2  N   UNL     1      62.579   9.322   3.424  1.00  0.00    -0.338 N 
HETATM    3  N   UNL     1      61.540  10.588   1.933  1.00  0.00    -0.359 N 
ATOM      4  HN  UNL     1      61.077  10.906   1.082  1.00  0.00     0.166 HD
HETATM    5  C   UNL     1      62.858  10.929   5.309  1.00  0.00     0.119 C 
HETATM    6  N   UNL     1      63.221  11.212   6.375  1.00  0.00    -0.190 NA
HETATM    7  C   UNL     1      62.033   9.394   2.175  1.00  0.00     0.183 A 
HETATM    8  C   UNL     1      61.781  11.316   3.072  1.00  0.00     0.130 A 
HETATM    9  C   UNL     1      63.197   8.160   4.013  1.00  0.00     0.158 C 
ENDROOT
TORSDOF 0
ENDMDL
MODEL 2
REMARK VINA RESULT:      -3.6      1.395      1.455
REMARK  0 active torsions:
REMARK  status: ('A' for Active; 'I' for Inactive)
ROOT
HETATM    1  C   UNL     1      62.405   9.782   3.836  1.00  0.00     0.132 A 
HETATM    2  N   UNL     1      62.339   9.220   2.588  1.00  0.00    -0.338 N 
HETATM    3  N   UNL     1      61.607  11.298   2.359  1.00  0.00    -0.359 N 
ATOM      4  HN  UNL     1      61.240  12.160   1.957  1.00  0.00     0.166 HD
HETATM    5  C   UNL     1      62.856   9.157   5.025  1.00  0.00     0.119 C 
HETATM    6  N   UNL     1      63.231   8.622   5.984  1.00  0.00    -0.190 NA
HETATM    7  C   UNL     1      61.856  10.169   1.733  1.00  0.00     0.183 A 
HETATM    8  C   UNL     1      61.944  11.067   3.670  1.00  0.00     0.130 A 
HETATM    9  C   UNL     1      62.706   7.871   2.235  1.00  0.00     0.158 C 
ENDROOT
TORSDOF 0
ENDMDL
MODEL 3
REMARK VINA RESULT:      -3.4      1.026      2.886
REMARK  0 active torsions:
REMARK  status: ('A' for Active; 'I' for Inactive)
ROOT
HETATM    1  C   UNL     1      62.366  10.417   3.903  1.00  0.00     0.132 A 
HETATM    2  N   UNL     1      62.421   9.049   3.834  1.00  0.00    -0.338 N 
HETATM    3  N   UNL     1      63.047   9.580   5.891  1.00  0.00    -0.359 N 
ATOM      4  HN  UNL     1      63.360   9.514   6.860  1.00  0.00     0.166 HD
HETATM    5  C   UNL     1      61.981  11.304   2.867  1.00  0.00     0.119 C 
HETATM    6  N   UNL     1      61.661  12.008   2.002  1.00  0.00    -0.190 NA
HETATM    7  C   UNL     1      62.832   8.591   5.053  1.00  0.00     0.183 A 
HETATM    8  C   UNL     1      62.760  10.722   5.185  1.00  0.00     0.130 A 
HETATM    9  C   UNL     1      62.106   8.236   2.686  1.00  0.00     0.158 C 
ENDROOT
TORSDOF 0
ENDMDL
MODEL 4
REMARK VINA RESULT:      -3.3      1.661      2.499
REMARK  0 active torsions:
REMARK  status: ('A' for Active; 'I' for Inactive)
ROOT
HETATM    1  C   UNL     1      62.550   9.132   4.515  1.00  0.00     0.132 A 
HETATM    2  N   UNL     1      62.464  10.498   4.602  1.00  0.00    -0.338 N 
HETATM    3  N   UNL     1      61.705   9.967   2.590  1.00  0.00    -0.359 N 
ATOM      4  HN  UNL     1      61.322  10.033   1.646  1.00  0.00     0.166 HD
HETATM    5  C   UNL     1      63.024   8.247   5.514  1.00  0.00     0.119 C 
HETATM    6  N   UNL     1      63.416   7.544   6.351  1.00  0.00    -0.190 NA
HETATM    7  C   UNL     1      61.947  10.954   3.422  1.00  0.00     0.183 A 
HETATM    8  C   UNL     1      62.077   8.828   3.260  1.00  0.00     0.130 A 
HETATM    9  C   UNL     1      62.849  11.310   5.728  1.00  0.00     0.158 C 
ENDROOT
TORSDOF 0
ENDMDL
MODEL 5
REMARK VINA RESULT:      -3.3      1.619      2.276
REMARK  0 active torsions:
REMARK  status: ('A' for Active; 'I' for Inactive)
ROOT
HETATM    1  C   UNL     1      62.520   9.376   3.355  1.00  0.00     0.132 A 
HETATM    2  N   UNL     1      63.475   8.556   3.896  1.00  0.00    -0.338 N 
HETATM    3  N   UNL     1      62.657   7.467   2.150  1.00  0.00    -0.359 N 
ATOM      4  HN  UNL     1      62.490   6.753   1.441  1.00  0.00     0.166 HD
HETATM    5  C   UNL     1      62.141  10.660   3.820  1.00  0.00     0.119 C 
HETATM    6  N   UNL     1      61.851  11.710   4.222  1.00  0.00    -0.190 NA
HETATM    7  C   UNL     1      63.525   7.422   3.136  1.00  0.00     0.183 A 
HETATM    8  C   UNL     1      62.026   8.680   2.277  1.00  0.00     0.130 A 
HETATM    9  C   UNL     1      64.283   8.832   5.058  1.00  0.00     0.158 C 
ENDROOT
TORSDOF 0
ENDMDL
MODEL 6
REMARK VINA RESULT:      -3.3      1.402      2.935
REMARK  0 active torsions:
REMARK  status: ('A' for Active; 'I' for Inactive)
ROOT
HETATM    1  C   UNL     1      62.430   9.167   2.677  1.00  0.00     0.132 A 
HETATM    2  N   UNL     1      62.460   9.932   3.814  1.00  0.00    -0.338 N 
HETATM    3  N   UNL     1      61.529  11.198   2.253  1.00  0.00    -0.359 N 
ATOM      4  HN  UNL     1      61.091  11.984   1.773  1.00  0.00     0.166 HD
HETATM    5  C   UNL     1      62.897   7.836   2.537  1.00  0.00     0.119 C 
HETATM    6  N   UNL     1      63.286   6.746   2.450  1.00  0.00    -0.190 NA
HETATM    7  C   UNL     1      61.905  11.143   3.512  1.00  0.00     0.183 A 
HETATM    8  C   UNL     1      61.852   9.973   1.724  1.00  0.00     0.130 A 
HETATM    9  C   UNL     1      62.984   9.538   5.098  1.00  0.00     0.158 C 
ENDROOT
TORSDOF 0
ENDMDL
MODEL 7
REMARK VINA RESULT:      -3.2      5.858      7.343
REMARK  0 active torsions:
REMARK  status: ('A' for Active; 'I' for Inactive)
ROOT
HETATM    1  C   UNL     1      66.587   6.398   7.376  1.00  0.00     0.132 A 
HETATM    2  N   UNL     1      67.025   5.294   6.692  1.00  0.00    -0.338 N 
HETATM    3  N   UNL     1      66.661   4.617   8.770  1.00  0.00    -0.359 N 
ATOM      4  HN  UNL     1      66.590   4.035   9.604  1.00  0.00     0.166 HD
HETATM    5  C   UNL     1      66.402   7.702   6.853  1.00  0.00     0.119 C 
HETATM    6  N   UNL     1      66.258   8.760   6.399  1.00  0.00    -0.190 NA
HETATM    7  C   UNL     1      67.050   4.247   7.570  1.00  0.00     0.183 A 
HETATM    8  C   UNL     1      66.371   5.955   8.660  1.00  0.00     0.130 A 
HETATM    9  C   UNL     1      67.396   5.240   5.300  1.00  0.00     0.158 C 
ENDROOT
TORSDOF 0
ENDMDL
MODEL 8
REMARK VINA RESULT:      -3.2      1.528      2.649
REMARK  0 active torsions:
REMARK  status: ('A' for Active; 'I' for Inactive)
ROOT
HETATM    1  C   UNL     1      63.498   8.566   3.922  1.00  0.00     0.132 A 
HETATM    2  N   UNL     1      62.471   9.397   3.558  1.00  0.00    -0.338 N 
HETATM    3  N   UNL     1      62.345   7.647   2.206  1.00  0.00    -0.359 N 
ATOM      4  HN  UNL     1      62.045   7.005   1.473  1.00  0.00     0.166 HD
HETATM    5  C   UNL     1      64.442   8.784   4.956  1.00  0.00     0.119 C 
HETATM    6  N   UNL     1      65.201   8.988   5.810  1.00  0.00    -0.190 NA
HETATM    7  C   UNL     1      61.804   8.801   2.526  1.00  0.00     0.183 A 
HETATM    8  C   UNL     1      63.402   7.491   3.069  1.00  0.00     0.130 A 
HETATM    9  C   UNL     1      62.149  10.670   4.152  1.00  0.00     0.158 C 
ENDROOT
TORSDOF 0
ENDMDL
MODEL 9
REMARK VINA RESULT:      -3.0      6.147      7.448
REMARK  0 active torsions:
REMARK  status: ('A' for Active; 'I' for Inactive)
ROOT
HETATM    1  C   UNL     1      67.034   5.927   7.629  1.00  0.00     0.132 A 
HETATM    2  N   UNL     1      67.196   6.175   6.290  1.00  0.00    -0.338 N 
HETATM    3  N   UNL     1      66.875   8.150   7.241  1.00  0.00    -0.359 N 
ATOM      4  HN  UNL     1      66.759   9.154   7.382  1.00  0.00     0.166 HD
HETATM    5  C   UNL     1      67.070   4.663   8.268  1.00  0.00     0.119 C 
HETATM    6  N   UNL     1      67.106   3.616   8.766  1.00  0.00    -0.190 NA
HETATM    7  C   UNL     1      67.096   7.525   6.106  1.00  0.00     0.183 A 
HETATM    8  C   UNL     1      66.834   7.164   8.196  1.00  0.00     0.130 A 
HETATM    9  C   UNL     1      67.427   5.195   5.259  1.00  0.00     0.158 C 
ENDROOT
TORSDOF 0
ENDMDL
