MODEL 1
REMARK VINA RESULT:      -4.8      0.000      0.000
REMARK  2 active torsions:
REMARK  status: ('A' for Active; 'I' for Inactive)
REMARK    1  A    between atoms: C_4  and  C_7 
REMARK    2  A    between atoms: N_6  and  C_7 
ROOT
HETATM    1  O   UNL     1      64.382   9.048   5.887  1.00  0.00    -0.343 OA
HETATM    2  C   UNL     1      63.537   9.389   4.907  1.00  0.00     0.075 A 
HETATM    3  C   UNL     1      63.516   8.470   3.900  1.00  0.00    -0.022 A 
HETATM    4  C   UNL     1      64.927   7.794   5.646  1.00  0.00     0.158 C 
HETATM    5  C   UNL     1      64.484   7.394   4.210  1.00  0.00     0.075 C 
HETATM    6  C   UNL     1      62.743  10.535   4.866  1.00  0.00     0.037 A 
HETATM    7  C   UNL     1      62.704   8.636   2.776  1.00  0.00     0.010 A 
HETATM    8  C   UNL     1      61.906  10.725   3.753  1.00  0.00     0.003 A 
HETATM    9  C   UNL     1      61.887   9.777   2.709  1.00  0.00     0.001 A 
ENDROOT
BRANCH   4  10
HETATM   10  C   UNL     1      66.452   7.778   5.815  1.00  0.00     0.262 C 
BRANCH  10  11
HETATM   11  N   UNL     1      66.843   8.527   7.006  1.00  0.00    -0.077 N 
HETATM   12  H   UNL     1      66.942   9.514   6.769  1.00  0.00     0.274 HD
HETATM   13  H   UNL     1      67.732   8.171   7.355  1.00  0.00     0.274 HD
HETATM   14  H   UNL     1      66.128   8.420   7.724  1.00  0.00     0.274 HD
ENDBRANCH  10  11
ENDBRANCH   4  10
TORSDOF 2
ENDMDL
MODEL 2
REMARK VINA RESULT:      -4.8      1.164      1.272
REMARK  2 active torsions:
REMARK  status: ('A' for Active; 'I' for Inactive)
REMARK    1  A    between atoms: C_4  and  C_7 
REMARK    2  A    between atoms: N_6  and  C_7 
ROOT
HETATM    1  O   UNL     1      63.291   9.248   5.481  1.00  0.00    -0.343 OA
HETATM    2  C   UNL     1      62.791   9.684   4.319  1.00  0.00     0.075 A 
HETATM    3  C   UNL     1      62.866   8.740   3.338  1.00  0.00    -0.022 A 
HETATM    4  C   UNL     1      63.657   7.912   5.384  1.00  0.00     0.158 C 
HETATM    5  C   UNL     1      63.527   7.532   3.882  1.00  0.00     0.075 C 
HETATM    6  C   UNL     1      62.240  10.942   4.080  1.00  0.00     0.037 A 
HETATM    7  C   UNL     1      62.403   8.992   2.045  1.00  0.00     0.010 A 
HETATM    8  C   UNL     1      61.754  11.223   2.791  1.00  0.00     0.003 A 
HETATM    9  C   UNL     1      61.836  10.249   1.775  1.00  0.00     0.001 A 
ENDROOT
BRANCH   4  10
HETATM   10  C   UNL     1      65.065   7.650   5.935  1.00  0.00     0.262 C 
BRANCH  10  11
HETATM   11  N   UNL     1      64.991   6.993   7.237  1.00  0.00    -0.077 N 
HETATM   12  H   UNL     1      64.277   6.265   7.210  1.00  0.00     0.274 HD
HETATM   13  H   UNL     1      64.749   7.679   7.951  1.00  0.00     0.274 HD
HETATM   14  H   UNL     1      65.895   6.576   7.458  1.00  0.00     0.274 HD
ENDBRANCH  10  11
ENDBRANCH   4  10
TORSDOF 2
ENDMDL
MODEL 3
REMARK VINA RESULT:      -4.5      3.616      4.770
REMARK  2 active torsions:
REMARK  status: ('A' for Active; 'I' for Inactive)
REMARK    1  A    between atoms: C_4  and  C_7 
REMARK    2  A    between atoms: N_6  and  C_7 
ROOT
HETATM    1  O   UNL     1      61.387   9.874   1.618  1.00  0.00    -0.343 OA
HETATM    2  C   UNL     1      61.969   9.989   2.818  1.00  0.00     0.075 A 
HETATM    3  C   UNL     1      62.691   8.882   3.150  1.00  0.00    -0.022 A 
HETATM    4  C   UNL     1      61.767   8.689   1.004  1.00  0.00     0.158 C 
HETATM    5  C   UNL     1      62.558   7.879   2.070  1.00  0.00     0.075 C 
HETATM    6  C   UNL     1      61.886  11.090   3.671  1.00  0.00     0.037 A 
HETATM    7  C   UNL     1      63.376   8.793   4.364  1.00  0.00     0.010 A 
HETATM    8  C   UNL     1      62.575  11.036   4.896  1.00  0.00     0.003 A 
HETATM    9  C   UNL     1      63.318   9.888   5.242  1.00  0.00     0.001 A 
ENDROOT
BRANCH   4  10
HETATM   10  C   UNL     1      60.571   7.910   0.444  1.00  0.00     0.262 C 
BRANCH  10  11
HETATM   11  N   UNL     1      59.316   8.486   0.921  1.00  0.00    -0.077 N 
HETATM   12  H   UNL     1      58.558   8.213   0.295  1.00  0.00     0.274 HD
HETATM   13  H   UNL     1      59.392   9.502   0.939  1.00  0.00     0.274 HD
HETATM   14  H   UNL     1      59.121   8.142   1.861  1.00  0.00     0.274 HD
ENDBRANCH  10  11
ENDBRANCH   4  10
TORSDOF 2
ENDMDL
MODEL 4
REMARK VINA RESULT:      -4.4      1.565      2.466
REMARK  2 active torsions:
REMARK  status: ('A' for Active; 'I' for Inactive)
REMARK    1  A    between atoms: C_4  and  C_7 
REMARK    2  A    between atoms: N_6  and  C_7 
ROOT
HETATM    1  O   UNL     1      63.780   7.281   3.828  1.00  0.00    -0.343 OA
HETATM    2  C   UNL     1      63.080   8.111   3.046  1.00  0.00     0.075 A 
HETATM    3  C   UNL     1      62.789   9.287   3.670  1.00  0.00    -0.022 A 
HETATM    4  C   UNL     1      64.100   7.898   5.029  1.00  0.00     0.158 C 
HETATM    5  C   UNL     1      63.319   9.242   5.051  1.00  0.00     0.075 C 
HETATM    6  C   UNL     1      62.671   7.859   1.736  1.00  0.00     0.037 A 
HETATM    7  C   UNL     1      62.060  10.293   3.032  1.00  0.00     0.010 A 
HETATM    8  C   UNL     1      61.945   8.857   1.062  1.00  0.00     0.003 A 
HETATM    9  C   UNL     1      61.640  10.071   1.709  1.00  0.00     0.001 A 
ENDROOT
BRANCH   4  10
HETATM   10  C   UNL     1      63.781   7.015   6.243  1.00  0.00     0.262 C 
BRANCH  10  11
HETATM   11  N   UNL     1      64.901   7.009   7.180  1.00  0.00    -0.077 N 
HETATM   12  H   UNL     1      65.682   6.493   6.773  1.00  0.00     0.274 HD
HETATM   13  H   UNL     1      64.615   6.560   8.050  1.00  0.00     0.274 HD
HETATM   14  H   UNL     1      65.190   7.968   7.370  1.00  0.00     0.274 HD
ENDBRANCH  10  11
ENDBRANCH   4  10
TORSDOF 2
ENDMDL
MODEL 5
REMARK VINA RESULT:      -4.3      1.965      4.456
REMARK  2 active torsions:
REMARK  status: ('A' for Active; 'I' for Inactive)
REMARK    1  A    between atoms: C_4  and  C_7 
REMARK    2  A    between atoms: N_6  and  C_7 
ROOT
HETATM    1  O   UNL     1      65.094   9.219   5.186  1.00  0.00    -0.343 OA
HETATM    2  C   UNL     1      65.544   8.122   5.806  1.00  0.00     0.075 A 
HETATM    3  C   UNL     1      64.546   7.234   6.075  1.00  0.00    -0.022 A 
HETATM    4  C   UNL     1      63.741   9.097   4.902  1.00  0.00     0.158 C 
HETATM    5  C   UNL     1      63.258   7.806   5.621  1.00  0.00     0.075 C 
HETATM    6  C   UNL     1      66.869   7.859   6.156  1.00  0.00     0.037 A 
HETATM    7  C   UNL     1      64.799   6.023   6.723  1.00  0.00     0.010 A 
HETATM    8  C   UNL     1      67.158   6.643   6.799  1.00  0.00     0.003 A 
HETATM    9  C   UNL     1      66.125   5.727   7.082  1.00  0.00     0.001 A 
ENDROOT
BRANCH   4  10
HETATM   10  C   UNL     1      62.941  10.336   5.324  1.00  0.00     0.262 C 
BRANCH  10  11
HETATM   11  N   UNL     1      63.762  11.220   6.148  1.00  0.00    -0.077 N 
HETATM   12  H   UNL     1      63.385  12.168   6.107  1.00  0.00     0.274 HD
HETATM   13  H   UNL     1      64.719  11.220   5.798  1.00  0.00     0.274 HD
HETATM   14  H   UNL     1      63.751  10.891   7.112  1.00  0.00     0.274 HD
ENDBRANCH  10  11
ENDBRANCH   4  10
TORSDOF 2
ENDMDL
MODEL 6
REMARK VINA RESULT:      -4.3      2.699      5.714
REMARK  2 active torsions:
REMARK  status: ('A' for Active; 'I' for Inactive)
REMARK    1  A    between atoms: C_4  and  C_7 
REMARK    2  A    between atoms: N_6  and  C_7 
ROOT
HETATM    1  O   UNL     1      66.158   8.127   6.825  1.00  0.00    -0.343 OA
HETATM    2  C   UNL     1      66.764   7.081   7.400  1.00  0.00     0.075 A 
HETATM    3  C   UNL     1      67.202   6.171   6.485  1.00  0.00    -0.022 A 
HETATM    4  C   UNL     1      66.236   8.036   5.443  1.00  0.00     0.158 C 
HETATM    5  C   UNL     1      66.820   6.629   5.130  1.00  0.00     0.075 C 
HETATM    6  C   UNL     1      66.958   6.892   8.768  1.00  0.00     0.037 A 
HETATM    7  C   UNL     1      67.858   5.001   6.873  1.00  0.00     0.010 A 
HETATM    8  C   UNL     1      67.626   5.729   9.191  1.00  0.00     0.003 A 
HETATM    9  C   UNL     1      68.075   4.785   8.245  1.00  0.00     0.001 A 
ENDROOT
BRANCH   4  10
HETATM   10  C   UNL     1      64.882   8.273   4.764  1.00  0.00     0.262 C 
BRANCH  10  11
HETATM   11  N   UNL     1      64.139   9.325   5.454  1.00  0.00    -0.077 N 
HETATM   12  H   UNL     1      63.408   8.903   6.028  1.00  0.00     0.274 HD
HETATM   13  H   UNL     1      63.716   9.948   4.768  1.00  0.00     0.274 HD
HETATM   14  H   UNL     1      64.776   9.854   6.049  1.00  0.00     0.274 HD
ENDBRANCH  10  11
ENDBRANCH   4  10
TORSDOF 2
ENDMDL
MODEL 7
REMARK VINA RESULT:      -3.9      2.060      3.243
REMARK  2 active torsions:
REMARK  status: ('A' for Active; 'I' for Inactive)
REMARK    1  A    between atoms: C_4  and  C_7 
REMARK    2  A    between atoms: N_6  and  C_7 
ROOT
HETATM    1  O   UNL     1      66.773   6.125   5.050  1.00  0.00    -0.343 OA
HETATM    2  C   UNL     1      65.699   6.805   4.630  1.00  0.00     0.075 A 
HETATM    3  C   UNL     1      65.500   7.947   5.346  1.00  0.00    -0.022 A 
HETATM    4  C   UNL     1      67.442   6.832   6.039  1.00  0.00     0.158 C 
HETATM    5  C   UNL     1      66.535   8.041   6.401  1.00  0.00     0.075 C 
HETATM    6  C   UNL     1      64.850   6.440   3.586  1.00  0.00     0.037 A 
HETATM    7  C   UNL     1      64.430   8.803   5.075  1.00  0.00     0.010 A 
HETATM    8  C   UNL     1      63.770   7.287   3.280  1.00  0.00     0.003 A 
HETATM    9  C   UNL     1      63.560   8.466   4.024  1.00  0.00     0.001 A 
ENDROOT
BRANCH   4  10
HETATM   10  C   UNL     1      67.774   5.962   7.258  1.00  0.00     0.262 C 
BRANCH  10  11
HETATM   11  N   UNL     1      67.779   6.767   8.476  1.00  0.00    -0.077 N 
HETATM   12  H   UNL     1      68.611   6.548   9.024  1.00  0.00     0.274 HD
HETATM   13  H   UNL     1      66.946   6.558   9.025  1.00  0.00     0.274 HD
HETATM   14  H   UNL     1      67.785   7.756   8.229  1.00  0.00     0.274 HD
ENDBRANCH  10  11
ENDBRANCH   4  10
TORSDOF 2
ENDMDL
MODEL 8
REMARK VINA RESULT:      -3.7      2.492      4.778
REMARK  2 active torsions:
REMARK  status: ('A' for Active; 'I' for Inactive)
REMARK    1  A    between atoms: C_4  and  C_7 
REMARK    2  A    between atoms: N_6  and  C_7 
ROOT
HETATM    1  O   UNL     1      63.825   7.294   3.456  1.00  0.00    -0.343 OA
HETATM    2  C   UNL     1      65.018   7.126   4.038  1.00  0.00     0.075 A 
HETATM    3  C   UNL     1      65.247   8.042   5.022  1.00  0.00    -0.022 A 
HETATM    4  C   UNL     1      63.110   8.300   4.090  1.00  0.00     0.158 C 
HETATM    5  C   UNL     1      64.092   8.966   5.095  1.00  0.00     0.075 C 
HETATM    6  C   UNL     1      65.958   6.145   3.723  1.00  0.00     0.037 A 
HETATM    7  C   UNL     1      66.435   8.047   5.754  1.00  0.00     0.010 A 
HETATM    8  C   UNL     1      67.160   6.116   4.451  1.00  0.00     0.003 A 
HETATM    9  C   UNL     1      67.399   7.067   5.465  1.00  0.00     0.001 A 
ENDROOT
BRANCH   4  10
HETATM   10  C   UNL     1      62.514   9.308   3.099  1.00  0.00     0.262 C 
BRANCH  10  11
HETATM   11  N   UNL     1      61.153   9.667   3.490  1.00  0.00    -0.077 N 
HETATM   12  H   UNL     1      61.094  10.676   3.625  1.00  0.00     0.274 HD
HETATM   13  H   UNL     1      60.913   9.194   4.361  1.00  0.00     0.274 HD
HETATM   14  H   UNL     1      60.504   9.383   2.758  1.00  0.00     0.274 HD
ENDBRANCH  10  11
ENDBRANCH   4  10
TORSDOF 2
ENDMDL
MODEL 9
REMARK VINA RESULT:      -3.7      1.673      2.276
REMARK  2 active torsions:
REMARK  status: ('A' for Active; 'I' for Inactive)
REMARK    1  A    between atoms: C_4  and  C_7 
REMARK    2  A    between atoms: N_6  and  C_7 
ROOT
HETATM    1  O   UNL     1      64.562   6.375   6.440  1.00  0.00    -0.343 OA
HETATM    2  C   UNL     1      63.645   6.928   5.638  1.00  0.00     0.075 A 
HETATM    3  C   UNL     1      64.183   7.859   4.802  1.00  0.00    -0.022 A 
HETATM    4  C   UNL     1      65.831   6.841   6.122  1.00  0.00     0.158 C 
HETATM    5  C   UNL     1      65.629   7.986   5.090  1.00  0.00     0.075 C 
HETATM    6  C   UNL     1      62.284   6.623   5.612  1.00  0.00     0.037 A 
HETATM    7  C   UNL     1      63.397   8.560   3.885  1.00  0.00     0.010 A 
HETATM    8  C   UNL     1      61.467   7.303   4.691  1.00  0.00     0.003 A 
HETATM    9  C   UNL     1      62.023   8.270   3.829  1.00  0.00     0.001 A 
ENDROOT
BRANCH   4  10
HETATM   10  C   UNL     1      66.613   7.298   7.360  1.00  0.00     0.262 C 
BRANCH  10  11
HETATM   11  N   UNL     1      66.984   8.705   7.241  1.00  0.00    -0.077 N 
HETATM   12  H   UNL     1      67.923   8.842   7.617  1.00  0.00     0.274 HD
HETATM   13  H   UNL     1      66.322   9.277   7.765  1.00  0.00     0.274 HD
HETATM   14  H   UNL     1      66.968   8.978   6.259  1.00  0.00     0.274 HD
ENDBRANCH  10  11
ENDBRANCH   4  10
TORSDOF 2
ENDMDL
