MODEL 1
REMARK VINA RESULT:      -4.9      0.000      0.000
REMARK  3 active torsions:
REMARK  status: ('A' for Active; 'I' for Inactive)
REMARK    1  A    between atoms: C_1  and  C_6 
REMARK    2  A    between atoms: C_7  and  C_12 
REMARK    3  A    between atoms: C_12  and  O_13 
ROOT
HETATM    1  C   UNL     1      65.057   8.383   5.565  1.00  0.00     0.117 A 
HETATM    2  C   UNL     1      65.549   7.108   5.758  1.00  0.00     0.070 A 
HETATM    3  N   UNL     1      66.823   8.535   6.974  1.00  0.00    -0.263 N 
ATOM      4  HN  UNL     1      67.542   8.916   7.589  1.00  0.00     0.194 HD
HETATM    5  O   UNL     1      65.837   9.238   6.304  1.00  0.00    -0.236 OA
HETATM    6  C   UNL     1      66.634   7.251   6.647  1.00  0.00     0.058 A 
ENDROOT
BRANCH   1   7
HETATM    7  C   UNL     1      63.944   8.835   4.775  1.00  0.00     0.040 A 
HETATM    8  S   UNL     1      63.045  10.240   5.181  1.00  0.00    -0.099 SA
HETATM    9  C   UNL     1      62.025  10.070   3.823  1.00  0.00     0.050 A 
HETATM   10  C   UNL     1      62.346   8.962   3.073  1.00  0.00     0.008 A 
HETATM   11  C   UNL     1      63.451   8.247   3.625  1.00  0.00     0.022 A 
ENDBRANCH   1   7
BRANCH   6  12
HETATM   12  C   UNL     1      67.519   6.186   7.197  1.00  0.00     0.223 C 
BRANCH  12  13
HETATM   13  O   UNL     1      68.074   6.527   8.466  1.00  0.00    -0.395 OA
HETATM   14  H   UNL     1      67.983   7.481   8.614  1.00  0.00     0.209 HD
ENDBRANCH  12  13
ENDBRANCH   6  12
TORSDOF 3
ENDMDL
MODEL 2
REMARK VINA RESULT:      -4.9      2.634      5.245
REMARK  3 active torsions:
REMARK  status: ('A' for Active; 'I' for Inactive)
REMARK    1  A    between atoms: C_1  and  C_6 
REMARK    2  A    between atoms: C_7  and  C_12 
REMARK    3  A    between atoms: C_12  and  O_13 
ROOT
HETATM    1  C   UNL     1      64.804   8.572   5.150  1.00  0.00     0.117 A 
HETATM    2  C   UNL     1      63.725   8.553   4.290  1.00  0.00     0.070 A 
HETATM    3  N   UNL     1      63.608  10.460   5.510  1.00  0.00    -0.263 N 
ATOM      4  HN  UNL     1      63.300  11.355   5.892  1.00  0.00     0.194 HD
HETATM    5  O   UNL     1      64.721   9.729   5.884  1.00  0.00    -0.236 OA
HETATM    6  C   UNL     1      63.020   9.748   4.541  1.00  0.00     0.058 A 
ENDROOT
BRANCH   1   7
HETATM    7  C   UNL     1      65.870   7.621   5.317  1.00  0.00     0.040 A 
HETATM    8  S   UNL     1      66.635   7.362   6.832  1.00  0.00    -0.099 SA
HETATM    9  C   UNL     1      67.665   6.162   6.190  1.00  0.00     0.050 A 
HETATM   10  C   UNL     1      67.448   5.962   4.846  1.00  0.00     0.008 A 
HETATM   11  C   UNL     1      66.414   6.807   4.342  1.00  0.00     0.022 A 
ENDBRANCH   1   7
BRANCH   6  12
HETATM   12  C   UNL     1      61.776  10.238   3.882  1.00  0.00     0.223 C 
BRANCH  12  13
HETATM   13  O   UNL     1      61.753  11.656   3.725  1.00  0.00    -0.395 OA
HETATM   14  H   UNL     1      62.063  11.888   2.836  1.00  0.00     0.209 HD
ENDBRANCH  12  13
ENDBRANCH   6  12
TORSDOF 3
ENDMDL
MODEL 3
REMARK VINA RESULT:      -4.7      3.788      4.516
REMARK  3 active torsions:
REMARK  status: ('A' for Active; 'I' for Inactive)
REMARK    1  A    between atoms: C_1  and  C_6 
REMARK    2  A    between atoms: C_7  and  C_12 
REMARK    3  A    between atoms: C_12  and  O_13 
ROOT
HETATM    1  C   UNL     1      62.822   8.812   3.408  1.00  0.00     0.117 A 
HETATM    2  C   UNL     1      62.389  10.001   3.959  1.00  0.00     0.070 A 
HETATM    3  N   UNL     1      64.016   9.168   5.299  1.00  0.00    -0.263 N 
ATOM      4  HN  UNL     1      64.681   9.046   6.063  1.00  0.00     0.194 HD
HETATM    5  O   UNL     1      63.804   8.316   4.229  1.00  0.00    -0.236 OA
HETATM    6  C   UNL     1      63.165  10.186   5.121  1.00  0.00     0.058 A 
ENDROOT
BRANCH   1   7
HETATM    7  C   UNL     1      62.400   8.141   2.209  1.00  0.00     0.040 A 
HETATM    8  S   UNL     1      62.980   6.582   1.781  1.00  0.00    -0.099 SA
HETATM    9  C   UNL     1      62.032   6.538   0.363  1.00  0.00     0.050 A 
HETATM   10  C   UNL     1      61.293   7.687   0.201  1.00  0.00     0.008 A 
HETATM   11  C   UNL     1      61.508   8.614   1.265  1.00  0.00     0.022 A 
ENDBRANCH   1   7
BRANCH   6  12
HETATM   12  C   UNL     1      63.116  11.317   6.090  1.00  0.00     0.223 C 
BRANCH  12  13
HETATM   13  O   UNL     1      64.406  11.691   6.573  1.00  0.00    -0.395 OA
HETATM   14  H   UNL     1      64.467  11.494   7.520  1.00  0.00     0.209 HD
ENDBRANCH  12  13
ENDBRANCH   6  12
TORSDOF 3
ENDMDL
MODEL 4
REMARK VINA RESULT:      -4.4      3.688      4.762
REMARK  3 active torsions:
REMARK  status: ('A' for Active; 'I' for Inactive)
REMARK    1  A    between atoms: C_1  and  C_6 
REMARK    2  A    between atoms: C_7  and  C_12 
REMARK    3  A    between atoms: C_12  and  O_13 
ROOT
HETATM    1  C   UNL     1      63.170   8.596   3.657  1.00  0.00     0.117 A 
HETATM    2  C   UNL     1      63.665   9.144   4.823  1.00  0.00     0.070 A 
HETATM    3  N   UNL     1      62.081  10.549   4.013  1.00  0.00    -0.263 N 
ATOM      4  HN  UNL     1      61.451  11.342   3.896  1.00  0.00     0.194 HD
HETATM    5  O   UNL     1      62.214   9.456   3.175  1.00  0.00    -0.236 OA
HETATM    6  C   UNL     1      62.952  10.346   5.009  1.00  0.00     0.058 A 
ENDROOT
BRANCH   1   7
HETATM    7  C   UNL     1      63.511   7.365   2.997  1.00  0.00     0.040 A 
HETATM    8  S   UNL     1      62.720   6.847   1.564  1.00  0.00    -0.099 SA
HETATM    9  C   UNL     1      63.677   5.438   1.457  1.00  0.00     0.050 A 
HETATM   10  C   UNL     1      64.578   5.347   2.494  1.00  0.00     0.008 A 
HETATM   11  C   UNL     1      64.479   6.458   3.384  1.00  0.00     0.022 A 
ENDBRANCH   1   7
BRANCH   6  12
HETATM   12  C   UNL     1      63.083  11.332   6.119  1.00  0.00     0.223 C 
BRANCH  12  13
HETATM   13  O   UNL     1      64.438  11.541   6.518  1.00  0.00    -0.395 OA
HETATM   14  H   UNL     1      64.458  11.911   7.414  1.00  0.00     0.209 HD
ENDBRANCH  12  13
ENDBRANCH   6  12
TORSDOF 3
ENDMDL
MODEL 5
REMARK VINA RESULT:      -4.3      2.097      2.571
REMARK  3 active torsions:
REMARK  status: ('A' for Active; 'I' for Inactive)
REMARK    1  A    between atoms: C_1  and  C_6 
REMARK    2  A    between atoms: C_7  and  C_12 
REMARK    3  A    between atoms: C_12  and  O_13 
ROOT
HETATM    1  C   UNL     1      63.584   8.214   4.446  1.00  0.00     0.117 A 
HETATM    2  C   UNL     1      64.938   8.176   4.708  1.00  0.00     0.070 A 
HETATM    3  N   UNL     1      63.853   7.441   6.557  1.00  0.00    -0.263 N 
ATOM      4  HN  UNL     1      63.653   7.089   7.494  1.00  0.00     0.194 HD
HETATM    5  O   UNL     1      62.938   7.770   5.573  1.00  0.00    -0.236 OA
HETATM    6  C   UNL     1      65.057   7.679   6.022  1.00  0.00     0.058 A 
ENDROOT
BRANCH   1   7
HETATM    7  C   UNL     1      62.883   8.615   3.256  1.00  0.00     0.040 A 
HETATM    8  S   UNL     1      62.683   7.562   1.915  1.00  0.00    -0.099 SA
HETATM    9  C   UNL     1      61.794   8.727   1.039  1.00  0.00     0.050 A 
HETATM   10  C   UNL     1      61.656   9.903   1.740  1.00  0.00     0.008 A 
HETATM   11  C   UNL     1      62.288   9.839   3.018  1.00  0.00     0.022 A 
ENDBRANCH   1   7
BRANCH   6  12
HETATM   12  C   UNL     1      66.301   7.428   6.802  1.00  0.00     0.223 C 
BRANCH  12  13
HETATM   13  O   UNL     1      66.952   8.631   7.209  1.00  0.00    -0.395 OA
HETATM   14  H   UNL     1      67.131   9.182   6.432  1.00  0.00     0.209 HD
ENDBRANCH  12  13
ENDBRANCH   6  12
TORSDOF 3
ENDMDL
MODEL 6
REMARK VINA RESULT:      -4.3      2.766      5.449
REMARK  3 active torsions:
REMARK  status: ('A' for Active; 'I' for Inactive)
REMARK    1  A    between atoms: C_1  and  C_6 
REMARK    2  A    between atoms: C_7  and  C_12 
REMARK    3  A    between atoms: C_12  and  O_13 
ROOT
HETATM    1  C   UNL     1      64.994   7.243   6.331  1.00  0.00     0.117 A 
HETATM    2  C   UNL     1      64.867   8.001   5.185  1.00  0.00     0.070 A 
HETATM    3  N   UNL     1      62.899   8.100   6.304  1.00  0.00    -0.263 N 
ATOM      4  HN  UNL     1      61.937   8.318   6.566  1.00  0.00     0.194 HD
HETATM    5  O   UNL     1      63.796   7.308   6.999  1.00  0.00    -0.236 OA
HETATM    6  C   UNL     1      63.557   8.522   5.218  1.00  0.00     0.058 A 
ENDROOT
BRANCH   1   7
HETATM    7  C   UNL     1      66.120   6.499   6.827  1.00  0.00     0.040 A 
HETATM    8  S   UNL     1      66.533   6.468   8.493  1.00  0.00    -0.099 SA
HETATM    9  C   UNL     1      67.854   5.422   8.222  1.00  0.00     0.050 A 
HETATM   10  C   UNL     1      67.994   5.104   6.891  1.00  0.00     0.008 A 
HETATM   11  C   UNL     1      66.995   5.728   6.085  1.00  0.00     0.022 A 
ENDBRANCH   1   7
BRANCH   6  12
HETATM   12  C   UNL     1      62.897   9.416   4.225  1.00  0.00     0.223 C 
BRANCH  12  13
HETATM   13  O   UNL     1      62.532  10.681   4.775  1.00  0.00    -0.395 OA
HETATM   14  H   UNL     1      63.181  10.941   5.448  1.00  0.00     0.209 HD
ENDBRANCH  12  13
ENDBRANCH   6  12
TORSDOF 3
ENDMDL
MODEL 7
REMARK VINA RESULT:      -4.0      2.146      2.473
REMARK  3 active torsions:
REMARK  status: ('A' for Active; 'I' for Inactive)
REMARK    1  A    between atoms: C_1  and  C_6 
REMARK    2  A    between atoms: C_7  and  C_12 
REMARK    3  A    between atoms: C_12  and  O_13 
ROOT
HETATM    1  C   UNL     1      63.410   8.266   4.647  1.00  0.00     0.117 A 
HETATM    2  C   UNL     1      64.147   7.123   4.413  1.00  0.00     0.070 A 
HETATM    3  N   UNL     1      63.997   7.405   6.657  1.00  0.00    -0.263 N 
ATOM      4  HN  UNL     1      64.101   7.277   7.664  1.00  0.00     0.194 HD
HETATM    5  O   UNL     1      63.329   8.428   6.008  1.00  0.00    -0.236 OA
HETATM    6  C   UNL     1      64.477   6.618   5.687  1.00  0.00     0.058 A 
ENDROOT
BRANCH   1   7
HETATM    7  C   UNL     1      62.795   9.176   3.719  1.00  0.00     0.040 A 
HETATM    8  S   UNL     1      62.452   8.733   2.096  1.00  0.00    -0.099 SA
HETATM    9  C   UNL     1      61.766  10.256   1.748  1.00  0.00     0.050 A 
HETATM   10  C   UNL     1      61.803  11.099   2.835  1.00  0.00     0.008 A 
HETATM   11  C   UNL     1      62.400  10.476   3.972  1.00  0.00     0.022 A 
ENDBRANCH   1   7
BRANCH   6  12
HETATM   12  C   UNL     1      65.259   5.392   6.017  1.00  0.00     0.223 C 
BRANCH  12  13
HETATM   13  O   UNL     1      66.186   5.596   7.082  1.00  0.00    -0.395 OA
HETATM   14  H   UNL     1      65.790   5.301   7.917  1.00  0.00     0.209 HD
ENDBRANCH  12  13
ENDBRANCH   6  12
TORSDOF 3
ENDMDL
MODEL 8
REMARK VINA RESULT:      -3.9      3.134      3.569
REMARK  3 active torsions:
REMARK  status: ('A' for Active; 'I' for Inactive)
REMARK    1  A    between atoms: C_1  and  C_6 
REMARK    2  A    between atoms: C_7  and  C_12 
REMARK    3  A    between atoms: C_12  and  O_13 
ROOT
HETATM    1  C   UNL     1      62.571   8.381   4.672  1.00  0.00     0.117 A 
HETATM    2  C   UNL     1      62.166   7.063   4.733  1.00  0.00     0.070 A 
HETATM    3  N   UNL     1      63.441   7.482   6.559  1.00  0.00    -0.263 N 
ATOM      4  HN  UNL     1      63.955   7.374   7.434  1.00  0.00     0.194 HD
HETATM    5  O   UNL     1      63.344   8.622   5.781  1.00  0.00    -0.236 OA
HETATM    6  C   UNL     1      62.719   6.551   5.924  1.00  0.00     0.058 A 
ENDROOT
BRANCH   1   7
HETATM    7  C   UNL     1      62.287   9.391   3.690  1.00  0.00     0.040 A 
HETATM    8  S   UNL     1      62.057  11.039   4.113  1.00  0.00    -0.099 SA
HETATM    9  C   UNL     1      61.818  11.501   2.487  1.00  0.00     0.050 A 
HETATM   10  C   UNL     1      61.898  10.427   1.630  1.00  0.00     0.008 A 
HETATM   11  C   UNL     1      62.165   9.209   2.325  1.00  0.00     0.022 A 
ENDBRANCH   1   7
BRANCH   6  12
HETATM   12  C   UNL     1      62.587   5.176   6.483  1.00  0.00     0.223 C 
BRANCH  12  13
HETATM   13  O   UNL     1      61.246   4.849   6.842  1.00  0.00    -0.395 OA
HETATM   14  H   UNL     1      60.806   4.416   6.094  1.00  0.00     0.209 HD
ENDBRANCH  12  13
ENDBRANCH   6  12
TORSDOF 3
ENDMDL
MODEL 9
REMARK VINA RESULT:      -3.9      3.294      5.731
REMARK  3 active torsions:
REMARK  status: ('A' for Active; 'I' for Inactive)
REMARK    1  A    between atoms: C_1  and  C_6 
REMARK    2  A    between atoms: C_7  and  C_12 
REMARK    3  A    between atoms: C_12  and  O_13 
ROOT
HETATM    1  C   UNL     1      63.505   8.573   4.277  1.00  0.00     0.117 A 
HETATM    2  C   UNL     1      63.122   8.106   3.036  1.00  0.00     0.070 A 
HETATM    3  N   UNL     1      62.105  10.104   3.369  1.00  0.00    -0.263 N 
ATOM      4  HN  UNL     1      61.531  10.938   3.242  1.00  0.00     0.194 HD
HETATM    5  O   UNL     1      62.881   9.781   4.469  1.00  0.00    -0.236 OA
HETATM    6  C   UNL     1      62.265   9.093   2.507  1.00  0.00     0.058 A 
ENDROOT
BRANCH   1   7
HETATM    7  C   UNL     1      64.387   7.992   5.253  1.00  0.00     0.040 A 
HETATM    8  S   UNL     1      63.862   6.784   6.355  1.00  0.00    -0.099 SA
HETATM    9  C   UNL     1      65.410   6.654   7.062  1.00  0.00     0.050 A 
HETATM   10  C   UNL     1      66.315   7.516   6.486  1.00  0.00     0.008 A 
HETATM   11  C   UNL     1      65.722   8.291   5.444  1.00  0.00     0.022 A 
ENDBRANCH   1   7
BRANCH   6  12
HETATM   12  C   UNL     1      61.574   9.099   1.187  1.00  0.00     0.223 C 
BRANCH  12  13
HETATM   13  O   UNL     1      60.170   8.871   1.295  1.00  0.00    -0.395 OA
HETATM   14  H   UNL     1      59.976   8.439   2.141  1.00  0.00     0.209 HD
ENDBRANCH  12  13
ENDBRANCH   6  12
TORSDOF 3
ENDMDL
