MODEL 1
REMARK VINA RESULT:      -5.5      0.000      0.000
REMARK  2 active torsions:
REMARK  status: ('A' for Active; 'I' for Inactive)
REMARK    1  A    between atoms: C_1  and  C_3 
REMARK    2  A    between atoms: C_2  and  N_4 
ROOT
HETATM    1  C   UNL     1      62.478   9.751   3.594  1.00  0.00     0.067 A 
HETATM    2  C   UNL     1      63.091   8.476   3.497  1.00  0.00     0.047 A 
HETATM    3  C   UNL     1      61.795  10.311   2.494  1.00  0.00     0.021 A 
HETATM    4  C   UNL     1      62.967   7.814   2.258  1.00  0.00     0.030 A 
HETATM    5  C   UNL     1      61.703   9.627   1.287  1.00  0.00     0.001 A 
HETATM    6  C   UNL     1      62.288   8.376   1.170  1.00  0.00     0.002 A 
ENDROOT
BRANCH   2   7
HETATM    7  N   UNL     1      63.818   7.900   4.530  1.00  0.00    -0.376 N 
HETATM    8  C   UNL     1      65.290   7.966   4.563  1.00  0.00     0.149 C 
HETATM    9  C   UNL     1      65.753   7.870   6.027  1.00  0.00     0.187 C 
HETATM   10  O   UNL     1      65.274   6.666   6.656  1.00  0.00    -0.388 OA
HETATM   11  C   UNL     1      63.833   6.633   6.628  1.00  0.00     0.187 C 
HETATM   12  C   UNL     1      63.303   6.678   5.183  1.00  0.00     0.149 C 
ENDBRANCH   2   7
BRANCH   1  13
HETATM   13  C   UNL     1      62.605  10.610   4.808  1.00  0.00     0.211 C 
HETATM   14  O   UNL     1      63.081  10.331   5.892  1.00  0.00    -0.644 OA
HETATM   15  O   UNL     1      62.063  11.829   4.603  1.00  0.00    -0.644 OA
ENDBRANCH   1  13
TORSDOF 2
ENDMDL
MODEL 2
REMARK VINA RESULT:      -5.2      2.079      3.062
REMARK  2 active torsions:
REMARK  status: ('A' for Active; 'I' for Inactive)
REMARK    1  A    between atoms: C_1  and  C_3 
REMARK    2  A    between atoms: C_2  and  N_4 
ROOT
HETATM    1  C   UNL     1      62.686   8.592   2.514  1.00  0.00     0.067 A 
HETATM    2  C   UNL     1      62.862   9.116   3.820  1.00  0.00     0.047 A 
HETATM    3  C   UNL     1      62.111   9.375   1.491  1.00  0.00     0.021 A 
HETATM    4  C   UNL     1      62.442  10.447   4.022  1.00  0.00     0.030 A 
HETATM    5  C   UNL     1      61.703  10.682   1.737  1.00  0.00     0.001 A 
HETATM    6  C   UNL     1      61.872  11.219   3.003  1.00  0.00     0.002 A 
ENDROOT
BRANCH   2   7
HETATM    7  N   UNL     1      63.376   8.374   4.875  1.00  0.00    -0.376 N 
HETATM    8  C   UNL     1      62.494   7.760   5.883  1.00  0.00     0.149 C 
HETATM    9  C   UNL     1      63.208   6.534   6.479  1.00  0.00     0.187 C 
HETATM   10  O   UNL     1      64.480   6.889   7.052  1.00  0.00    -0.388 OA
HETATM   11  C   UNL     1      65.331   7.471   6.044  1.00  0.00     0.187 C 
HETATM   12  C   UNL     1      64.693   8.735   5.439  1.00  0.00     0.149 C 
ENDBRANCH   2   7
BRANCH   1  13
HETATM   13  C   UNL     1      62.995   7.173   2.173  1.00  0.00     0.211 C 
HETATM   14  O   UNL     1      63.998   6.531   2.421  1.00  0.00    -0.644 OA
HETATM   15  O   UNL     1      61.993   6.611   1.465  1.00  0.00    -0.644 OA
ENDBRANCH   1  13
TORSDOF 2
ENDMDL
MODEL 3
REMARK VINA RESULT:      -5.1      1.918      2.290
REMARK  2 active torsions:
REMARK  status: ('A' for Active; 'I' for Inactive)
REMARK    1  A    between atoms: C_1  and  C_3 
REMARK    2  A    between atoms: C_2  and  N_4 
ROOT
HETATM    1  C   UNL     1      62.682   9.327   4.105  1.00  0.00     0.067 A 
HETATM    2  C   UNL     1      62.624   8.289   3.141  1.00  0.00     0.047 A 
HETATM    3  C   UNL     1      62.300  10.644   3.774  1.00  0.00     0.021 A 
HETATM    4  C   UNL     1      62.160   8.650   1.859  1.00  0.00     0.030 A 
HETATM    5  C   UNL     1      61.856  10.959   2.495  1.00  0.00     0.001 A 
HETATM    6  C   UNL     1      61.783   9.959   1.537  1.00  0.00     0.002 A 
ENDROOT
BRANCH   2   7
HETATM    7  N   UNL     1      63.034   6.987   3.397  1.00  0.00    -0.376 N 
HETATM    8  C   UNL     1      64.255   6.433   2.787  1.00  0.00     0.149 C 
HETATM    9  C   UNL     1      64.799   5.321   3.701  1.00  0.00     0.187 C 
HETATM   10  O   UNL     1      63.818   4.291   3.923  1.00  0.00    -0.388 OA
HETATM   11  C   UNL     1      62.641   4.853   4.536  1.00  0.00     0.187 C 
HETATM   12  C   UNL     1      62.017   5.945   3.646  1.00  0.00     0.149 C 
ENDBRANCH   2   7
BRANCH   1  13
HETATM   13  C   UNL     1      63.239   9.118   5.473  1.00  0.00     0.211 C 
HETATM   14  O   UNL     1      62.800   8.433   6.378  1.00  0.00    -0.644 OA
HETATM   15  O   UNL     1      64.358   9.848   5.662  1.00  0.00    -0.644 OA
ENDBRANCH   1  13
TORSDOF 2
ENDMDL
MODEL 4
REMARK VINA RESULT:      -4.8      3.164      4.475
REMARK  2 active torsions:
REMARK  status: ('A' for Active; 'I' for Inactive)
REMARK    1  A    between atoms: C_1  and  C_3 
REMARK    2  A    between atoms: C_2  and  N_4 
ROOT
HETATM    1  C   UNL     1      65.323   7.669   5.337  1.00  0.00     0.067 A 
HETATM    2  C   UNL     1      64.735   6.828   6.316  1.00  0.00     0.047 A 
HETATM    3  C   UNL     1      64.525   8.518   4.541  1.00  0.00     0.021 A 
HETATM    4  C   UNL     1      63.333   6.901   6.446  1.00  0.00     0.030 A 
HETATM    5  C   UNL     1      63.144   8.554   4.697  1.00  0.00     0.001 A 
HETATM    6  C   UNL     1      62.548   7.746   5.653  1.00  0.00     0.002 A 
ENDROOT
BRANCH   2   7
HETATM    7  N   UNL     1      65.466   5.936   7.092  1.00  0.00    -0.376 N 
HETATM    8  C   UNL     1      65.147   4.498   7.113  1.00  0.00     0.149 C 
HETATM    9  C   UNL     1      66.425   3.718   7.471  1.00  0.00     0.187 C 
HETATM   10  O   UNL     1      66.971   4.147   8.732  1.00  0.00    -0.388 OA
HETATM   11  C   UNL     1      67.291   5.552   8.681  1.00  0.00     0.187 C 
HETATM   12  C   UNL     1      66.041   6.396   8.373  1.00  0.00     0.149 C 
ENDBRANCH   2   7
BRANCH   1  13
HETATM   13  C   UNL     1      66.780   7.632   5.021  1.00  0.00     0.211 C 
HETATM   14  O   UNL     1      67.682   8.287   5.508  1.00  0.00    -0.644 OA
HETATM   15  O   UNL     1      67.043   6.757   4.028  1.00  0.00    -0.644 OA
ENDBRANCH   1  13
TORSDOF 2
ENDMDL
MODEL 5
REMARK VINA RESULT:      -4.8      2.245      2.982
REMARK  2 active torsions:
REMARK  status: ('A' for Active; 'I' for Inactive)
REMARK    1  A    between atoms: C_1  and  C_3 
REMARK    2  A    between atoms: C_2  and  N_4 
ROOT
HETATM    1  C   UNL     1      63.087   8.434   3.726  1.00  0.00     0.067 A 
HETATM    2  C   UNL     1      63.819   8.876   4.857  1.00  0.00     0.047 A 
HETATM    3  C   UNL     1      62.105   9.256   3.134  1.00  0.00     0.021 A 
HETATM    4  C   UNL     1      63.516  10.168   5.334  1.00  0.00     0.030 A 
HETATM    5  C   UNL     1      61.831  10.521   3.641  1.00  0.00     0.001 A 
HETATM    6  C   UNL     1      62.540  10.979   4.742  1.00  0.00     0.002 A 
ENDROOT
BRANCH   2   7
HETATM    7  N   UNL     1      64.760   8.090   5.510  1.00  0.00    -0.376 N 
HETATM    8  C   UNL     1      66.123   7.924   4.977  1.00  0.00     0.149 C 
HETATM    9  C   UNL     1      67.072   7.606   6.146  1.00  0.00     0.187 C 
HETATM   10  O   UNL     1      66.650   6.433   6.867  1.00  0.00    -0.388 OA
HETATM   11  C   UNL     1      65.322   6.627   7.393  1.00  0.00     0.187 C 
HETATM   12  C   UNL     1      64.311   6.902   6.265  1.00  0.00     0.149 C 
ENDBRANCH   2   7
BRANCH   1  13
HETATM   13  C   UNL     1      63.230   7.058   3.168  1.00  0.00     0.211 C 
HETATM   14  O   UNL     1      64.124   6.605   2.478  1.00  0.00    -0.644 OA
HETATM   15  O   UNL     1      62.169   6.288   3.486  1.00  0.00    -0.644 OA
ENDBRANCH   1  13
TORSDOF 2
ENDMDL
MODEL 6
REMARK VINA RESULT:      -4.7      2.157      4.406
REMARK  2 active torsions:
REMARK  status: ('A' for Active; 'I' for Inactive)
REMARK    1  A    between atoms: C_1  and  C_3 
REMARK    2  A    between atoms: C_2  and  N_4 
ROOT
HETATM    1  C   UNL     1      63.612   8.830   4.421  1.00  0.00     0.067 A 
HETATM    2  C   UNL     1      63.282   7.812   3.491  1.00  0.00     0.047 A 
HETATM    3  C   UNL     1      64.823   8.784   5.144  1.00  0.00     0.021 A 
HETATM    4  C   UNL     1      64.228   6.778   3.331  1.00  0.00     0.030 A 
HETATM    5  C   UNL     1      65.725   7.742   4.961  1.00  0.00     0.001 A 
HETATM    6  C   UNL     1      65.427   6.738   4.052  1.00  0.00     0.002 A 
ENDROOT
BRANCH   2   7
HETATM    7  N   UNL     1      62.083   7.780   2.790  1.00  0.00    -0.376 N 
HETATM    8  C   UNL     1      60.973   6.907   3.208  1.00  0.00     0.149 C 
HETATM    9  C   UNL     1      59.651   7.527   2.722  1.00  0.00     0.187 C 
HETATM   10  O   UNL     1      59.650   7.719   1.295  1.00  0.00    -0.388 OA
HETATM   11  C   UNL     1      60.733   8.590   0.912  1.00  0.00     0.187 C 
HETATM   12  C   UNL     1      62.094   8.001   1.329  1.00  0.00     0.149 C 
ENDBRANCH   2   7
BRANCH   1  13
HETATM   13  C   UNL     1      62.671   9.935   4.765  1.00  0.00     0.211 C 
HETATM   14  O   UNL     1      61.746  10.379   4.112  1.00  0.00    -0.644 OA
HETATM   15  O   UNL     1      62.979  10.486   5.958  1.00  0.00    -0.644 OA
ENDBRANCH   1  13
TORSDOF 2
ENDMDL
MODEL 7
REMARK VINA RESULT:      -4.5      2.269      4.571
REMARK  2 active torsions:
REMARK  status: ('A' for Active; 'I' for Inactive)
REMARK    1  A    between atoms: C_1  and  C_3 
REMARK    2  A    between atoms: C_2  and  N_4 
ROOT
HETATM    1  C   UNL     1      65.393   7.049   4.596  1.00  0.00     0.067 A 
HETATM    2  C   UNL     1      64.408   6.638   3.662  1.00  0.00     0.047 A 
HETATM    3  C   UNL     1      66.669   6.447   4.613  1.00  0.00     0.021 A 
HETATM    4  C   UNL     1      64.784   5.619   2.763  1.00  0.00     0.030 A 
HETATM    5  C   UNL     1      66.995   5.439   3.713  1.00  0.00     0.001 A 
HETATM    6  C   UNL     1      66.052   5.026   2.785  1.00  0.00     0.002 A 
ENDROOT
BRANCH   2   7
HETATM    7  N   UNL     1      63.121   7.159   3.633  1.00  0.00    -0.376 N 
HETATM    8  C   UNL     1      61.937   6.285   3.702  1.00  0.00     0.149 C 
HETATM    9  C   UNL     1      60.768   7.087   4.300  1.00  0.00     0.187 C 
HETATM   10  O   UNL     1      60.493   8.274   3.532  1.00  0.00    -0.388 OA
HETATM   11  C   UNL     1      61.659   9.121   3.495  1.00  0.00     0.187 C 
HETATM   12  C   UNL     1      62.857   8.391   2.861  1.00  0.00     0.149 C 
ENDBRANCH   2   7
BRANCH   1  13
HETATM   13  C   UNL     1      65.112   8.048   5.668  1.00  0.00     0.211 C 
HETATM   14  O   UNL     1      65.135   9.262   5.602  1.00  0.00    -0.644 OA
HETATM   15  O   UNL     1      64.840   7.441   6.843  1.00  0.00    -0.644 OA
ENDBRANCH   1  13
TORSDOF 2
ENDMDL
MODEL 8
REMARK VINA RESULT:      -4.5      2.586      5.683
REMARK  2 active torsions:
REMARK  status: ('A' for Active; 'I' for Inactive)
REMARK    1  A    between atoms: C_1  and  C_3 
REMARK    2  A    between atoms: C_2  and  N_4 
ROOT
HETATM    1  C   UNL     1      66.816   6.545   6.329  1.00  0.00     0.067 A 
HETATM    2  C   UNL     1      65.572   5.886   6.157  1.00  0.00     0.047 A 
HETATM    3  C   UNL     1      67.858   5.943   7.065  1.00  0.00     0.021 A 
HETATM    4  C   UNL     1      65.452   4.611   6.749  1.00  0.00     0.030 A 
HETATM    5  C   UNL     1      67.694   4.688   7.639  1.00  0.00     0.001 A 
HETATM    6  C   UNL     1      66.490   4.020   7.479  1.00  0.00     0.002 A 
ENDROOT
BRANCH   2   7
HETATM    7  N   UNL     1      64.496   6.452   5.486  1.00  0.00    -0.376 N 
HETATM    8  C   UNL     1      63.373   7.065   6.216  1.00  0.00     0.149 C 
HETATM    9  C   UNL     1      62.725   8.131   5.314  1.00  0.00     0.187 C 
HETATM   10  O   UNL     1      62.285   7.570   4.063  1.00  0.00    -0.388 OA
HETATM   11  C   UNL     1      63.404   6.992   3.360  1.00  0.00     0.187 C 
HETATM   12  C   UNL     1      64.070   5.881   4.191  1.00  0.00     0.149 C 
ENDBRANCH   2   7
BRANCH   1  13
HETATM   13  C   UNL     1      67.059   7.934   5.841  1.00  0.00     0.211 C 
HETATM   14  O   UNL     1      67.672   8.299   4.856  1.00  0.00    -0.644 OA
HETATM   15  O   UNL     1      66.527   8.847   6.681  1.00  0.00    -0.644 OA
ENDBRANCH   1  13
TORSDOF 2
ENDMDL
MODEL 9
REMARK VINA RESULT:      -4.4      2.453      2.894
REMARK  2 active torsions:
REMARK  status: ('A' for Active; 'I' for Inactive)
REMARK    1  A    between atoms: C_1  and  C_3 
REMARK    2  A    between atoms: C_2  and  N_4 
ROOT
HETATM    1  C   UNL     1      62.513   6.963   4.851  1.00  0.00     0.067 A 
HETATM    2  C   UNL     1      63.802   6.880   4.265  1.00  0.00     0.047 A 
HETATM    3  C   UNL     1      61.357   7.037   4.047  1.00  0.00     0.021 A 
HETATM    4  C   UNL     1      63.850   6.867   2.856  1.00  0.00     0.030 A 
HETATM    5  C   UNL     1      61.450   7.030   2.660  1.00  0.00     0.001 A 
HETATM    6  C   UNL     1      62.698   6.942   2.064  1.00  0.00     0.002 A 
ENDROOT
BRANCH   2   7
HETATM    7  N   UNL     1      64.976   6.856   5.007  1.00  0.00    -0.376 N 
HETATM    8  C   UNL     1      65.793   8.067   5.191  1.00  0.00     0.149 C 
HETATM    9  C   UNL     1      66.583   7.932   6.505  1.00  0.00     0.187 C 
HETATM   10  O   UNL     1      67.404   6.748   6.509  1.00  0.00    -0.388 OA
HETATM   11  C   UNL     1      66.581   5.576   6.346  1.00  0.00     0.187 C 
HETATM   12  C   UNL     1      65.796   5.626   5.022  1.00  0.00     0.149 C 
ENDBRANCH   2   7
BRANCH   1  13
HETATM   13  C   UNL     1      62.310   7.081   6.324  1.00  0.00     0.211 C 
HETATM   14  O   UNL     1      62.721   7.937   7.084  1.00  0.00    -0.644 OA
HETATM   15  O   UNL     1      61.595   6.041   6.804  1.00  0.00    -0.644 OA
ENDBRANCH   1  13
TORSDOF 2
ENDMDL
