MODEL 1
REMARK VINA RESULT:      -4.7      0.000      0.000
REMARK  2 active torsions:
REMARK  status: ('A' for Active; 'I' for Inactive)
REMARK    1  A    between atoms: C_8  and  C_11 
REMARK    2  A    between atoms: N_10  and  C_11 
ROOT
HETATM    1  C   UNL     1      62.163   9.183   2.332  1.00  0.00    -0.018 A 
HETATM    2  S   UNL     1      62.854   6.854   1.456  1.00  0.00    -0.101 SA
HETATM    3  C   UNL     1      62.865   8.035   2.711  1.00  0.00     0.015 A 
HETATM    4  C   UNL     1      61.935   7.850   0.422  1.00  0.00     0.051 A 
HETATM    5  C   UNL     1      61.630   9.057   1.007  1.00  0.00     0.020 A 
HETATM    6  C   UNL     1      62.087  10.252   3.255  1.00  0.00     0.021 A 
HETATM    7  C   UNL     1      63.479   7.931   3.973  1.00  0.00     0.020 A 
HETATM    8  C   UNL     1      62.707  10.174   4.516  1.00  0.00    -0.032 A 
HETATM    9  C   UNL     1      63.392   9.009   4.862  1.00  0.00     0.010 A 
ENDROOT
BRANCH   8  10
HETATM   10  C   UNL     1      62.623  11.337   5.471  1.00  0.00     0.268 C 
BRANCH  10  11
HETATM   11  N   UNL     1      63.825  11.437   6.292  1.00  0.00    -0.075 N 
HETATM   12  H   UNL     1      64.309  10.540   6.296  1.00  0.00     0.274 HD
HETATM   13  H   UNL     1      63.566  11.688   7.245  1.00  0.00     0.274 HD
HETATM   14  H   UNL     1      64.440  12.153   5.906  1.00  0.00     0.274 HD
ENDBRANCH  10  11
ENDBRANCH   8  10
TORSDOF 2
ENDMDL
MODEL 2
REMARK VINA RESULT:      -4.6      0.914      2.056
REMARK  2 active torsions:
REMARK  status: ('A' for Active; 'I' for Inactive)
REMARK    1  A    between atoms: C_8  and  C_11 
REMARK    2  A    between atoms: N_10  and  C_11 
ROOT
HETATM    1  C   UNL     1      63.082   8.284   3.330  1.00  0.00    -0.018 A 
HETATM    2  S   UNL     1      62.446   7.468   0.963  1.00  0.00    -0.101 SA
HETATM    3  C   UNL     1      62.426   8.700   2.168  1.00  0.00     0.015 A 
HETATM    4  C   UNL     1      63.310   6.395   1.968  1.00  0.00     0.051 A 
HETATM    5  C   UNL     1      63.590   6.950   3.194  1.00  0.00     0.020 A 
HETATM    6  C   UNL     1      63.146   9.185   4.419  1.00  0.00     0.021 A 
HETATM    7  C   UNL     1      61.844   9.978   2.071  1.00  0.00     0.020 A 
HETATM    8  C   UNL     1      62.556  10.460   4.346  1.00  0.00    -0.032 A 
HETATM    9  C   UNL     1      61.917  10.844   3.167  1.00  0.00     0.010 A 
ENDROOT
BRANCH   8  10
HETATM   10  C   UNL     1      62.626  11.391   5.530  1.00  0.00     0.268 C 
BRANCH  10  11
HETATM   11  N   UNL     1      63.901  11.268   6.226  1.00  0.00    -0.075 N 
HETATM   12  H   UNL     1      63.875  11.817   7.085  1.00  0.00     0.274 HD
HETATM   13  H   UNL     1      64.651  11.611   5.627  1.00  0.00     0.274 HD
HETATM   14  H   UNL     1      64.070  10.288   6.455  1.00  0.00     0.274 HD
ENDBRANCH  10  11
ENDBRANCH   8  10
TORSDOF 2
ENDMDL
MODEL 3
REMARK VINA RESULT:      -4.2      1.904      3.363
REMARK  2 active torsions:
REMARK  status: ('A' for Active; 'I' for Inactive)
REMARK    1  A    between atoms: C_8  and  C_11 
REMARK    2  A    between atoms: N_10  and  C_11 
ROOT
HETATM    1  C   UNL     1      65.029   7.709   4.687  1.00  0.00    -0.018 A 
HETATM    2  S   UNL     1      65.064   5.646   3.135  1.00  0.00    -0.101 SA
HETATM    3  C   UNL     1      64.313   7.109   3.649  1.00  0.00     0.015 A 
HETATM    4  C   UNL     1      66.322   5.802   4.275  1.00  0.00     0.051 A 
HETATM    5  C   UNL     1      66.190   6.941   5.034  1.00  0.00     0.020 A 
HETATM    6  C   UNL     1      64.535   8.920   5.226  1.00  0.00     0.021 A 
HETATM    7  C   UNL     1      63.133   7.685   3.141  1.00  0.00     0.020 A 
HETATM    8  C   UNL     1      63.349   9.503   4.743  1.00  0.00    -0.032 A 
HETATM    9  C   UNL     1      62.665   8.880   3.700  1.00  0.00     0.010 A 
ENDROOT
BRANCH   8  10
HETATM   10  C   UNL     1      62.838  10.785   5.350  1.00  0.00     0.268 C 
BRANCH  10  11
HETATM   11  N   UNL     1      63.816  11.365   6.263  1.00  0.00    -0.075 N 
HETATM   12  H   UNL     1      63.335  11.939   6.957  1.00  0.00     0.274 HD
HETATM   13  H   UNL     1      64.471  11.944   5.739  1.00  0.00     0.274 HD
HETATM   14  H   UNL     1      64.325  10.618   6.735  1.00  0.00     0.274 HD
ENDBRANCH  10  11
ENDBRANCH   8  10
TORSDOF 2
ENDMDL
MODEL 4
REMARK VINA RESULT:      -4.2      2.193      3.468
REMARK  2 active torsions:
REMARK  status: ('A' for Active; 'I' for Inactive)
REMARK    1  A    between atoms: C_8  and  C_11 
REMARK    2  A    between atoms: N_10  and  C_11 
ROOT
HETATM    1  C   UNL     1      63.560   9.093   4.548  1.00  0.00    -0.018 A 
HETATM    2  S   UNL     1      61.879   8.729   2.622  1.00  0.00    -0.101 SA
HETATM    3  C   UNL     1      63.269   8.214   3.501  1.00  0.00     0.015 A 
HETATM    4  C   UNL     1      61.667  10.101   3.612  1.00  0.00     0.051 A 
HETATM    5  C   UNL     1      62.622  10.176   4.599  1.00  0.00     0.020 A 
HETATM    6  C   UNL     1      64.682   8.811   5.362  1.00  0.00     0.021 A 
HETATM    7  C   UNL     1      64.058   7.075   3.256  1.00  0.00     0.020 A 
HETATM    8  C   UNL     1      65.493   7.686   5.123  1.00  0.00    -0.032 A 
HETATM    9  C   UNL     1      65.166   6.826   4.074  1.00  0.00     0.010 A 
ENDROOT
BRANCH   8  10
HETATM   10  C   UNL     1      66.692   7.421   5.998  1.00  0.00     0.268 C 
BRANCH  10  11
HETATM   11  N   UNL     1      66.894   8.499   6.959  1.00  0.00    -0.075 N 
HETATM   12  H   UNL     1      66.010   8.714   7.420  1.00  0.00     0.274 HD
HETATM   13  H   UNL     1      67.235   9.328   6.475  1.00  0.00     0.274 HD
HETATM   14  H   UNL     1      67.578   8.207   7.658  1.00  0.00     0.274 HD
ENDBRANCH  10  11
ENDBRANCH   8  10
TORSDOF 2
ENDMDL
MODEL 5
REMARK VINA RESULT:      -4.0      2.208      3.644
REMARK  2 active torsions:
REMARK  status: ('A' for Active; 'I' for Inactive)
REMARK    1  A    between atoms: C_8  and  C_11 
REMARK    2  A    between atoms: N_10  and  C_11 
ROOT
HETATM    1  C   UNL     1      64.043   7.942   4.938  1.00  0.00    -0.018 A 
HETATM    2  S   UNL     1      64.816   5.622   4.109  1.00  0.00    -0.101 SA
HETATM    3  C   UNL     1      63.956   7.090   3.835  1.00  0.00     0.015 A 
HETATM    4  C   UNL     1      65.296   6.107   5.671  1.00  0.00     0.051 A 
HETATM    5  C   UNL     1      64.825   7.359   5.989  1.00  0.00     0.020 A 
HETATM    6  C   UNL     1      63.380   9.190   4.871  1.00  0.00     0.021 A 
HETATM    7  C   UNL     1      63.235   7.452   2.681  1.00  0.00     0.020 A 
HETATM    8  C   UNL     1      62.642   9.564   3.733  1.00  0.00    -0.032 A 
HETATM    9  C   UNL     1      62.584   8.691   2.647  1.00  0.00     0.010 A 
ENDROOT
BRANCH   8  10
HETATM   10  C   UNL     1      61.933  10.894   3.698  1.00  0.00     0.268 C 
BRANCH  10  11
HETATM   11  N   UNL     1      61.556  11.257   2.337  1.00  0.00    -0.075 N 
HETATM   12  H   UNL     1      61.054  10.482   1.904  1.00  0.00     0.274 HD
HETATM   13  H   UNL     1      62.394  11.465   1.795  1.00  0.00     0.274 HD
HETATM   14  H   UNL     1      60.953  12.081   2.360  1.00  0.00     0.274 HD
ENDBRANCH  10  11
ENDBRANCH   8  10
TORSDOF 2
ENDMDL
MODEL 6
REMARK VINA RESULT:      -3.9      2.532      3.853
REMARK  2 active torsions:
REMARK  status: ('A' for Active; 'I' for Inactive)
REMARK    1  A    between atoms: C_8  and  C_11 
REMARK    2  A    between atoms: N_10  and  C_11 
ROOT
HETATM    1  C   UNL     1      64.177   7.475   3.836  1.00  0.00    -0.018 A 
HETATM    2  S   UNL     1      65.562   7.457   6.016  1.00  0.00    -0.101 SA
HETATM    3  C   UNL     1      64.375   8.202   5.013  1.00  0.00     0.015 A 
HETATM    4  C   UNL     1      65.814   6.189   4.904  1.00  0.00     0.051 A 
HETATM    5  C   UNL     1      65.015   6.312   3.792  1.00  0.00     0.020 A 
HETATM    6  C   UNL     1      63.234   7.964   2.901  1.00  0.00     0.021 A 
HETATM    7  C   UNL     1      63.660   9.386   5.274  1.00  0.00     0.020 A 
HETATM    8  C   UNL     1      62.521   9.153   3.137  1.00  0.00    -0.032 A 
HETATM    9  C   UNL     1      62.739   9.848   4.327  1.00  0.00     0.010 A 
ENDROOT
BRANCH   8  10
HETATM   10  C   UNL     1      61.535   9.657   2.114  1.00  0.00     0.268 C 
BRANCH  10  11
HETATM   11  N   UNL     1      61.483  11.115   2.102  1.00  0.00    -0.075 N 
HETATM   12  H   UNL     1      62.365  11.484   1.748  1.00  0.00     0.274 HD
HETATM   13  H   UNL     1      61.327  11.458   3.050  1.00  0.00     0.274 HD
HETATM   14  H   UNL     1      60.720  11.422   1.499  1.00  0.00     0.274 HD
ENDBRANCH  10  11
ENDBRANCH   8  10
TORSDOF 2
ENDMDL
MODEL 7
REMARK VINA RESULT:      -3.9      3.264      4.726
REMARK  2 active torsions:
REMARK  status: ('A' for Active; 'I' for Inactive)
REMARK    1  A    between atoms: C_8  and  C_11 
REMARK    2  A    between atoms: N_10  and  C_11 
ROOT
HETATM    1  C   UNL     1      65.125   8.033   5.728  1.00  0.00    -0.018 A 
HETATM    2  S   UNL     1      65.482   5.988   7.264  1.00  0.00    -0.101 SA
HETATM    3  C   UNL     1      64.444   6.942   6.274  1.00  0.00     0.015 A 
HETATM    4  C   UNL     1      66.818   7.007   6.977  1.00  0.00     0.051 A 
HETATM    5  C   UNL     1      66.498   8.052   6.142  1.00  0.00     0.020 A 
HETATM    6  C   UNL     1      64.405   8.920   4.894  1.00  0.00     0.021 A 
HETATM    7  C   UNL     1      63.080   6.719   6.006  1.00  0.00     0.020 A 
HETATM    8  C   UNL     1      63.038   8.722   4.627  1.00  0.00    -0.032 A 
HETATM    9  C   UNL     1      62.393   7.618   5.183  1.00  0.00     0.010 A 
ENDROOT
BRANCH   8  10
HETATM   10  C   UNL     1      62.294   9.695   3.747  1.00  0.00     0.268 C 
BRANCH  10  11
HETATM   11  N   UNL     1      60.931   9.241   3.492  1.00  0.00    -0.075 N 
HETATM   12  H   UNL     1      60.687   9.426   2.519  1.00  0.00     0.274 HD
HETATM   13  H   UNL     1      60.286   9.740   4.104  1.00  0.00     0.274 HD
HETATM   14  H   UNL     1      60.867   8.239   3.674  1.00  0.00     0.274 HD
ENDBRANCH  10  11
ENDBRANCH   8  10
TORSDOF 2
ENDMDL
MODEL 8
REMARK VINA RESULT:      -3.7      1.986      2.844
REMARK  2 active torsions:
REMARK  status: ('A' for Active; 'I' for Inactive)
REMARK    1  A    between atoms: C_8  and  C_11 
REMARK    2  A    between atoms: N_10  and  C_11 
ROOT
HETATM    1  C   UNL     1      63.454   7.396   2.878  1.00  0.00    -0.018 A 
HETATM    2  S   UNL     1      61.490   8.586   1.695  1.00  0.00    -0.101 SA
HETATM    3  C   UNL     1      62.635   8.523   2.982  1.00  0.00     0.015 A 
HETATM    4  C   UNL     1      62.069   7.136   1.010  1.00  0.00     0.051 A 
HETATM    5  C   UNL     1      63.114   6.607   1.729  1.00  0.00     0.020 A 
HETATM    6  C   UNL     1      64.445   7.197   3.868  1.00  0.00     0.021 A 
HETATM    7  C   UNL     1      62.785   9.445   4.035  1.00  0.00     0.020 A 
HETATM    8  C   UNL     1      64.599   8.099   4.937  1.00  0.00    -0.032 A 
HETATM    9  C   UNL     1      63.769   9.218   5.003  1.00  0.00     0.010 A 
ENDROOT
BRANCH   8  10
HETATM   10  C   UNL     1      65.653   7.851   5.986  1.00  0.00     0.268 C 
BRANCH  10  11
HETATM   11  N   UNL     1      65.107   7.117   7.121  1.00  0.00    -0.075 N 
HETATM   12  H   UNL     1      65.626   7.359   7.965  1.00  0.00     0.274 HD
HETATM   13  H   UNL     1      65.187   6.115   6.950  1.00  0.00     0.274 HD
HETATM   14  H   UNL     1      64.125   7.363   7.244  1.00  0.00     0.274 HD
ENDBRANCH  10  11
ENDBRANCH   8  10
TORSDOF 2
ENDMDL
MODEL 9
REMARK VINA RESULT:      -3.7      4.187      5.557
REMARK  2 active torsions:
REMARK  status: ('A' for Active; 'I' for Inactive)
REMARK    1  A    between atoms: C_8  and  C_11 
REMARK    2  A    between atoms: N_10  and  C_11 
ROOT
HETATM    1  C   UNL     1      64.652   6.972   6.291  1.00  0.00    -0.018 A 
HETATM    2  S   UNL     1      63.807   8.515   4.400  1.00  0.00    -0.101 SA
HETATM    3  C   UNL     1      65.114   7.767   5.239  1.00  0.00     0.015 A 
HETATM    4  C   UNL     1      62.643   7.797   5.419  1.00  0.00     0.051 A 
HETATM    5  C   UNL     1      63.221   6.998   6.378  1.00  0.00     0.020 A 
HETATM    6  C   UNL     1      65.608   6.293   7.083  1.00  0.00     0.021 A 
HETATM    7  C   UNL     1      66.488   7.895   4.962  1.00  0.00     0.020 A 
HETATM    8  C   UNL     1      66.987   6.421   6.832  1.00  0.00    -0.032 A 
HETATM    9  C   UNL     1      67.410   7.217   5.767  1.00  0.00     0.010 A 
ENDROOT
BRANCH   8  10
HETATM   10  C   UNL     1      67.982   5.699   7.704  1.00  0.00     0.268 C 
BRANCH  10  11
HETATM   11  N   UNL     1      68.073   6.314   9.024  1.00  0.00    -0.075 N 
HETATM   12  H   UNL     1      68.397   7.277   8.929  1.00  0.00     0.274 HD
HETATM   13  H   UNL     1      68.731   5.790   9.599  1.00  0.00     0.274 HD
HETATM   14  H   UNL     1      67.154   6.307   9.466  1.00  0.00     0.274 HD
ENDBRANCH  10  11
ENDBRANCH   8  10
TORSDOF 2
ENDMDL
