MODEL 1
REMARK VINA RESULT:      -5.2      0.000      0.000
REMARK  3 active torsions:
REMARK  status: ('A' for Active; 'I' for Inactive)
REMARK    1  A    between atoms: N_1  and  C_2 
REMARK    2  A    between atoms: C_3  and  C_8 
REMARK    3  A    between atoms: N_5  and  C_8 
ROOT
HETATM    1  C   UNL     1      62.926   8.332   3.255  1.00  0.00     0.038 A 
HETATM    2  C   UNL     1      62.310   9.420   2.585  1.00  0.00    -0.006 A 
HETATM    3  C   UNL     1      63.126   7.166   2.478  1.00  0.00     0.030 A 
HETATM    4  C   UNL     1      61.944   9.296   1.216  1.00  0.00     0.011 A 
HETATM    5  C   UNL     1      62.748   7.055   1.134  1.00  0.00     0.002 A 
HETATM    6  C   UNL     1      62.157   8.131   0.498  1.00  0.00     0.001 A 
ENDROOT
BRANCH   1   7
HETATM    7  N   UNL     1      63.314   8.332   4.587  1.00  0.00    -0.376 N 
HETATM    8  C   UNL     1      62.534   7.648   5.640  1.00  0.00     0.149 C 
HETATM    9  C   UNL     1      63.395   6.570   6.314  1.00  0.00     0.187 C 
HETATM   10  O   UNL     1      64.578   7.152   6.886  1.00  0.00    -0.388 OA
HETATM   11  C   UNL     1      65.375   7.750   5.855  1.00  0.00     0.187 C 
HETATM   12  C   UNL     1      64.614   8.829   5.065  1.00  0.00     0.149 C 
ENDBRANCH   1   7
BRANCH   2  13
HETATM   13  C   UNL     1      61.922  10.741   3.217  1.00  0.00     0.270 C 
BRANCH  13  14
HETATM   14  N   UNL     1      61.589  11.737   2.196  1.00  0.00    -0.075 N 
HETATM   15  H   UNL     1      61.159  11.274   1.395  1.00  0.00     0.274 HD
HETATM   16  H   UNL     1      62.439  12.215   1.896  1.00  0.00     0.274 HD
HETATM   17  H   UNL     1      60.936  12.418   2.586  1.00  0.00     0.274 HD
ENDBRANCH  13  14
ENDBRANCH   2  13
TORSDOF 3
ENDMDL
MODEL 2
REMARK VINA RESULT:      -5.2      1.652      2.131
REMARK  3 active torsions:
REMARK  status: ('A' for Active; 'I' for Inactive)
REMARK    1  A    between atoms: N_1  and  C_2 
REMARK    2  A    between atoms: C_3  and  C_8 
REMARK    3  A    between atoms: N_5  and  C_8 
ROOT
HETATM    1  C   UNL     1      62.970   9.090   4.251  1.00  0.00     0.038 A 
HETATM    2  C   UNL     1      62.537  10.432   4.400  1.00  0.00    -0.006 A 
HETATM    3  C   UNL     1      62.793   8.526   2.965  1.00  0.00     0.030 A 
HETATM    4  C   UNL     1      61.974  11.124   3.292  1.00  0.00     0.011 A 
HETATM    5  C   UNL     1      62.225   9.217   1.886  1.00  0.00     0.002 A 
HETATM    6  C   UNL     1      61.817  10.528   2.052  1.00  0.00     0.001 A 
ENDROOT
BRANCH   1   7
HETATM    7  N   UNL     1      63.520   8.312   5.259  1.00  0.00    -0.376 N 
HETATM    8  C   UNL     1      62.691   7.517   6.189  1.00  0.00     0.149 C 
HETATM    9  C   UNL     1      63.047   6.028   6.069  1.00  0.00     0.187 C 
HETATM   10  O   UNL     1      64.440   5.816   6.357  1.00  0.00    -0.388 OA
HETATM   11  C   UNL     1      65.248   6.526   5.408  1.00  0.00     0.187 C 
HETATM   12  C   UNL     1      64.960   8.038   5.394  1.00  0.00     0.149 C 
ENDBRANCH   1   7
BRANCH   2  13
HETATM   13  C   UNL     1      62.550  11.226   5.690  1.00  0.00     0.270 C 
BRANCH  13  14
HETATM   14  N   UNL     1      63.919  11.434   6.168  1.00  0.00    -0.075 N 
HETATM   15  H   UNL     1      63.922  11.469   7.187  1.00  0.00     0.274 HD
HETATM   16  H   UNL     1      64.280  12.313   5.797  1.00  0.00     0.274 HD
HETATM   17  H   UNL     1      64.509  10.664   5.852  1.00  0.00     0.274 HD
ENDBRANCH  13  14
ENDBRANCH   2  13
TORSDOF 3
ENDMDL
MODEL 3
REMARK VINA RESULT:      -5.0      1.649      2.532
REMARK  3 active torsions:
REMARK  status: ('A' for Active; 'I' for Inactive)
REMARK    1  A    between atoms: N_1  and  C_2 
REMARK    2  A    between atoms: C_3  and  C_8 
REMARK    3  A    between atoms: N_5  and  C_8 
ROOT
HETATM    1  C   UNL     1      62.827   8.635   3.435  1.00  0.00     0.038 A 
HETATM    2  C   UNL     1      62.611   9.847   4.140  1.00  0.00    -0.006 A 
HETATM    3  C   UNL     1      62.482   8.654   2.062  1.00  0.00     0.030 A 
HETATM    4  C   UNL     1      62.087  10.981   3.460  1.00  0.00     0.011 A 
HETATM    5  C   UNL     1      61.954   9.776   1.410  1.00  0.00     0.002 A 
HETATM    6  C   UNL     1      61.761  10.949   2.114  1.00  0.00     0.001 A 
ENDROOT
BRANCH   1   7
HETATM    7  N   UNL     1      63.319   7.464   3.992  1.00  0.00    -0.376 N 
HETATM    8  C   UNL     1      64.765   7.210   4.157  1.00  0.00     0.149 C 
HETATM    9  C   UNL     1      65.096   7.004   5.642  1.00  0.00     0.187 C 
HETATM   10  O   UNL     1      64.345   5.902   6.179  1.00  0.00    -0.388 OA
HETATM   11  C   UNL     1      62.941   6.179   6.090  1.00  0.00     0.187 C 
HETATM   12  C   UNL     1      62.478   6.449   4.647  1.00  0.00     0.149 C 
ENDBRANCH   1   7
BRANCH   2  13
HETATM   13  C   UNL     1      62.829  10.055   5.624  1.00  0.00     0.270 C 
BRANCH  13  14
HETATM   14  N   UNL     1      63.465  11.348   5.889  1.00  0.00    -0.075 N 
HETATM   15  H   UNL     1      62.750  12.040   6.114  1.00  0.00     0.274 HD
HETATM   16  H   UNL     1      63.982  11.649   5.062  1.00  0.00     0.274 HD
HETATM   17  H   UNL     1      64.108  11.255   6.676  1.00  0.00     0.274 HD
ENDBRANCH  13  14
ENDBRANCH   2  13
TORSDOF 3
ENDMDL
MODEL 4
REMARK VINA RESULT:      -4.8      1.517      2.635
REMARK  3 active torsions:
REMARK  status: ('A' for Active; 'I' for Inactive)
REMARK    1  A    between atoms: N_1  and  C_2 
REMARK    2  A    between atoms: C_3  and  C_8 
REMARK    3  A    between atoms: N_5  and  C_8 
ROOT
HETATM    1  C   UNL     1      62.883   9.158   4.093  1.00  0.00     0.038 A 
HETATM    2  C   UNL     1      62.707   8.589   2.806  1.00  0.00    -0.006 A 
HETATM    3  C   UNL     1      62.451  10.498   4.236  1.00  0.00     0.030 A 
HETATM    4  C   UNL     1      62.120   9.358   1.763  1.00  0.00     0.011 A 
HETATM    5  C   UNL     1      61.887  11.247   3.195  1.00  0.00     0.002 A 
HETATM    6  C   UNL     1      61.717  10.670   1.951  1.00  0.00     0.001 A 
ENDROOT
BRANCH   1   7
HETATM    7  N   UNL     1      63.453   8.512   5.181  1.00  0.00    -0.376 N 
HETATM    8  C   UNL     1      62.664   7.672   6.107  1.00  0.00     0.149 C 
HETATM    9  C   UNL     1      63.205   6.235   6.103  1.00  0.00     0.187 C 
HETATM   10  O   UNL     1      64.590   6.215   6.487  1.00  0.00    -0.388 OA
HETATM   11  C   UNL     1      65.369   6.966   5.546  1.00  0.00     0.187 C 
HETATM   12  C   UNL     1      64.902   8.427   5.419  1.00  0.00     0.149 C 
ENDBRANCH   1   7
BRANCH   2  13
HETATM   13  C   UNL     1      63.155   7.205   2.383  1.00  0.00     0.270 C 
BRANCH  13  14
HETATM   14  N   UNL     1      62.099   6.215   2.611  1.00  0.00    -0.075 N 
HETATM   15  H   UNL     1      61.281   6.676   3.011  1.00  0.00     0.274 HD
HETATM   16  H   UNL     1      62.435   5.499   3.254  1.00  0.00     0.274 HD
HETATM   17  H   UNL     1      61.844   5.781   1.723  1.00  0.00     0.274 HD
ENDBRANCH  13  14
ENDBRANCH   2  13
TORSDOF 3
ENDMDL
MODEL 5
REMARK VINA RESULT:      -4.6      2.780      4.539
REMARK  3 active torsions:
REMARK  status: ('A' for Active; 'I' for Inactive)
REMARK    1  A    between atoms: N_1  and  C_2 
REMARK    2  A    between atoms: C_3  and  C_8 
REMARK    3  A    between atoms: N_5  and  C_8 
ROOT
HETATM    1  C   UNL     1      62.793   8.411   3.660  1.00  0.00     0.038 A 
HETATM    2  C   UNL     1      63.364   9.265   4.640  1.00  0.00    -0.006 A 
HETATM    3  C   UNL     1      63.546   7.258   3.336  1.00  0.00     0.030 A 
HETATM    4  C   UNL     1      64.613   8.930   5.232  1.00  0.00     0.011 A 
HETATM    5  C   UNL     1      64.782   6.949   3.920  1.00  0.00     0.002 A 
HETATM    6  C   UNL     1      65.315   7.790   4.878  1.00  0.00     0.001 A 
ENDROOT
BRANCH   1   7
HETATM    7  N   UNL     1      61.591   8.639   3.006  1.00  0.00    -0.376 N 
HETATM    8  C   UNL     1      61.521   9.275   1.673  1.00  0.00     0.149 C 
HETATM    9  C   UNL     1      60.862   8.319   0.670  1.00  0.00     0.187 C 
HETATM   10  O   UNL     1      59.540   7.960   1.107  1.00  0.00    -0.388 OA
HETATM   11  C   UNL     1      59.611   7.275   2.364  1.00  0.00     0.187 C 
HETATM   12  C   UNL     1      60.295   8.111   3.461  1.00  0.00     0.149 C 
ENDBRANCH   1   7
BRANCH   2  13
HETATM   13  C   UNL     1      62.790  10.589   5.098  1.00  0.00     0.270 C 
BRANCH  13  14
HETATM   14  N   UNL     1      63.631  11.198   6.133  1.00  0.00    -0.075 N 
HETATM   15  H   UNL     1      63.038  11.637   6.838  1.00  0.00     0.274 HD
HETATM   16  H   UNL     1      64.235  11.903   5.710  1.00  0.00     0.274 HD
HETATM   17  H   UNL     1      64.204  10.478   6.572  1.00  0.00     0.274 HD
ENDBRANCH  13  14
ENDBRANCH   2  13
TORSDOF 3
ENDMDL
MODEL 6
REMARK VINA RESULT:      -4.6      1.728      3.193
REMARK  3 active torsions:
REMARK  status: ('A' for Active; 'I' for Inactive)
REMARK    1  A    between atoms: N_1  and  C_2 
REMARK    2  A    between atoms: C_3  and  C_8 
REMARK    3  A    between atoms: N_5  and  C_8 
ROOT
HETATM    1  C   UNL     1      63.728   8.711   4.607  1.00  0.00     0.038 A 
HETATM    2  C   UNL     1      62.976   8.569   3.411  1.00  0.00    -0.006 A 
HETATM    3  C   UNL     1      63.512   9.909   5.328  1.00  0.00     0.030 A 
HETATM    4  C   UNL     1      62.072   9.593   3.015  1.00  0.00     0.011 A 
HETATM    5  C   UNL     1      62.628  10.915   4.917  1.00  0.00     0.002 A 
HETATM    6  C   UNL     1      61.899  10.751   3.754  1.00  0.00     0.001 A 
ENDROOT
BRANCH   1   7
HETATM    7  N   UNL     1      64.646   7.789   5.086  1.00  0.00    -0.376 N 
HETATM    8  C   UNL     1      66.106   7.993   4.980  1.00  0.00     0.149 C 
HETATM    9  C   UNL     1      66.737   8.014   6.379  1.00  0.00     0.187 C 
HETATM   10  O   UNL     1      66.468   6.784   7.073  1.00  0.00    -0.388 OA
HETATM   11  C   UNL     1      65.054   6.620   7.246  1.00  0.00     0.187 C 
HETATM   12  C   UNL     1      64.287   6.624   5.911  1.00  0.00     0.149 C 
ENDBRANCH   1   7
BRANCH   2  13
HETATM   13  C   UNL     1      63.085   7.419   2.432  1.00  0.00     0.270 C 
BRANCH  13  14
HETATM   14  N   UNL     1      62.464   7.757   1.149  1.00  0.00    -0.075 N 
HETATM   15  H   UNL     1      63.168   8.149   0.523  1.00  0.00     0.274 HD
HETATM   16  H   UNL     1      61.723   8.442   1.299  1.00  0.00     0.274 HD
HETATM   17  H   UNL     1      62.068   6.915   0.730  1.00  0.00     0.274 HD
ENDBRANCH  13  14
ENDBRANCH   2  13
TORSDOF 3
ENDMDL
MODEL 7
REMARK VINA RESULT:      -4.3      1.706      2.523
REMARK  3 active torsions:
REMARK  status: ('A' for Active; 'I' for Inactive)
REMARK    1  A    between atoms: N_1  and  C_2 
REMARK    2  A    between atoms: C_3  and  C_8 
REMARK    3  A    between atoms: N_5  and  C_8 
ROOT
HETATM    1  C   UNL     1      63.882   7.845   4.017  1.00  0.00     0.038 A 
HETATM    2  C   UNL     1      63.346   9.106   4.385  1.00  0.00    -0.006 A 
HETATM    3  C   UNL     1      63.397   7.302   2.803  1.00  0.00     0.030 A 
HETATM    4  C   UNL     1      62.390   9.744   3.546  1.00  0.00     0.011 A 
HETATM    5  C   UNL     1      62.445   7.937   1.994  1.00  0.00     0.002 A 
HETATM    6  C   UNL     1      61.943   9.170   2.368  1.00  0.00     0.001 A 
ENDROOT
BRANCH   1   7
HETATM    7  N   UNL     1      64.806   7.124   4.758  1.00  0.00    -0.376 N 
HETATM    8  C   UNL     1      66.260   7.376   4.675  1.00  0.00     0.149 C 
HETATM    9  C   UNL     1      66.803   7.780   6.052  1.00  0.00     0.187 C 
HETATM   10  O   UNL     1      66.543   6.750   7.020  1.00  0.00    -0.388 OA
HETATM   11  C   UNL     1      65.129   6.556   7.160  1.00  0.00     0.187 C 
HETATM   12  C   UNL     1      64.445   6.185   5.831  1.00  0.00     0.149 C 
ENDBRANCH   1   7
BRANCH   2  13
HETATM   13  C   UNL     1      63.647   9.853   5.667  1.00  0.00     0.270 C 
BRANCH  13  14
HETATM   14  N   UNL     1      63.067  11.199   5.644  1.00  0.00    -0.075 N 
HETATM   15  H   UNL     1      62.311  11.255   6.326  1.00  0.00     0.274 HD
HETATM   16  H   UNL     1      62.701  11.396   4.712  1.00  0.00     0.274 HD
HETATM   17  H   UNL     1      63.787  11.883   5.877  1.00  0.00     0.274 HD
ENDBRANCH  13  14
ENDBRANCH   2  13
TORSDOF 3
ENDMDL
MODEL 8
REMARK VINA RESULT:      -4.2      3.603      6.501
REMARK  3 active torsions:
REMARK  status: ('A' for Active; 'I' for Inactive)
REMARK    1  A    between atoms: N_1  and  C_2 
REMARK    2  A    between atoms: C_3  and  C_8 
REMARK    3  A    between atoms: N_5  and  C_8 
ROOT
HETATM    1  C   UNL     1      66.141   6.283   6.814  1.00  0.00     0.038 A 
HETATM    2  C   UNL     1      67.060   5.236   6.546  1.00  0.00    -0.006 A 
HETATM    3  C   UNL     1      66.247   6.881   8.092  1.00  0.00     0.030 A 
HETATM    4  C   UNL     1      68.013   4.857   7.532  1.00  0.00     0.011 A 
HETATM    5  C   UNL     1      67.183   6.487   9.058  1.00  0.00     0.002 A 
HETATM    6  C   UNL     1      68.075   5.471   8.772  1.00  0.00     0.001 A 
ENDROOT
BRANCH   1   7
HETATM    7  N   UNL     1      65.162   6.730   5.938  1.00  0.00    -0.376 N 
HETATM    8  C   UNL     1      63.772   6.229   5.980  1.00  0.00     0.149 C 
HETATM    9  C   UNL     1      62.804   7.389   6.247  1.00  0.00     0.187 C 
HETATM   10  O   UNL     1      62.927   8.396   5.228  1.00  0.00    -0.388 OA
HETATM   11  C   UNL     1      64.255   8.938   5.236  1.00  0.00     0.187 C 
HETATM   12  C   UNL     1      65.337   7.866   5.020  1.00  0.00     0.149 C 
ENDBRANCH   1   7
BRANCH   2  13
HETATM   13  C   UNL     1      67.098   4.395   5.287  1.00  0.00     0.270 C 
BRANCH  13  14
HETATM   14  N   UNL     1      67.549   5.184   4.138  1.00  0.00    -0.075 N 
HETATM   15  H   UNL     1      67.581   4.590   3.309  1.00  0.00     0.274 HD
HETATM   16  H   UNL     1      68.479   5.558   4.325  1.00  0.00     0.274 HD
HETATM   17  H   UNL     1      66.898   5.955   3.979  1.00  0.00     0.274 HD
ENDBRANCH  13  14
ENDBRANCH   2  13
TORSDOF 3
ENDMDL
MODEL 9
REMARK VINA RESULT:      -4.0      2.300      3.444
REMARK  3 active torsions:
REMARK  status: ('A' for Active; 'I' for Inactive)
REMARK    1  A    between atoms: N_1  and  C_2 
REMARK    2  A    between atoms: C_3  and  C_8 
REMARK    3  A    between atoms: N_5  and  C_8 
ROOT
HETATM    1  C   UNL     1      61.713   8.335   3.260  1.00  0.00     0.038 A 
HETATM    2  C   UNL     1      61.819   8.400   1.846  1.00  0.00    -0.006 A 
HETATM    3  C   UNL     1      61.744   9.578   3.935  1.00  0.00     0.030 A 
HETATM    4  C   UNL     1      61.937   9.661   1.200  1.00  0.00     0.011 A 
HETATM    5  C   UNL     1      61.875  10.812   3.285  1.00  0.00     0.002 A 
HETATM    6  C   UNL     1      61.967  10.852   1.906  1.00  0.00     0.001 A 
ENDROOT
BRANCH   1   7
HETATM    7  N   UNL     1      61.607   7.165   3.999  1.00  0.00    -0.376 N 
HETATM    8  C   UNL     1      62.687   6.688   4.888  1.00  0.00     0.149 C 
HETATM    9  C   UNL     1      62.175   6.594   6.332  1.00  0.00     0.187 C 
HETATM   10  O   UNL     1      61.049   5.703   6.413  1.00  0.00    -0.388 OA
HETATM   11  C   UNL     1      59.972   6.205   5.611  1.00  0.00     0.187 C 
HETATM   12  C   UNL     1      60.364   6.389   4.134  1.00  0.00     0.149 C 
ENDBRANCH   1   7
BRANCH   2  13
HETATM   13  C   UNL     1      61.886   7.211   0.910  1.00  0.00     0.270 C 
BRANCH  13  14
HETATM   14  N   UNL     1      60.613   7.016   0.211  1.00  0.00    -0.075 N 
HETATM   15  H   UNL     1      59.860   7.439   0.753  1.00  0.00     0.274 HD
HETATM   16  H   UNL     1      60.434   6.018   0.101  1.00  0.00     0.274 HD
HETATM   17  H   UNL     1      60.660   7.457  -0.708  1.00  0.00     0.274 HD
ENDBRANCH  13  14
ENDBRANCH   2  13
TORSDOF 3
ENDMDL
