MODEL 1
REMARK VINA RESULT:      -5.6      0.000      0.000
REMARK  3 active torsions:
REMARK  status: ('A' for Active; 'I' for Inactive)
REMARK    1  A    between atoms: N_1  and  C_2 
REMARK    2  A    between atoms: C_3  and  C_7 
REMARK    3  A    between atoms: C_7  and  O_8 
ROOT
HETATM    1  C   UNL     1      63.132   9.121   4.374  1.00  0.00     0.038 A 
HETATM    2  C   UNL     1      62.725  10.459   4.624  1.00  0.00    -0.008 A 
HETATM    3  C   UNL     1      62.823   8.607   3.091  1.00  0.00     0.030 A 
HETATM    4  C   UNL     1      62.060  11.194   3.608  1.00  0.00     0.011 A 
HETATM    5  C   UNL     1      62.151   9.340   2.108  1.00  0.00     0.002 A 
HETATM    6  C   UNL     1      61.770  10.642   2.368  1.00  0.00     0.001 A 
ENDROOT
BRANCH   1   7
HETATM    7  N   UNL     1      63.786   8.299   5.277  1.00  0.00    -0.376 N 
HETATM    8  C   UNL     1      63.070   7.381   6.191  1.00  0.00     0.149 C 
HETATM    9  C   UNL     1      63.558   5.940   5.973  1.00  0.00     0.187 C 
HETATM   10  O   UNL     1      64.972   5.845   6.206  1.00  0.00    -0.388 OA
HETATM   11  C   UNL     1      65.678   6.692   5.288  1.00  0.00     0.187 C 
HETATM   12  C   UNL     1      65.249   8.173   5.384  1.00  0.00     0.149 C 
ENDBRANCH   1   7
BRANCH   2  13
HETATM   13  C   UNL     1      62.897  11.207   5.929  1.00  0.00     0.205 C 
BRANCH  13  14
HETATM   14  O   UNL     1      64.251  11.499   6.238  1.00  0.00    -0.396 OA
HETATM   15  H   UNL     1      64.769  11.534   5.418  1.00  0.00     0.209 HD
ENDBRANCH  13  14
ENDBRANCH   2  13
TORSDOF 3
ENDMDL
MODEL 2
REMARK VINA RESULT:      -5.3      1.670      2.163
REMARK  3 active torsions:
REMARK  status: ('A' for Active; 'I' for Inactive)
REMARK    1  A    between atoms: N_1  and  C_2 
REMARK    2  A    between atoms: C_3  and  C_7 
REMARK    3  A    between atoms: C_7  and  O_8 
ROOT
HETATM    1  C   UNL     1      62.905   8.400   3.290  1.00  0.00     0.038 A 
HETATM    2  C   UNL     1      62.284   9.523   2.679  1.00  0.00    -0.008 A 
HETATM    3  C   UNL     1      63.083   7.263   2.464  1.00  0.00     0.030 A 
HETATM    4  C   UNL     1      61.893   9.457   1.316  1.00  0.00     0.011 A 
HETATM    5  C   UNL     1      62.675   7.210   1.128  1.00  0.00     0.002 A 
HETATM    6  C   UNL     1      62.080   8.313   0.550  1.00  0.00     0.001 A 
ENDROOT
BRANCH   1   7
HETATM    7  N   UNL     1      63.332   8.337   4.606  1.00  0.00    -0.376 N 
HETATM    8  C   UNL     1      62.550   7.671   5.671  1.00  0.00     0.149 C 
HETATM    9  C   UNL     1      63.398   6.576   6.336  1.00  0.00     0.187 C 
HETATM   10  O   UNL     1      64.596   7.135   6.897  1.00  0.00    -0.388 OA
HETATM   11  C   UNL     1      65.387   7.736   5.861  1.00  0.00     0.187 C 
HETATM   12  C   UNL     1      64.630   8.839   5.089  1.00  0.00     0.149 C 
ENDBRANCH   1   7
BRANCH   2  13
HETATM   13  C   UNL     1      61.943  10.829   3.367  1.00  0.00     0.205 C 
BRANCH  13  14
HETATM   14  O   UNL     1      61.943  11.945   2.490  1.00  0.00    -0.396 OA
HETATM   15  H   UNL     1      62.026  11.636   1.574  1.00  0.00     0.209 HD
ENDBRANCH  13  14
ENDBRANCH   2  13
TORSDOF 3
ENDMDL
MODEL 3
REMARK VINA RESULT:      -4.8      2.453      4.378
REMARK  3 active torsions:
REMARK  status: ('A' for Active; 'I' for Inactive)
REMARK    1  A    between atoms: N_1  and  C_2 
REMARK    2  A    between atoms: C_3  and  C_7 
REMARK    3  A    between atoms: C_7  and  O_8 
ROOT
HETATM    1  C   UNL     1      63.277   8.406   3.838  1.00  0.00     0.038 A 
HETATM    2  C   UNL     1      63.853   9.181   4.880  1.00  0.00    -0.008 A 
HETATM    3  C   UNL     1      63.989   7.240   3.465  1.00  0.00     0.030 A 
HETATM    4  C   UNL     1      65.067   8.761   5.482  1.00  0.00     0.011 A 
HETATM    5  C   UNL     1      65.194   6.850   4.058  1.00  0.00     0.002 A 
HETATM    6  C   UNL     1      65.734   7.613   5.074  1.00  0.00     0.001 A 
ENDROOT
BRANCH   1   7
HETATM    7  N   UNL     1      62.100   8.705   3.171  1.00  0.00    -0.376 N 
HETATM    8  C   UNL     1      62.064   9.528   1.942  1.00  0.00     0.149 C 
HETATM    9  C   UNL     1      61.397   8.739   0.804  1.00  0.00     0.187 C 
HETATM   10  O   UNL     1      60.061   8.357   1.168  1.00  0.00    -0.388 OA
HETATM   11  C   UNL     1      60.092   7.514   2.329  1.00  0.00     0.187 C 
HETATM   12  C   UNL     1      60.773   8.186   3.542  1.00  0.00     0.149 C 
ENDBRANCH   1   7
BRANCH   2  13
HETATM   13  C   UNL     1      63.307  10.489   5.415  1.00  0.00     0.205 C 
BRANCH  13  14
HETATM   14  O   UNL     1      64.259  11.236   6.156  1.00  0.00    -0.396 OA
HETATM   15  H   UNL     1      65.007  10.665   6.390  1.00  0.00     0.209 HD
ENDBRANCH  13  14
ENDBRANCH   2  13
TORSDOF 3
ENDMDL
MODEL 4
REMARK VINA RESULT:      -4.7      1.559      2.655
REMARK  3 active torsions:
REMARK  status: ('A' for Active; 'I' for Inactive)
REMARK    1  A    between atoms: N_1  and  C_2 
REMARK    2  A    between atoms: C_3  and  C_7 
REMARK    3  A    between atoms: C_7  and  O_8 
ROOT
HETATM    1  C   UNL     1      62.892   9.150   4.087  1.00  0.00     0.038 A 
HETATM    2  C   UNL     1      62.703   8.616   2.784  1.00  0.00    -0.008 A 
HETATM    3  C   UNL     1      62.465  10.487   4.277  1.00  0.00     0.030 A 
HETATM    4  C   UNL     1      62.110   9.416   1.773  1.00  0.00     0.011 A 
HETATM    5  C   UNL     1      61.898  11.267   3.264  1.00  0.00     0.002 A 
HETATM    6  C   UNL     1      61.717  10.727   2.007  1.00  0.00     0.001 A 
ENDROOT
BRANCH   1   7
HETATM    7  N   UNL     1      63.457   8.476   5.157  1.00  0.00    -0.376 N 
HETATM    8  C   UNL     1      62.658   7.676   6.112  1.00  0.00     0.149 C 
HETATM    9  C   UNL     1      63.179   6.231   6.148  1.00  0.00     0.187 C 
HETATM   10  O   UNL     1      64.563   6.201   6.533  1.00  0.00    -0.388 OA
HETATM   11  C   UNL     1      65.352   6.930   5.582  1.00  0.00     0.187 C 
HETATM   12  C   UNL     1      64.902   8.400   5.428  1.00  0.00     0.149 C 
ENDBRANCH   1   7
BRANCH   2  13
HETATM   13  C   UNL     1      63.122   7.234   2.325  1.00  0.00     0.205 C 
BRANCH  13  14
HETATM   14  O   UNL     1      62.212   6.214   2.703  1.00  0.00    -0.396 OA
HETATM   15  H   UNL     1      61.846   6.416   3.579  1.00  0.00     0.209 HD
ENDBRANCH  13  14
ENDBRANCH   2  13
TORSDOF 3
ENDMDL
MODEL 5
REMARK VINA RESULT:      -4.6      2.169      3.366
REMARK  3 active torsions:
REMARK  status: ('A' for Active; 'I' for Inactive)
REMARK    1  A    between atoms: N_1  and  C_2 
REMARK    2  A    between atoms: C_3  and  C_7 
REMARK    3  A    between atoms: C_7  and  O_8 
ROOT
HETATM    1  C   UNL     1      62.411   8.943   3.469  1.00  0.00     0.038 A 
HETATM    2  C   UNL     1      62.213   9.024   2.064  1.00  0.00    -0.008 A 
HETATM    3  C   UNL     1      62.265  10.155   4.187  1.00  0.00     0.030 A 
HETATM    4  C   UNL     1      61.881  10.269   1.470  1.00  0.00     0.011 A 
HETATM    5  C   UNL     1      61.955  11.377   3.583  1.00  0.00     0.002 A 
HETATM    6  C   UNL     1      61.759  11.433   2.218  1.00  0.00     0.001 A 
ENDROOT
BRANCH   1   7
HETATM    7  N   UNL     1      62.738   7.793   4.169  1.00  0.00    -0.376 N 
HETATM    8  C   UNL     1      64.135   7.405   4.465  1.00  0.00     0.149 C 
HETATM    9  C   UNL     1      64.322   7.244   5.982  1.00  0.00     0.187 C 
HETATM   10  O   UNL     1      63.425   6.249   6.500  1.00  0.00    -0.388 OA
HETATM   11  C   UNL     1      62.065   6.644   6.263  1.00  0.00     0.187 C 
HETATM   12  C   UNL     1      61.757   6.872   4.767  1.00  0.00     0.149 C 
ENDBRANCH   1   7
BRANCH   2  13
HETATM   13  C   UNL     1      62.363   7.881   1.082  1.00  0.00     0.205 C 
BRANCH  13  14
HETATM   14  O   UNL     1      61.157   7.166   0.859  1.00  0.00    -0.396 OA
HETATM   15  H   UNL     1      60.429   7.794   0.729  1.00  0.00     0.209 HD
ENDBRANCH  13  14
ENDBRANCH   2  13
TORSDOF 3
ENDMDL
MODEL 6
REMARK VINA RESULT:      -4.3      2.147      2.940
REMARK  3 active torsions:
REMARK  status: ('A' for Active; 'I' for Inactive)
REMARK    1  A    between atoms: N_1  and  C_2 
REMARK    2  A    between atoms: C_3  and  C_7 
REMARK    3  A    between atoms: C_7  and  O_8 
ROOT
HETATM    1  C   UNL     1      62.297   8.712   2.851  1.00  0.00     0.038 A 
HETATM    2  C   UNL     1      62.452   9.354   4.109  1.00  0.00    -0.008 A 
HETATM    3  C   UNL     1      61.957   9.553   1.763  1.00  0.00     0.030 A 
HETATM    4  C   UNL     1      62.274  10.758   4.211  1.00  0.00     0.011 A 
HETATM    5  C   UNL     1      61.768  10.933   1.885  1.00  0.00     0.002 A 
HETATM    6  C   UNL     1      61.930  11.539   3.115  1.00  0.00     0.001 A 
ENDROOT
BRANCH   1   7
HETATM    7  N   UNL     1      62.443   7.354   2.619  1.00  0.00    -0.376 N 
HETATM    8  C   UNL     1      63.764   6.700   2.498  1.00  0.00     0.149 C 
HETATM    9  C   UNL     1      63.887   5.573   3.536  1.00  0.00     0.187 C 
HETATM   10  O   UNL     1      62.848   4.599   3.350  1.00  0.00    -0.388 OA
HETATM   11  C   UNL     1      61.563   5.216   3.519  1.00  0.00     0.187 C 
HETATM   12  C   UNL     1      61.329   6.394   2.549  1.00  0.00     0.149 C 
ENDBRANCH   1   7
BRANCH   2  13
HETATM   13  C   UNL     1      62.762   8.665   5.422  1.00  0.00     0.205 C 
BRANCH  13  14
HETATM   14  O   UNL     1      64.130   8.745   5.792  1.00  0.00    -0.396 OA
HETATM   15  H   UNL     1      64.371   9.673   5.936  1.00  0.00     0.209 HD
ENDBRANCH  13  14
ENDBRANCH   2  13
TORSDOF 3
ENDMDL
MODEL 7
REMARK VINA RESULT:      -4.2      2.789      3.550
REMARK  3 active torsions:
REMARK  status: ('A' for Active; 'I' for Inactive)
REMARK    1  A    between atoms: N_1  and  C_2 
REMARK    2  A    between atoms: C_3  and  C_7 
REMARK    3  A    between atoms: C_7  and  O_8 
ROOT
HETATM    1  C   UNL     1      62.610   8.639   3.770  1.00  0.00     0.038 A 
HETATM    2  C   UNL     1      61.979   9.555   2.886  1.00  0.00    -0.008 A 
HETATM    3  C   UNL     1      63.066   9.177   4.999  1.00  0.00     0.030 A 
HETATM    4  C   UNL     1      61.833  10.915   3.266  1.00  0.00     0.011 A 
HETATM    5  C   UNL     1      62.930  10.524   5.349  1.00  0.00     0.002 A 
HETATM    6  C   UNL     1      62.308  11.396   4.479  1.00  0.00     0.001 A 
ENDROOT
BRANCH   1   7
HETATM    7  N   UNL     1      62.813   7.292   3.520  1.00  0.00    -0.376 N 
HETATM    8  C   UNL     1      61.770   6.268   3.752  1.00  0.00     0.149 C 
HETATM    9  C   UNL     1      61.495   5.498   2.451  1.00  0.00     0.187 C 
HETATM   10  O   UNL     1      62.694   4.866   1.974  1.00  0.00    -0.388 OA
HETATM   11  C   UNL     1      63.693   5.858   1.695  1.00  0.00     0.187 C 
HETATM   12  C   UNL     1      64.036   6.728   2.925  1.00  0.00     0.149 C 
ENDBRANCH   1   7
BRANCH   2  13
HETATM   13  C   UNL     1      61.456   9.231   1.502  1.00  0.00     0.205 C 
BRANCH  13  14
HETATM   14  O   UNL     1      62.481   9.082   0.532  1.00  0.00    -0.396 OA
HETATM   15  H   UNL     1      62.601   8.140   0.331  1.00  0.00     0.209 HD
ENDBRANCH  13  14
ENDBRANCH   2  13
TORSDOF 3
ENDMDL
MODEL 8
REMARK VINA RESULT:      -4.0      2.597      4.852
REMARK  3 active torsions:
REMARK  status: ('A' for Active; 'I' for Inactive)
REMARK    1  A    between atoms: N_1  and  C_2 
REMARK    2  A    between atoms: C_3  and  C_7 
REMARK    3  A    between atoms: C_7  and  O_8 
ROOT
HETATM    1  C   UNL     1      61.413   7.625   4.224  1.00  0.00     0.038 A 
HETATM    2  C   UNL     1      61.992   6.847   5.263  1.00  0.00    -0.008 A 
HETATM    3  C   UNL     1      60.060   7.340   3.916  1.00  0.00     0.030 A 
HETATM    4  C   UNL     1      61.212   5.862   5.923  1.00  0.00     0.011 A 
HETATM    5  C   UNL     1      59.312   6.353   4.566  1.00  0.00     0.002 A 
HETATM    6  C   UNL     1      59.891   5.613   5.577  1.00  0.00     0.001 A 
ENDROOT
BRANCH   1   7
HETATM    7  N   UNL     1      62.063   8.614   3.504  1.00  0.00    -0.376 N 
HETATM    8  C   UNL     1      62.531   8.416   2.114  1.00  0.00     0.149 C 
HETATM    9  C   UNL     1      61.907   9.480   1.197  1.00  0.00     0.187 C 
HETATM   10  O   UNL     1      62.260  10.799   1.641  1.00  0.00    -0.388 OA
HETATM   11  C   UNL     1      61.763  11.019   2.969  1.00  0.00     0.187 C 
HETATM   12  C   UNL     1      62.294   9.985   3.987  1.00  0.00     0.149 C 
ENDBRANCH   1   7
BRANCH   2  13
HETATM   13  C   UNL     1      63.428   6.931   5.735  1.00  0.00     0.205 C 
BRANCH  13  14
HETATM   14  O   UNL     1      63.567   7.530   7.014  1.00  0.00    -0.396 OA
HETATM   15  H   UNL     1      63.047   7.031   7.663  1.00  0.00     0.209 HD
ENDBRANCH  13  14
ENDBRANCH   2  13
TORSDOF 3
ENDMDL
MODEL 9
REMARK VINA RESULT:      -4.0      2.935      4.068
REMARK  3 active torsions:
REMARK  status: ('A' for Active; 'I' for Inactive)
REMARK    1  A    between atoms: N_1  and  C_2 
REMARK    2  A    between atoms: C_3  and  C_7 
REMARK    3  A    between atoms: C_7  and  O_8 
ROOT
HETATM    1  C   UNL     1      62.005   8.608   2.268  1.00  0.00     0.038 A 
HETATM    2  C   UNL     1      62.122   8.846   3.664  1.00  0.00    -0.008 A 
HETATM    3  C   UNL     1      61.875   9.758   1.451  1.00  0.00     0.030 A 
HETATM    4  C   UNL     1      62.112  10.178   4.155  1.00  0.00     0.011 A 
HETATM    5  C   UNL     1      61.850  11.062   1.954  1.00  0.00     0.002 A 
HETATM    6  C   UNL     1      61.972  11.273   3.313  1.00  0.00     0.001 A 
ENDROOT
BRANCH   1   7
HETATM    7  N   UNL     1      62.000   7.361   1.664  1.00  0.00    -0.376 N 
HETATM    8  C   UNL     1      63.235   6.584   1.421  1.00  0.00     0.149 C 
HETATM    9  C   UNL     1      63.128   5.208   2.097  1.00  0.00     0.187 C 
HETATM   10  O   UNL     1      61.996   4.483   1.593  1.00  0.00    -0.388 OA
HETATM   11  C   UNL     1      60.788   5.206   1.872  1.00  0.00     0.187 C 
HETATM   12  C   UNL     1      60.785   6.628   1.270  1.00  0.00     0.149 C 
ENDBRANCH   1   7
BRANCH   2  13
HETATM   13  C   UNL     1      62.220   7.782   4.738  1.00  0.00     0.205 C 
BRANCH  13  14
HETATM   14  O   UNL     1      61.031   7.022   4.890  1.00  0.00    -0.396 OA
HETATM   15  H   UNL     1      60.409   7.506   5.456  1.00  0.00     0.209 HD
ENDBRANCH  13  14
ENDBRANCH   2  13
TORSDOF 3
ENDMDL
