MODEL 1
REMARK VINA RESULT:      -5.4      0.000      0.000
REMARK  1 active torsions:
REMARK  status: ('A' for Active; 'I' for Inactive)
REMARK    1  A    between atoms: N_1  and  C_4 
ROOT
HETATM    1  C   UNL     1      62.728   9.132   3.816  1.00  0.00     0.076 A 
HETATM    2  N   UNL     1      63.206  11.413   6.536  1.00  0.00    -0.191 NA
HETATM    3  C   UNL     1      62.904  10.981   5.503  1.00  0.00     0.102 C 
HETATM    4  C   UNL     1      62.516  10.462   4.220  1.00  0.00     0.073 A 
HETATM    5  C   UNL     1      62.440   8.758   2.489  1.00  0.00     0.033 A 
HETATM    6  C   UNL     1      61.988  11.383   3.299  1.00  0.00     0.025 A 
HETATM    7  C   UNL     1      61.898   9.680   1.592  1.00  0.00     0.002 A 
HETATM    8  C   UNL     1      61.669  10.992   1.997  1.00  0.00     0.002 A 
ENDROOT
BRANCH   1   9
HETATM    9  N   UNL     1      63.234   8.128   4.689  1.00  0.00    -0.267 N 
HETATM   10  N   UNL     1      64.571   7.915   4.790  1.00  0.00    -0.305 N 
HETATM   11  C   UNL     1      64.696   7.004   5.757  1.00  0.00     0.109 A 
ATOM     12  HN  UNL     1      65.315   8.353   4.247  1.00  0.00     0.186 HD
HETATM   13  C   UNL     1      63.457   6.533   6.209  1.00  0.00     0.038 A 
HETATM   14  C   UNL     1      62.534   7.246   5.484  1.00  0.00     0.118 A 
ENDBRANCH   1   9
TORSDOF 1
ENDMDL
MODEL 2
REMARK VINA RESULT:      -5.2      1.492      3.025
REMARK  1 active torsions:
REMARK  status: ('A' for Active; 'I' for Inactive)
REMARK    1  A    between atoms: N_1  and  C_4 
ROOT
HETATM    1  C   UNL     1      63.455   9.070   4.705  1.00  0.00     0.076 A 
HETATM    2  N   UNL     1      63.402   6.400   2.319  1.00  0.00    -0.191 NA
HETATM    3  C   UNL     1      63.227   7.431   2.820  1.00  0.00     0.102 C 
HETATM    4  C   UNL     1      63.006   8.717   3.421  1.00  0.00     0.073 A 
HETATM    5  C   UNL     1      63.065  10.305   5.260  1.00  0.00     0.033 A 
HETATM    6  C   UNL     1      62.203   9.621   2.702  1.00  0.00     0.025 A 
HETATM    7  C   UNL     1      62.285  11.199   4.525  1.00  0.00     0.002 A 
HETATM    8  C   UNL     1      61.856  10.859   3.245  1.00  0.00     0.002 A 
ENDROOT
BRANCH   1   9
HETATM    9  N   UNL     1      64.290   8.228   5.492  1.00  0.00    -0.267 N 
HETATM   10  N   UNL     1      63.750   7.396   6.420  1.00  0.00    -0.305 N 
HETATM   11  C   UNL     1      64.783   6.689   6.882  1.00  0.00     0.109 A 
ATOM     12  HN  UNL     1      62.771   7.328   6.702  1.00  0.00     0.186 HD
HETATM   13  C   UNL     1      66.005   7.125   6.356  1.00  0.00     0.038 A 
HETATM   14  C   UNL     1      65.665   8.136   5.491  1.00  0.00     0.118 A 
ENDBRANCH   1   9
TORSDOF 1
ENDMDL
MODEL 3
REMARK VINA RESULT:      -5.1      1.314      1.946
REMARK  1 active torsions:
REMARK  status: ('A' for Active; 'I' for Inactive)
REMARK    1  A    between atoms: N_1  and  C_4 
ROOT
HETATM    1  C   UNL     1      63.724   8.252   4.337  1.00  0.00     0.076 A 
HETATM    2  N   UNL     1      63.231  11.229   6.266  1.00  0.00    -0.191 NA
HETATM    3  C   UNL     1      63.131  10.430   5.432  1.00  0.00     0.102 C 
HETATM    4  C   UNL     1      62.986   9.447   4.393  1.00  0.00     0.073 A 
HETATM    5  C   UNL     1      63.612   7.422   3.203  1.00  0.00     0.033 A 
HETATM    6  C   UNL     1      62.125   9.772   3.330  1.00  0.00     0.025 A 
HETATM    7  C   UNL     1      62.736   7.750   2.167  1.00  0.00     0.002 A 
HETATM    8  C   UNL     1      61.990   8.923   2.231  1.00  0.00     0.002 A 
ENDROOT
BRANCH   1   9
HETATM    9  N   UNL     1      64.600   7.832   5.377  1.00  0.00    -0.267 N 
HETATM   10  N   UNL     1      64.114   7.170   6.459  1.00  0.00    -0.305 N 
HETATM   11  C   UNL     1      65.197   6.836   7.164  1.00  0.00     0.109 A 
ATOM     12  HN  UNL     1      63.139   6.972   6.683  1.00  0.00     0.186 HD
HETATM   13  C   UNL     1      66.372   7.369   6.621  1.00  0.00     0.038 A 
HETATM   14  C   UNL     1      65.958   8.033   5.493  1.00  0.00     0.118 A 
ENDBRANCH   1   9
TORSDOF 1
ENDMDL
MODEL 4
REMARK VINA RESULT:      -5.0      1.091      2.733
REMARK  1 active torsions:
REMARK  status: ('A' for Active; 'I' for Inactive)
REMARK    1  A    between atoms: N_1  and  C_4 
ROOT
HETATM    1  C   UNL     1      62.683   9.300   3.825  1.00  0.00     0.076 A 
HETATM    2  N   UNL     1      62.803   6.640   1.429  1.00  0.00    -0.191 NA
HETATM    3  C   UNL     1      62.661   7.690   1.901  1.00  0.00     0.102 C 
HETATM    4  C   UNL     1      62.488   9.000   2.465  1.00  0.00     0.073 A 
HETATM    5  C   UNL     1      62.349  10.582   4.304  1.00  0.00     0.033 A 
HETATM    6  C   UNL     1      61.997   9.999   1.606  1.00  0.00     0.025 A 
HETATM    7  C   UNL     1      61.882  11.568   3.434  1.00  0.00     0.002 A 
HETATM    8  C   UNL     1      61.708  11.278   2.084  1.00  0.00     0.002 A 
ENDROOT
BRANCH   1   9
HETATM    9  N   UNL     1      63.199   8.359   4.760  1.00  0.00    -0.267 N 
HETATM   10  N   UNL     1      64.540   8.211   4.917  1.00  0.00    -0.305 N 
HETATM   11  C   UNL     1      64.668   7.350   5.928  1.00  0.00     0.109 A 
ATOM     12  HN  UNL     1      65.284   8.659   4.380  1.00  0.00     0.186 HD
HETATM   13  C   UNL     1      63.435   6.844   6.356  1.00  0.00     0.038 A 
HETATM   14  C   UNL     1      62.509   7.482   5.568  1.00  0.00     0.118 A 
ENDBRANCH   1   9
TORSDOF 1
ENDMDL
MODEL 5
REMARK VINA RESULT:      -4.7      1.988      2.750
REMARK  1 active torsions:
REMARK  status: ('A' for Active; 'I' for Inactive)
REMARK    1  A    between atoms: N_1  and  C_4 
ROOT
HETATM    1  C   UNL     1      62.341   8.738   2.816  1.00  0.00     0.076 A 
HETATM    2  N   UNL     1      63.129   8.086   6.249  1.00  0.00    -0.191 NA
HETATM    3  C   UNL     1      62.815   8.637   5.278  1.00  0.00     0.102 C 
HETATM    4  C   UNL     1      62.417   9.336   4.087  1.00  0.00     0.073 A 
HETATM    5  C   UNL     1      62.078   9.542   1.689  1.00  0.00     0.033 A 
HETATM    6  C   UNL     1      62.193  10.718   4.209  1.00  0.00     0.025 A 
HETATM    7  C   UNL     1      61.839  10.910   1.831  1.00  0.00     0.002 A 
HETATM    8  C   UNL     1      61.893  11.498   3.091  1.00  0.00     0.002 A 
ENDROOT
BRANCH   1   9
HETATM    9  N   UNL     1      62.528   7.344   2.604  1.00  0.00    -0.267 N 
HETATM   10  N   UNL     1      61.470   6.493   2.650  1.00  0.00    -0.305 N 
HETATM   11  C   UNL     1      61.975   5.308   2.303  1.00  0.00     0.109 A 
ATOM     12  HN  UNL     1      60.504   6.712   2.896  1.00  0.00     0.186 HD
HETATM   13  C   UNL     1      63.365   5.346   2.144  1.00  0.00     0.038 A 
HETATM   14  C   UNL     1      63.701   6.657   2.375  1.00  0.00     0.118 A 
ENDBRANCH   1   9
TORSDOF 1
ENDMDL
MODEL 6
REMARK VINA RESULT:      -4.7      1.856      3.496
REMARK  1 active torsions:
REMARK  status: ('A' for Active; 'I' for Inactive)
REMARK    1  A    between atoms: N_1  and  C_4 
ROOT
HETATM    1  C   UNL     1      63.915   8.299   4.622  1.00  0.00     0.076 A 
HETATM    2  N   UNL     1      64.783   5.381   2.735  1.00  0.00    -0.191 NA
HETATM    3  C   UNL     1      64.308   6.395   3.036  1.00  0.00     0.102 C 
HETATM    4  C   UNL     1      63.716   7.657   3.388  1.00  0.00     0.073 A 
HETATM    5  C   UNL     1      63.178   9.461   4.924  1.00  0.00     0.033 A 
HETATM    6  C   UNL     1      62.808   8.208   2.466  1.00  0.00     0.025 A 
HETATM    7  C   UNL     1      62.296  10.007   3.989  1.00  0.00     0.002 A 
HETATM    8  C   UNL     1      62.113   9.382   2.759  1.00  0.00     0.002 A 
ENDROOT
BRANCH   1   9
HETATM    9  N   UNL     1      64.832   7.826   5.603  1.00  0.00    -0.267 N 
HETATM   10  N   UNL     1      64.383   7.164   6.701  1.00  0.00    -0.305 N 
HETATM   11  C   UNL     1      65.490   6.774   7.335  1.00  0.00     0.109 A 
ATOM     12  HN  UNL     1      63.414   7.002   6.978  1.00  0.00     0.186 HD
HETATM   13  C   UNL     1      66.652   7.270   6.733  1.00  0.00     0.038 A 
HETATM   14  C   UNL     1      66.201   7.970   5.642  1.00  0.00     0.118 A 
ENDBRANCH   1   9
TORSDOF 1
ENDMDL
MODEL 7
REMARK VINA RESULT:      -4.7      1.476      4.802
REMARK  1 active torsions:
REMARK  status: ('A' for Active; 'I' for Inactive)
REMARK    1  A    between atoms: N_1  and  C_4 
ROOT
HETATM    1  C   UNL     1      64.381   8.167   5.418  1.00  0.00     0.076 A 
HETATM    2  N   UNL     1      61.454   6.566   6.720  1.00  0.00    -0.191 NA
HETATM    3  C   UNL     1      62.561   6.789   6.459  1.00  0.00     0.102 C 
HETATM    4  C   UNL     1      63.940   7.053   6.153  1.00  0.00     0.073 A 
HETATM    5  C   UNL     1      65.738   8.260   5.050  1.00  0.00     0.033 A 
HETATM    6  C   UNL     1      64.871   6.070   6.533  1.00  0.00     0.025 A 
HETATM    7  C   UNL     1      66.653   7.286   5.453  1.00  0.00     0.002 A 
HETATM    8  C   UNL     1      66.221   6.192   6.197  1.00  0.00     0.002 A 
ENDROOT
BRANCH   1   9
HETATM    9  N   UNL     1      63.514   9.221   5.013  1.00  0.00    -0.267 N 
HETATM   10  N   UNL     1      63.354  10.320   5.796  1.00  0.00    -0.305 N 
HETATM   11  C   UNL     1      62.580  11.135   5.078  1.00  0.00     0.109 A 
ATOM     12  HN  UNL     1      63.740  10.484   6.726  1.00  0.00     0.186 HD
HETATM   13  C   UNL     1      62.136  10.541   3.891  1.00  0.00     0.038 A 
HETATM   14  C   UNL     1      62.722   9.299   3.888  1.00  0.00     0.118 A 
ENDBRANCH   1   9
TORSDOF 1
ENDMDL
MODEL 8
REMARK VINA RESULT:      -4.6      1.727      4.360
REMARK  1 active torsions:
REMARK  status: ('A' for Active; 'I' for Inactive)
REMARK    1  A    between atoms: N_1  and  C_4 
ROOT
HETATM    1  C   UNL     1      61.716   7.815   4.247  1.00  0.00     0.076 A 
HETATM    2  N   UNL     1      64.775   9.269   5.414  1.00  0.00    -0.191 NA
HETATM    3  C   UNL     1      63.843   8.584   5.335  1.00  0.00     0.102 C 
HETATM    4  C   UNL     1      62.698   7.719   5.249  1.00  0.00     0.073 A 
HETATM    5  C   UNL     1      60.560   7.014   4.333  1.00  0.00     0.033 A 
HETATM    6  C   UNL     1      62.520   6.800   6.298  1.00  0.00     0.025 A 
HETATM    7  C   UNL     1      60.409   6.092   5.370  1.00  0.00     0.002 A 
HETATM    8  C   UNL     1      61.390   5.982   6.351  1.00  0.00     0.002 A 
ENDROOT
BRANCH   1   9
HETATM    9  N   UNL     1      61.826   8.698   3.137  1.00  0.00    -0.267 N 
HETATM   10  N   UNL     1      61.422   9.991   3.244  1.00  0.00    -0.305 N 
HETATM   11  C   UNL     1      61.764  10.548   2.081  1.00  0.00     0.109 A 
ATOM     12  HN  UNL     1      60.959  10.436   4.037  1.00  0.00     0.186 HD
HETATM   13  C   UNL     1      62.279   9.616   1.173  1.00  0.00     0.038 A 
HETATM   14  C   UNL     1      62.277   8.428   1.863  1.00  0.00     0.118 A 
ENDBRANCH   1   9
TORSDOF 1
ENDMDL
MODEL 9
REMARK VINA RESULT:      -4.5      2.993      6.637
REMARK  1 active torsions:
REMARK  status: ('A' for Active; 'I' for Inactive)
REMARK    1  A    between atoms: N_1  and  C_4 
ROOT
HETATM    1  C   UNL     1      66.188   6.559   7.077  1.00  0.00     0.076 A 
HETATM    2  N   UNL     1      67.228   5.228   3.918  1.00  0.00    -0.191 NA
HETATM    3  C   UNL     1      67.154   5.424   5.059  1.00  0.00     0.102 C 
HETATM    4  C   UNL     1      67.073   5.647   6.477  1.00  0.00     0.073 A 
HETATM    5  C   UNL     1      66.284   6.808   8.460  1.00  0.00     0.033 A 
HETATM    6  C   UNL     1      68.014   4.975   7.277  1.00  0.00     0.025 A 
HETATM    7  C   UNL     1      67.210   6.118   9.244  1.00  0.00     0.002 A 
HETATM    8  C   UNL     1      68.073   5.199   8.654  1.00  0.00     0.002 A 
ENDROOT
BRANCH   1   9
HETATM    9  N   UNL     1      65.188   7.263   6.348  1.00  0.00    -0.267 N 
HETATM   10  N   UNL     1      65.445   8.500   5.848  1.00  0.00    -0.305 N 
HETATM   11  C   UNL     1      64.356   8.811   5.143  1.00  0.00     0.109 A 
ATOM     12  HN  UNL     1      66.283   9.065   5.982  1.00  0.00     0.186 HD
HETATM   13  C   UNL     1      63.346   7.850   5.269  1.00  0.00     0.038 A 
HETATM   14  C   UNL     1      63.893   6.882   6.075  1.00  0.00     0.118 A 
ENDBRANCH   1   9
TORSDOF 1
ENDMDL
