MODEL 1
REMARK VINA RESULT:      -5.1      0.000      0.000
REMARK  3 active torsions:
REMARK  status: ('A' for Active; 'I' for Inactive)
REMARK    1  A    between atoms: N_1  and  C_4 
REMARK    2  A    between atoms: C_6  and  C_10 
REMARK    3  A    between atoms: N_9  and  C_10 
ROOT
HETATM    1  C   UNL     1      62.666   9.319   3.900  1.00  0.00     0.063 A 
HETATM    2  C   UNL     1      62.368  10.628   4.351  1.00  0.00    -0.004 A 
HETATM    3  C   UNL     1      62.519   9.003   2.533  1.00  0.00     0.032 A 
HETATM    4  C   UNL     1      61.908  11.568   3.405  1.00  0.00     0.011 A 
HETATM    5  C   UNL     1      62.057   9.953   1.624  1.00  0.00     0.002 A 
HETATM    6  C   UNL     1      61.751  11.233   2.059  1.00  0.00     0.001 A 
ENDROOT
BRANCH   1   7
HETATM    7  N   UNL     1      63.102   8.286   4.780  1.00  0.00    -0.268 N 
HETATM    8  N   UNL     1      64.417   8.063   5.043  1.00  0.00    -0.305 N 
HETATM    9  C   UNL     1      64.426   7.122   5.987  1.00  0.00     0.109 A 
ATOM     10  HN  UNL     1      65.222   8.518   4.613  1.00  0.00     0.186 HD
HETATM   11  C   UNL     1      63.141   6.655   6.289  1.00  0.00     0.038 A 
HETATM   12  C   UNL     1      62.310   7.411   5.501  1.00  0.00     0.118 A 
ENDBRANCH   1   7
BRANCH   2  13
HETATM   13  C   UNL     1      62.578  11.121   5.768  1.00  0.00     0.270 C 
BRANCH  13  14
HETATM   14  N   UNL     1      63.993  11.341   6.065  1.00  0.00    -0.075 N 
HETATM   15  H   UNL     1      64.521  10.496   5.846  1.00  0.00     0.274 HD
HETATM   16  H   UNL     1      64.103  11.564   7.054  1.00  0.00     0.274 HD
HETATM   17  H   UNL     1      64.344  12.115   5.500  1.00  0.00     0.274 HD
ENDBRANCH  13  14
ENDBRANCH   2  13
TORSDOF 3
ENDMDL
MODEL 2
REMARK VINA RESULT:      -4.8      1.402      2.947
REMARK  3 active torsions:
REMARK  status: ('A' for Active; 'I' for Inactive)
REMARK    1  A    between atoms: N_1  and  C_4 
REMARK    2  A    between atoms: C_6  and  C_10 
REMARK    3  A    between atoms: N_9  and  C_10 
ROOT
HETATM    1  C   UNL     1      63.326   9.129   4.657  1.00  0.00     0.063 A 
HETATM    2  C   UNL     1      62.858   8.779   3.368  1.00  0.00    -0.004 A 
HETATM    3  C   UNL     1      63.001  10.391   5.198  1.00  0.00     0.032 A 
HETATM    4  C   UNL     1      62.096   9.729   2.657  1.00  0.00     0.011 A 
HETATM    5  C   UNL     1      62.249  11.310   4.468  1.00  0.00     0.002 A 
HETATM    6  C   UNL     1      61.799  10.981   3.199  1.00  0.00     0.001 A 
ENDROOT
BRANCH   1   7
HETATM    7  N   UNL     1      64.134   8.256   5.443  1.00  0.00    -0.268 N 
HETATM    8  N   UNL     1      63.605   7.420   6.376  1.00  0.00    -0.305 N 
HETATM    9  C   UNL     1      64.632   6.686   6.804  1.00  0.00     0.109 A 
ATOM     10  HN  UNL     1      62.633   7.366   6.682  1.00  0.00     0.186 HD
HETATM   11  C   UNL     1      65.848   7.083   6.234  1.00  0.00     0.038 A 
HETATM   12  C   UNL     1      65.505   8.092   5.370  1.00  0.00     0.118 A 
ENDBRANCH   1   7
BRANCH   2  13
HETATM   13  C   UNL     1      63.052   7.424   2.717  1.00  0.00     0.270 C 
BRANCH  13  14
HETATM   14  N   UNL     1      62.058   6.453   3.175  1.00  0.00    -0.075 N 
HETATM   15  H   UNL     1      61.614   6.796   4.026  1.00  0.00     0.274 HD
HETATM   16  H   UNL     1      62.515   5.561   3.365  1.00  0.00     0.274 HD
HETATM   17  H   UNL     1      61.350   6.324   2.451  1.00  0.00     0.274 HD
ENDBRANCH  13  14
ENDBRANCH   2  13
TORSDOF 3
ENDMDL
MODEL 3
REMARK VINA RESULT:      -4.7      1.363      1.638
REMARK  3 active torsions:
REMARK  status: ('A' for Active; 'I' for Inactive)
REMARK    1  A    between atoms: N_1  and  C_4 
REMARK    2  A    between atoms: C_6  and  C_10 
REMARK    3  A    between atoms: N_9  and  C_10 
ROOT
HETATM    1  C   UNL     1      62.769   8.679   3.256  1.00  0.00     0.063 A 
HETATM    2  C   UNL     1      62.596   9.826   4.067  1.00  0.00    -0.004 A 
HETATM    3  C   UNL     1      62.439   8.737   1.885  1.00  0.00     0.032 A 
HETATM    4  C   UNL     1      62.070  10.990   3.467  1.00  0.00     0.011 A 
HETATM    5  C   UNL     1      61.916   9.901   1.324  1.00  0.00     0.002 A 
HETATM    6  C   UNL     1      61.730  11.025   2.114  1.00  0.00     0.001 A 
ENDROOT
BRANCH   1   7
HETATM    7  N   UNL     1      63.260   7.443   3.771  1.00  0.00    -0.268 N 
HETATM    8  N   UNL     1      62.447   6.532   4.370  1.00  0.00    -0.305 N 
HETATM    9  C   UNL     1      63.224   5.474   4.600  1.00  0.00     0.109 A 
ATOM     10  HN  UNL     1      61.457   6.635   4.594  1.00  0.00     0.186 HD
HETATM   11  C   UNL     1      64.559   5.702   4.243  1.00  0.00     0.038 A 
HETATM   12  C   UNL     1      64.559   6.971   3.720  1.00  0.00     0.118 A 
ENDBRANCH   1   7
BRANCH   2  13
HETATM   13  C   UNL     1      63.004   9.924   5.522  1.00  0.00     0.270 C 
BRANCH  13  14
HETATM   14  N   UNL     1      63.276  11.306   5.920  1.00  0.00    -0.075 N 
HETATM   15  H   UNL     1      64.169  11.348   6.412  1.00  0.00     0.274 HD
HETATM   16  H   UNL     1      62.532  11.636   6.535  1.00  0.00     0.274 HD
HETATM   17  H   UNL     1      63.319  11.897   5.090  1.00  0.00     0.274 HD
ENDBRANCH  13  14
ENDBRANCH   2  13
TORSDOF 3
ENDMDL
MODEL 4
REMARK VINA RESULT:      -4.3      1.978      4.063
REMARK  3 active torsions:
REMARK  status: ('A' for Active; 'I' for Inactive)
REMARK    1  A    between atoms: N_1  and  C_4 
REMARK    2  A    between atoms: C_6  and  C_10 
REMARK    3  A    between atoms: N_9  and  C_10 
ROOT
HETATM    1  C   UNL     1      63.480   7.942   3.542  1.00  0.00     0.063 A 
HETATM    2  C   UNL     1      63.752   8.876   4.571  1.00  0.00    -0.004 A 
HETATM    3  C   UNL     1      64.358   6.857   3.335  1.00  0.00     0.032 A 
HETATM    4  C   UNL     1      64.919   8.693   5.343  1.00  0.00     0.011 A 
HETATM    5  C   UNL     1      65.506   6.708   4.111  1.00  0.00     0.002 A 
HETATM    6  C   UNL     1      65.788   7.624   5.112  1.00  0.00     0.001 A 
ENDROOT
BRANCH   1   7
HETATM    7  N   UNL     1      62.348   8.056   2.683  1.00  0.00    -0.268 N 
HETATM    8  N   UNL     1      61.158   7.462   2.966  1.00  0.00    -0.305 N 
HETATM    9  C   UNL     1      60.324   7.891   2.019  1.00  0.00     0.109 A 
ATOM     10  HN  UNL     1      60.950   6.826   3.736  1.00  0.00     0.186 HD
HETATM   11  C   UNL     1      60.964   8.689   1.063  1.00  0.00     0.038 A 
HETATM   12  C   UNL     1      62.260   8.777   1.506  1.00  0.00     0.118 A 
ENDBRANCH   1   7
BRANCH   2  13
HETATM   13  C   UNL     1      62.841  10.022   4.960  1.00  0.00     0.270 C 
BRANCH  13  14
HETATM   14  N   UNL     1      63.512  10.977   5.842  1.00  0.00    -0.075 N 
HETATM   15  H   UNL     1      63.491  11.904   5.417  1.00  0.00     0.274 HD
HETATM   16  H   UNL     1      64.481  10.689   5.982  1.00  0.00     0.274 HD
HETATM   17  H   UNL     1      63.032  11.006   6.741  1.00  0.00     0.274 HD
ENDBRANCH  13  14
ENDBRANCH   2  13
TORSDOF 3
ENDMDL
MODEL 5
REMARK VINA RESULT:      -4.2      2.003      3.190
REMARK  3 active torsions:
REMARK  status: ('A' for Active; 'I' for Inactive)
REMARK    1  A    between atoms: N_1  and  C_4 
REMARK    2  A    between atoms: C_6  and  C_10 
REMARK    3  A    between atoms: N_9  and  C_10 
ROOT
HETATM    1  C   UNL     1      62.515   8.957   3.190  1.00  0.00     0.063 A 
HETATM    2  C   UNL     1      62.172   9.428   1.900  1.00  0.00    -0.004 A 
HETATM    3  C   UNL     1      62.481   9.843   4.288  1.00  0.00     0.032 A 
HETATM    4  C   UNL     1      61.828  10.789   1.759  1.00  0.00     0.011 A 
HETATM    5  C   UNL     1      62.142  11.184   4.115  1.00  0.00     0.002 A 
HETATM    6  C   UNL     1      61.818  11.657   2.853  1.00  0.00     0.001 A 
ENDROOT
BRANCH   1   7
HETATM    7  N   UNL     1      62.912   7.609   3.435  1.00  0.00    -0.268 N 
HETATM    8  N   UNL     1      64.214   7.217   3.398  1.00  0.00    -0.305 N 
HETATM    9  C   UNL     1      64.202   5.945   3.795  1.00  0.00     0.109 A 
ATOM     10  HN  UNL     1      65.023   7.776   3.127  1.00  0.00     0.186 HD
HETATM   11  C   UNL     1      62.905   5.462   4.008  1.00  0.00     0.038 A 
HETATM   12  C   UNL     1      62.096   6.544   3.767  1.00  0.00     0.118 A 
ENDBRANCH   1   7
BRANCH   2  13
HETATM   13  C   UNL     1      62.073   8.560   0.663  1.00  0.00     0.270 C 
BRANCH  13  14
HETATM   14  N   UNL     1      60.701   8.111   0.420  1.00  0.00    -0.075 N 
HETATM   15  H   UNL     1      60.407   7.494   1.176  1.00  0.00     0.274 HD
HETATM   16  H   UNL     1      60.659   7.608  -0.467  1.00  0.00     0.274 HD
HETATM   17  H   UNL     1      60.081   8.920   0.382  1.00  0.00     0.274 HD
ENDBRANCH  13  14
ENDBRANCH   2  13
TORSDOF 3
ENDMDL
MODEL 6
REMARK VINA RESULT:      -4.2      1.405      4.809
REMARK  3 active torsions:
REMARK  status: ('A' for Active; 'I' for Inactive)
REMARK    1  A    between atoms: N_1  and  C_4 
REMARK    2  A    between atoms: C_6  and  C_10 
REMARK    3  A    between atoms: N_9  and  C_10 
ROOT
HETATM    1  C   UNL     1      64.112   8.178   5.401  1.00  0.00     0.063 A 
HETATM    2  C   UNL     1      63.571   7.067   6.092  1.00  0.00    -0.004 A 
HETATM    3  C   UNL     1      65.496   8.225   5.130  1.00  0.00     0.032 A 
HETATM    4  C   UNL     1      64.455   6.049   6.508  1.00  0.00     0.011 A 
HETATM    5  C   UNL     1      66.343   7.205   5.560  1.00  0.00     0.002 A 
HETATM    6  C   UNL     1      65.825   6.120   6.249  1.00  0.00     0.001 A 
ENDROOT
BRANCH   1   7
HETATM    7  N   UNL     1      63.311   9.276   4.969  1.00  0.00    -0.268 N 
HETATM    8  N   UNL     1      63.162  10.404   5.714  1.00  0.00    -0.305 N 
HETATM    9  C   UNL     1      62.464  11.237   4.943  1.00  0.00     0.109 A 
ATOM     10  HN  UNL     1      63.511  10.575   6.657  1.00  0.00     0.186 HD
HETATM   11  C   UNL     1      62.072  10.648   3.735  1.00  0.00     0.038 A 
HETATM   12  C   UNL     1      62.621   9.391   3.776  1.00  0.00     0.118 A 
ENDBRANCH   1   7
BRANCH   2  13
HETATM   13  C   UNL     1      62.095   6.849   6.356  1.00  0.00     0.270 C 
BRANCH  13  14
HETATM   14  N   UNL     1      61.424   6.225   5.215  1.00  0.00    -0.075 N 
HETATM   15  H   UNL     1      60.853   5.445   5.542  1.00  0.00     0.274 HD
HETATM   16  H   UNL     1      62.122   5.882   4.554  1.00  0.00     0.274 HD
HETATM   17  H   UNL     1      60.827   6.912   4.754  1.00  0.00     0.274 HD
ENDBRANCH  13  14
ENDBRANCH   2  13
TORSDOF 3
ENDMDL
MODEL 7
REMARK VINA RESULT:      -4.1      3.279      4.872
REMARK  3 active torsions:
REMARK  status: ('A' for Active; 'I' for Inactive)
REMARK    1  A    between atoms: N_1  and  C_4 
REMARK    2  A    between atoms: C_6  and  C_10 
REMARK    3  A    between atoms: N_9  and  C_10 
ROOT
HETATM    1  C   UNL     1      65.223   6.910   6.465  1.00  0.00     0.063 A 
HETATM    2  C   UNL     1      65.724   7.748   5.440  1.00  0.00    -0.004 A 
HETATM    3  C   UNL     1      63.828   6.780   6.639  1.00  0.00     0.032 A 
HETATM    4  C   UNL     1      64.796   8.447   4.639  1.00  0.00     0.011 A 
HETATM    5  C   UNL     1      62.938   7.488   5.835  1.00  0.00     0.002 A 
HETATM    6  C   UNL     1      63.420   8.321   4.837  1.00  0.00     0.001 A 
ENDROOT
BRANCH   1   7
HETATM    7  N   UNL     1      66.075   6.189   7.351  1.00  0.00    -0.268 N 
HETATM    8  N   UNL     1      66.455   4.906   7.111  1.00  0.00    -0.305 N 
HETATM    9  C   UNL     1      67.333   4.619   8.072  1.00  0.00     0.109 A 
ATOM     10  HN  UNL     1      66.138   4.295   6.358  1.00  0.00     0.186 HD
HETATM   11  C   UNL     1      67.474   5.662   8.996  1.00  0.00     0.038 A 
HETATM   12  C   UNL     1      66.655   6.654   8.517  1.00  0.00     0.118 A 
ENDBRANCH   1   7
BRANCH   2  13
HETATM   13  C   UNL     1      67.190   7.895   5.085  1.00  0.00     0.270 C 
BRANCH  13  14
HETATM   14  N   UNL     1      67.637   6.847   4.167  1.00  0.00    -0.075 N 
HETATM   15  H   UNL     1      67.107   5.994   4.342  1.00  0.00     0.274 HD
HETATM   16  H   UNL     1      68.630   6.667   4.314  1.00  0.00     0.274 HD
HETATM   17  H   UNL     1      67.485   7.150   3.205  1.00  0.00     0.274 HD
ENDBRANCH  13  14
ENDBRANCH   2  13
TORSDOF 3
ENDMDL
MODEL 8
REMARK VINA RESULT:      -4.0      3.369      6.961
REMARK  3 active torsions:
REMARK  status: ('A' for Active; 'I' for Inactive)
REMARK    1  A    between atoms: N_1  and  C_4 
REMARK    2  A    between atoms: C_6  and  C_10 
REMARK    3  A    between atoms: N_9  and  C_10 
ROOT
HETATM    1  C   UNL     1      66.272   6.466   7.142  1.00  0.00     0.063 A 
HETATM    2  C   UNL     1      66.904   5.309   6.627  1.00  0.00    -0.004 A 
HETATM    3  C   UNL     1      66.572   6.900   8.451  1.00  0.00     0.032 A 
HETATM    4  C   UNL     1      67.802   4.613   7.464  1.00  0.00     0.011 A 
HETATM    5  C   UNL     1      67.459   6.187   9.255  1.00  0.00     0.002 A 
HETATM    6  C   UNL     1      68.073   5.045   8.764  1.00  0.00     0.001 A 
ENDROOT
BRANCH   1   7
HETATM    7  N   UNL     1      65.322   7.220   6.392  1.00  0.00    -0.268 N 
HETATM    8  N   UNL     1      63.981   7.055   6.542  1.00  0.00    -0.305 N 
HETATM    9  C   UNL     1      63.429   8.002   5.785  1.00  0.00     0.109 A 
ATOM     10  HN  UNL     1      63.502   6.358   7.113  1.00  0.00     0.186 HD
HETATM   11  C   UNL     1      64.381   8.734   5.065  1.00  0.00     0.038 A 
HETATM   12  C   UNL     1      65.586   8.213   5.466  1.00  0.00     0.118 A 
ENDBRANCH   1   7
BRANCH   2  13
HETATM   13  C   UNL     1      66.746   4.798   5.209  1.00  0.00     0.270 C 
BRANCH  13  14
HETATM   14  N   UNL     1      67.591   3.631   4.953  1.00  0.00    -0.075 N 
HETATM   15  H   UNL     1      68.444   3.927   4.478  1.00  0.00     0.274 HD
HETATM   16  H   UNL     1      67.087   2.968   4.365  1.00  0.00     0.274 HD
HETATM   17  H   UNL     1      67.833   3.185   5.838  1.00  0.00     0.274 HD
ENDBRANCH  13  14
ENDBRANCH   2  13
TORSDOF 3
ENDMDL
MODEL 9
REMARK VINA RESULT:      -4.0      2.682      4.261
REMARK  3 active torsions:
REMARK  status: ('A' for Active; 'I' for Inactive)
REMARK    1  A    between atoms: N_1  and  C_4 
REMARK    2  A    between atoms: C_6  and  C_10 
REMARK    3  A    between atoms: N_9  and  C_10 
ROOT
HETATM    1  C   UNL     1      61.654   8.486   2.337  1.00  0.00     0.063 A 
HETATM    2  C   UNL     1      60.628   7.548   2.602  1.00  0.00    -0.004 A 
HETATM    3  C   UNL     1      62.376   8.407   1.128  1.00  0.00     0.032 A 
HETATM    4  C   UNL     1      60.381   6.544   1.642  1.00  0.00     0.011 A 
HETATM    5  C   UNL     1      62.112   7.400   0.201  1.00  0.00     0.002 A 
HETATM    6  C   UNL     1      61.117   6.469   0.458  1.00  0.00     0.001 A 
ENDROOT
BRANCH   1   7
HETATM    7  N   UNL     1      62.007   9.517   3.257  1.00  0.00    -0.268 N 
HETATM    8  N   UNL     1      61.647  10.815   3.068  1.00  0.00    -0.305 N 
HETATM    9  C   UNL     1      62.036  11.446   4.175  1.00  0.00     0.109 A 
ATOM     10  HN  UNL     1      61.179  11.217   2.256  1.00  0.00     0.186 HD
HETATM   11  C   UNL     1      62.728  10.606   5.056  1.00  0.00     0.038 A 
HETATM   12  C   UNL     1      62.702   9.377   4.445  1.00  0.00     0.118 A 
ENDBRANCH   1   7
BRANCH   2  13
HETATM   13  C   UNL     1      59.716   7.584   3.812  1.00  0.00     0.270 C 
BRANCH  13  14
HETATM   14  N   UNL     1      58.346   7.947   3.451  1.00  0.00    -0.075 N 
HETATM   15  H   UNL     1      58.353   8.487   2.586  1.00  0.00     0.274 HD
HETATM   16  H   UNL     1      57.933   8.507   4.198  1.00  0.00     0.274 HD
HETATM   17  H   UNL     1      57.793   7.100   3.317  1.00  0.00     0.274 HD
ENDBRANCH  13  14
ENDBRANCH   2  13
TORSDOF 3
ENDMDL
