MODEL 1
REMARK VINA RESULT:      -4.7      0.000      0.000
REMARK  1 active torsions:
REMARK  status: ('A' for Active; 'I' for Inactive)
REMARK    1  A    between atoms: C_8  and  N_9 
ROOT
HETATM    1  C   UNL     1      62.881   8.952   3.611  1.00  0.00    -0.017 A 
HETATM    2  S   UNL     1      61.844   8.910   1.244  1.00  0.00    -0.101 SA
HETATM    3  C   UNL     1      62.172   9.751   2.712  1.00  0.00     0.015 A 
HETATM    4  C   UNL     1      62.623   7.495   1.794  1.00  0.00     0.051 A 
HETATM    5  C   UNL     1      63.132   7.648   3.062  1.00  0.00     0.020 A 
HETATM    6  C   UNL     1      63.221   9.503   4.872  1.00  0.00     0.041 A 
HETATM    7  C   UNL     1      61.792  11.064   3.043  1.00  0.00     0.022 A 
HETATM    8  C   UNL     1      62.897  10.825   5.198  1.00  0.00     0.026 A 
HETATM    9  C   UNL     1      62.144  11.572   4.298  1.00  0.00     0.030 A 
ENDROOT
BRANCH   8  10
HETATM   10  N   UNL     1      63.122  11.302   6.495  1.00  0.00    -0.399 N 
HETATM   11  H   UNL     1      63.201  12.271   6.657  1.00  0.00     0.156 HD
HETATM   12  H   UNL     1      63.201  10.671   7.245  1.00  0.00     0.156 HD
ENDBRANCH   8  10
TORSDOF 1
ENDMDL
MODEL 2
REMARK VINA RESULT:      -4.6      1.078      2.107
REMARK  1 active torsions:
REMARK  status: ('A' for Active; 'I' for Inactive)
REMARK    1  A    between atoms: C_8  and  N_9 
ROOT
HETATM    1  C   UNL     1      62.146   9.684   2.895  1.00  0.00    -0.017 A 
HETATM    2  S   UNL     1      62.611   7.484   1.622  1.00  0.00    -0.101 SA
HETATM    3  C   UNL     1      62.854   8.485   3.002  1.00  0.00     0.015 A 
HETATM    4  C   UNL     1      61.587   8.629   0.879  1.00  0.00     0.051 A 
HETATM    5  C   UNL     1      61.419   9.750   1.657  1.00  0.00     0.020 A 
HETATM    6  C   UNL     1      62.250  10.620   3.954  1.00  0.00     0.041 A 
HETATM    7  C   UNL     1      63.658   8.209   4.123  1.00  0.00     0.022 A 
HETATM    8  C   UNL     1      63.005  10.340   5.100  1.00  0.00     0.026 A 
HETATM    9  C   UNL     1      63.738   9.158   5.147  1.00  0.00     0.030 A 
ENDROOT
BRANCH   8  10
HETATM   10  N   UNL     1      63.202  11.331   6.069  1.00  0.00    -0.399 N 
HETATM   11  H   UNL     1      63.577  12.205   5.811  1.00  0.00     0.156 HD
HETATM   12  H   UNL     1      62.966  11.156   7.008  1.00  0.00     0.156 HD
ENDBRANCH   8  10
TORSDOF 1
ENDMDL
MODEL 3
REMARK VINA RESULT:      -4.3      2.270      2.827
REMARK  1 active torsions:
REMARK  status: ('A' for Active; 'I' for Inactive)
REMARK    1  A    between atoms: C_8  and  N_9 
ROOT
HETATM    1  C   UNL     1      62.966   8.560   3.315  1.00  0.00    -0.017 A 
HETATM    2  S   UNL     1      63.978   7.633   5.504  1.00  0.00    -0.101 SA
HETATM    3  C   UNL     1      63.208   8.912   4.645  1.00  0.00     0.015 A 
HETATM    4  C   UNL     1      64.004   6.624   4.129  1.00  0.00     0.051 A 
HETATM    5  C   UNL     1      63.435   7.232   3.035  1.00  0.00     0.020 A 
HETATM    6  C   UNL     1      62.341   9.515   2.474  1.00  0.00     0.041 A 
HETATM    7  C   UNL     1      62.854  10.179   5.142  1.00  0.00     0.022 A 
HETATM    8  C   UNL     1      61.935  10.762   2.965  1.00  0.00     0.026 A 
HETATM    9  C   UNL     1      62.241  11.095   4.281  1.00  0.00     0.030 A 
ENDROOT
BRANCH   8  10
HETATM   10  N   UNL     1      61.445  11.735   2.087  1.00  0.00    -0.399 N 
HETATM   11  H   UNL     1      60.669  12.286   2.344  1.00  0.00     0.156 HD
HETATM   12  H   UNL     1      61.875  11.871   1.212  1.00  0.00     0.156 HD
ENDBRANCH   8  10
TORSDOF 1
ENDMDL
MODEL 4
REMARK VINA RESULT:      -3.9      2.878      4.054
REMARK  1 active torsions:
REMARK  status: ('A' for Active; 'I' for Inactive)
REMARK    1  A    between atoms: C_8  and  N_9 
ROOT
HETATM    1  C   UNL     1      62.946   8.474   3.290  1.00  0.00    -0.017 A 
HETATM    2  S   UNL     1      62.031  10.833   3.817  1.00  0.00    -0.101 SA
HETATM    3  C   UNL     1      62.237   9.529   2.711  1.00  0.00     0.015 A 
HETATM    4  C   UNL     1      62.881  10.018   5.052  1.00  0.00     0.051 A 
HETATM    5  C   UNL     1      63.312   8.777   4.646  1.00  0.00     0.020 A 
HETATM    6  C   UNL     1      63.203   7.326   2.500  1.00  0.00     0.041 A 
HETATM    7  C   UNL     1      61.794   9.466   1.378  1.00  0.00     0.022 A 
HETATM    8  C   UNL     1      62.725   7.225   1.188  1.00  0.00     0.026 A 
HETATM    9  C   UNL     1      62.069   8.318   0.628  1.00  0.00     0.030 A 
ENDROOT
BRANCH   8  10
HETATM   10  N   UNL     1      63.106   6.144   0.384  1.00  0.00    -0.399 N 
HETATM   11  H   UNL     1      63.207   5.247   0.779  1.00  0.00     0.156 HD
HETATM   12  H   UNL     1      63.273   6.279  -0.577  1.00  0.00     0.156 HD
ENDBRANCH   8  10
TORSDOF 1
ENDMDL
MODEL 5
REMARK VINA RESULT:      -3.7      2.343      3.752
REMARK  1 active torsions:
REMARK  status: ('A' for Active; 'I' for Inactive)
REMARK    1  A    between atoms: C_8  and  N_9 
ROOT
HETATM    1  C   UNL     1      63.671   9.061   4.775  1.00  0.00    -0.017 A 
HETATM    2  S   UNL     1      61.906   9.486   2.936  1.00  0.00    -0.101 SA
HETATM    3  C   UNL     1      63.141   8.494   3.614  1.00  0.00     0.015 A 
HETATM    4  C   UNL     1      62.076  10.663   4.159  1.00  0.00     0.051 A 
HETATM    5  C   UNL     1      63.043  10.318   5.073  1.00  0.00     0.020 A 
HETATM    6  C   UNL     1      64.706   8.365   5.447  1.00  0.00     0.041 A 
HETATM    7  C   UNL     1      63.620   7.271   3.113  1.00  0.00     0.022 A 
HETATM    8  C   UNL     1      65.160   7.120   4.992  1.00  0.00     0.026 A 
HETATM    9  C   UNL     1      64.644   6.613   3.803  1.00  0.00     0.030 A 
ENDROOT
BRANCH   8  10
HETATM   10  N   UNL     1      66.271   6.517   5.592  1.00  0.00    -0.399 N 
HETATM   11  H   UNL     1      66.628   6.873   6.439  1.00  0.00     0.156 HD
HETATM   12  H   UNL     1      66.697   5.737   5.170  1.00  0.00     0.156 HD
ENDBRANCH   8  10
TORSDOF 1
ENDMDL
MODEL 6
REMARK VINA RESULT:      -3.6      2.818      4.247
REMARK  1 active torsions:
REMARK  status: ('A' for Active; 'I' for Inactive)
REMARK    1  A    between atoms: C_8  and  N_9 
ROOT
HETATM    1  C   UNL     1      62.511   9.391   3.088  1.00  0.00    -0.017 A 
HETATM    2  S   UNL     1      62.995  10.594   5.323  1.00  0.00    -0.101 SA
HETATM    3  C   UNL     1      63.169   9.214   4.306  1.00  0.00     0.015 A 
HETATM    4  C   UNL     1      62.047  11.418   4.168  1.00  0.00     0.051 A 
HETATM    5  C   UNL     1      61.865  10.673   3.027  1.00  0.00     0.020 A 
HETATM    6  C   UNL     1      62.556   8.336   2.143  1.00  0.00     0.041 A 
HETATM    7  C   UNL     1      63.853   8.021   4.601  1.00  0.00     0.022 A 
HETATM    8  C   UNL     1      63.276   7.162   2.398  1.00  0.00     0.026 A 
HETATM    9  C   UNL     1      63.874   7.001   3.644  1.00  0.00     0.030 A 
ENDROOT
BRANCH   8  10
HETATM   10  N   UNL     1      63.195   6.083   1.510  1.00  0.00    -0.399 N 
HETATM   11  H   UNL     1      62.911   6.231   0.578  1.00  0.00     0.156 HD
HETATM   12  H   UNL     1      63.422   5.175   1.816  1.00  0.00     0.156 HD
ENDBRANCH   8  10
TORSDOF 1
ENDMDL
MODEL 7
REMARK VINA RESULT:      -3.6      2.932      4.221
REMARK  1 active torsions:
REMARK  status: ('A' for Active; 'I' for Inactive)
REMARK    1  A    between atoms: C_8  and  N_9 
ROOT
HETATM    1  C   UNL     1      63.026   8.603   3.465  1.00  0.00    -0.017 A 
HETATM    2  S   UNL     1      63.013  10.518   5.200  1.00  0.00    -0.101 SA
HETATM    3  C   UNL     1      63.674   9.036   4.624  1.00  0.00     0.015 A 
HETATM    4  C   UNL     1      61.870  10.586   3.936  1.00  0.00     0.051 A 
HETATM    5  C   UNL     1      61.982   9.514   3.083  1.00  0.00     0.020 A 
HETATM    6  C   UNL     1      63.454   7.389   2.872  1.00  0.00     0.041 A 
HETATM    7  C   UNL     1      64.718   8.289   5.199  1.00  0.00     0.022 A 
HETATM    8  C   UNL     1      64.525   6.659   3.402  1.00  0.00     0.026 A 
HETATM    9  C   UNL     1      65.111   7.094   4.587  1.00  0.00     0.030 A 
ENDROOT
BRANCH   8  10
HETATM   10  N   UNL     1      64.840   5.399   2.881  1.00  0.00    -0.399 N 
HETATM   11  H   UNL     1      65.739   5.227   2.516  1.00  0.00     0.156 HD
HETATM   12  H   UNL     1      64.165   4.683   2.879  1.00  0.00     0.156 HD
ENDBRANCH   8  10
TORSDOF 1
ENDMDL
MODEL 8
REMARK VINA RESULT:      -3.5      3.135      4.132
REMARK  1 active torsions:
REMARK  status: ('A' for Active; 'I' for Inactive)
REMARK    1  A    between atoms: C_8  and  N_9 
ROOT
HETATM    1  C   UNL     1      63.924   8.270   4.833  1.00  0.00    -0.017 A 
HETATM    2  S   UNL     1      61.681   6.987   4.850  1.00  0.00    -0.101 SA
HETATM    3  C   UNL     1      63.280   7.198   5.455  1.00  0.00     0.015 A 
HETATM    4  C   UNL     1      61.839   8.294   3.765  1.00  0.00     0.051 A 
HETATM    5  C   UNL     1      63.074   8.892   3.856  1.00  0.00     0.020 A 
HETATM    6  C   UNL     1      65.255   8.566   5.220  1.00  0.00     0.041 A 
HETATM    7  C   UNL     1      63.929   6.423   6.433  1.00  0.00     0.022 A 
HETATM    8  C   UNL     1      65.898   7.838   6.228  1.00  0.00     0.026 A 
HETATM    9  C   UNL     1      65.243   6.745   6.787  1.00  0.00     0.030 A 
ENDROOT
BRANCH   8  10
HETATM   10  N   UNL     1      67.254   8.061   6.497  1.00  0.00    -0.399 N 
HETATM   11  H   UNL     1      67.931   7.877   5.805  1.00  0.00     0.156 HD
HETATM   12  H   UNL     1      67.532   8.401   7.378  1.00  0.00     0.156 HD
ENDBRANCH   8  10
TORSDOF 1
ENDMDL
MODEL 9
REMARK VINA RESULT:      -3.3      2.276      3.235
REMARK  1 active torsions:
REMARK  status: ('A' for Active; 'I' for Inactive)
REMARK    1  A    between atoms: C_8  and  N_9 
ROOT
HETATM    1  C   UNL     1      63.488   7.518   3.168  1.00  0.00    -0.017 A 
HETATM    2  S   UNL     1      64.854   5.404   2.579  1.00  0.00    -0.101 SA
HETATM    3  C   UNL     1      64.600   6.782   3.582  1.00  0.00     0.015 A 
HETATM    4  C   UNL     1      63.511   5.781   1.595  1.00  0.00     0.051 A 
HETATM    5  C   UNL     1      62.871   6.923   2.015  1.00  0.00     0.020 A 
HETATM    6  C   UNL     1      63.153   8.689   3.893  1.00  0.00     0.041 A 
HETATM    7  C   UNL     1      65.378   7.188   4.681  1.00  0.00     0.022 A 
HETATM    8  C   UNL     1      63.885   9.080   5.021  1.00  0.00     0.026 A 
HETATM    9  C   UNL     1      65.017   8.351   5.370  1.00  0.00     0.030 A 
ENDROOT
BRANCH   8  10
HETATM   10  N   UNL     1      63.620  10.308   5.637  1.00  0.00    -0.399 N 
HETATM   11  H   UNL     1      64.343  10.966   5.758  1.00  0.00     0.156 HD
HETATM   12  H   UNL     1      62.710  10.516   5.950  1.00  0.00     0.156 HD
ENDBRANCH   8  10
TORSDOF 1
ENDMDL
