MODEL 1
REMARK VINA RESULT:      -5.1      0.000      0.000
REMARK  1 active torsions:
REMARK  status: ('A' for Active; 'I' for Inactive)
REMARK    1  A    between atoms: C_1  and  C_3 
ROOT
HETATM    1  C   UNL     1      65.874   7.012   4.667  1.00  0.00     0.004 C 
HETATM    2  C   UNL     1      64.766   7.027   3.908  1.00  0.00     0.026 C 
HETATM    3  O   UNL     1      65.097   9.002   5.953  1.00  0.00    -0.346 OA
HETATM    4  C   UNL     1      63.894   8.195   4.004  1.00  0.00    -0.002 A 
HETATM    5  C   UNL     1      66.211   8.183   5.557  1.00  0.00     0.217 C 
HETATM    6  C   UNL     1      64.099   9.127   5.025  1.00  0.00     0.079 A 
HETATM    7  C   UNL     1      62.829   8.379   3.115  1.00  0.00     0.014 A 
HETATM    8  C   UNL     1      63.243  10.218   5.173  1.00  0.00     0.037 A 
HETATM    9  C   UNL     1      61.982   9.482   3.251  1.00  0.00     0.001 A 
HETATM   10  C   UNL     1      62.187  10.400   4.282  1.00  0.00     0.003 A 
ENDROOT
BRANCH   1  11
HETATM   11  C   UNL     1      66.833   5.868   4.609  1.00  0.00     0.102 C 
HETATM   12  S   UNL     1      67.324   4.909   5.890  1.00  0.00    -0.060 SA
HETATM   13  N   UNL     1      67.318   5.556   3.370  1.00  0.00    -0.390 N 
HETATM   14  H   UNL     1      67.053   6.094   2.589  1.00  0.00     0.157 HD
HETATM   15  H   UNL     1      67.929   4.794   3.258  1.00  0.00     0.157 HD
ENDBRANCH   1  11
TORSDOF 1
ENDMDL
MODEL 2
REMARK VINA RESULT:      -5.1      3.178      4.800
REMARK  1 active torsions:
REMARK  status: ('A' for Active; 'I' for Inactive)
REMARK    1  A    between atoms: C_1  and  C_3 
ROOT
HETATM    1  C   UNL     1      63.231   8.736   3.837  1.00  0.00     0.004 C 
HETATM    2  C   UNL     1      63.987   7.657   3.577  1.00  0.00     0.026 C 
HETATM    3  O   UNL     1      64.803   9.485   5.622  1.00  0.00    -0.346 OA
HETATM    4  C   UNL     1      65.062   7.341   4.512  1.00  0.00    -0.002 A 
HETATM    5  C   UNL     1      63.475   9.564   5.075  1.00  0.00     0.217 C 
HETATM    6  C   UNL     1      65.423   8.272   5.490  1.00  0.00     0.079 A 
HETATM    7  C   UNL     1      65.769   6.136   4.422  1.00  0.00     0.014 A 
HETATM    8  C   UNL     1      66.487   8.017   6.356  1.00  0.00     0.037 A 
HETATM    9  C   UNL     1      66.823   5.872   5.301  1.00  0.00     0.001 A 
HETATM   10  C   UNL     1      67.183   6.814   6.266  1.00  0.00     0.003 A 
ENDROOT
BRANCH   1  11
HETATM   11  C   UNL     1      62.092   9.115   2.946  1.00  0.00     0.102 C 
HETATM   12  S   UNL     1      62.064   9.038   1.274  1.00  0.00    -0.060 SA
HETATM   13  N   UNL     1      60.950   9.520   3.575  1.00  0.00    -0.390 N 
HETATM   14  H   UNL     1      60.923   9.578   4.558  1.00  0.00     0.157 HD
HETATM   15  H   UNL     1      60.153   9.754   3.047  1.00  0.00     0.157 HD
ENDBRANCH   1  11
TORSDOF 1
ENDMDL
MODEL 3
REMARK VINA RESULT:      -5.0      2.419      3.058
REMARK  1 active torsions:
REMARK  status: ('A' for Active; 'I' for Inactive)
REMARK    1  A    between atoms: C_1  and  C_3 
ROOT
HETATM    1  C   UNL     1      63.705   7.292   4.906  1.00  0.00     0.004 C 
HETATM    2  C   UNL     1      63.460   8.596   5.112  1.00  0.00     0.026 C 
HETATM    3  O   UNL     1      63.183   7.513   2.478  1.00  0.00    -0.346 OA
HETATM    4  C   UNL     1      62.832   9.347   4.030  1.00  0.00    -0.002 A 
HETATM    5  C   UNL     1      63.309   6.632   3.608  1.00  0.00     0.217 C 
HETATM    6  C   UNL     1      62.725   8.772   2.761  1.00  0.00     0.079 A 
HETATM    7  C   UNL     1      62.369  10.653   4.228  1.00  0.00     0.014 A 
HETATM    8  C   UNL     1      62.184   9.492   1.696  1.00  0.00     0.037 A 
HETATM    9  C   UNL     1      61.809  11.370   3.167  1.00  0.00     0.001 A 
HETATM   10  C   UNL     1      61.719  10.791   1.901  1.00  0.00     0.003 A 
ENDROOT
BRANCH   1  11
HETATM   11  C   UNL     1      64.321   6.444   5.972  1.00  0.00     0.102 C 
HETATM   12  S   UNL     1      64.604   4.796   5.898  1.00  0.00    -0.060 SA
HETATM   13  N   UNL     1      64.728   7.101   7.097  1.00  0.00    -0.390 N 
HETATM   14  H   UNL     1      64.581   8.072   7.181  1.00  0.00     0.157 HD
HETATM   15  H   UNL     1      65.169   6.606   7.824  1.00  0.00     0.157 HD
ENDBRANCH   1  11
TORSDOF 1
ENDMDL
MODEL 4
REMARK VINA RESULT:      -5.0      3.387      5.191
REMARK  1 active torsions:
REMARK  status: ('A' for Active; 'I' for Inactive)
REMARK    1  A    between atoms: C_1  and  C_3 
ROOT
HETATM    1  C   UNL     1      63.658   8.909   5.371  1.00  0.00     0.004 C 
HETATM    2  C   UNL     1      64.932   8.693   5.005  1.00  0.00     0.026 C 
HETATM    3  O   UNL     1      63.698   6.942   6.902  1.00  0.00    -0.346 OA
HETATM    4  C   UNL     1      65.550   7.434   5.411  1.00  0.00    -0.002 A 
HETATM    5  C   UNL     1      62.894   7.864   6.146  1.00  0.00     0.217 C 
HETATM    6  C   UNL     1      64.905   6.618   6.345  1.00  0.00     0.079 A 
HETATM    7  C   UNL     1      66.799   7.046   4.913  1.00  0.00     0.014 A 
HETATM    8  C   UNL     1      65.503   5.441   6.793  1.00  0.00     0.037 A 
HETATM    9  C   UNL     1      67.392   5.858   5.348  1.00  0.00     0.001 A 
HETATM   10  C   UNL     1      66.745   5.057   6.290  1.00  0.00     0.003 A 
ENDROOT
BRANCH   1  11
HETATM   11  C   UNL     1      62.943  10.160   4.973  1.00  0.00     0.102 C 
HETATM   12  S   UNL     1      61.927  10.353   3.657  1.00  0.00    -0.060 SA
HETATM   13  N   UNL     1      63.109  11.233   5.801  1.00  0.00    -0.390 N 
HETATM   14  H   UNL     1      63.698  11.161   6.587  1.00  0.00     0.157 HD
HETATM   15  H   UNL     1      62.641  12.077   5.612  1.00  0.00     0.157 HD
ENDBRANCH   1  11
TORSDOF 1
ENDMDL
MODEL 5
REMARK VINA RESULT:      -4.8      2.325      2.490
REMARK  1 active torsions:
REMARK  status: ('A' for Active; 'I' for Inactive)
REMARK    1  A    between atoms: C_1  and  C_3 
ROOT
HETATM    1  C   UNL     1      65.690   6.971   6.892  1.00  0.00     0.004 C 
HETATM    2  C   UNL     1      64.450   6.511   6.658  1.00  0.00     0.026 C 
HETATM    3  O   UNL     1      65.212   9.077   5.645  1.00  0.00    -0.346 OA
HETATM    4  C   UNL     1      63.627   7.238   5.695  1.00  0.00    -0.002 A 
HETATM    5  C   UNL     1      66.214   8.177   6.151  1.00  0.00     0.217 C 
HETATM    6  C   UNL     1      64.046   8.489   5.235  1.00  0.00     0.079 A 
HETATM    7  C   UNL     1      62.404   6.721   5.252  1.00  0.00     0.014 A 
HETATM    8  C   UNL     1      63.248   9.229   4.362  1.00  0.00     0.037 A 
HETATM    9  C   UNL     1      61.613   7.453   4.363  1.00  0.00     0.001 A 
HETATM   10  C   UNL     1      62.033   8.708   3.920  1.00  0.00     0.003 A 
ENDROOT
BRANCH   1  11
HETATM   11  C   UNL     1      66.606   6.270   7.842  1.00  0.00     0.102 C 
HETATM   12  S   UNL     1      66.785   4.616   8.021  1.00  0.00    -0.060 SA
HETATM   13  N   UNL     1      67.405   7.075   8.604  1.00  0.00    -0.390 N 
HETATM   14  H   UNL     1      67.333   8.054   8.528  1.00  0.00     0.157 HD
HETATM   15  H   UNL     1      68.053   6.676   9.227  1.00  0.00     0.157 HD
ENDBRANCH   1  11
TORSDOF 1
ENDMDL
MODEL 6
REMARK VINA RESULT:      -4.3      3.597      5.005
REMARK  1 active torsions:
REMARK  status: ('A' for Active; 'I' for Inactive)
REMARK    1  A    between atoms: C_1  and  C_3 
ROOT
HETATM    1  C   UNL     1      62.175   7.790   4.553  1.00  0.00     0.004 C 
HETATM    2  C   UNL     1      63.401   8.298   4.351  1.00  0.00     0.026 C 
HETATM    3  O   UNL     1      62.903   6.710   6.678  1.00  0.00    -0.346 OA
HETATM    4  C   UNL     1      64.484   7.817   5.205  1.00  0.00    -0.002 A 
HETATM    5  C   UNL     1      61.944   6.735   5.606  1.00  0.00     0.217 C 
HETATM    6  C   UNL     1      64.183   7.047   6.331  1.00  0.00     0.079 A 
HETATM    7  C   UNL     1      65.817   8.147   4.938  1.00  0.00     0.014 A 
HETATM    8  C   UNL     1      65.195   6.627   7.195  1.00  0.00     0.037 A 
HETATM    9  C   UNL     1      66.834   7.711   5.792  1.00  0.00     0.001 A 
HETATM   10  C   UNL     1      66.522   6.954   6.922  1.00  0.00     0.003 A 
ENDROOT
BRANCH   1  11
HETATM   11  C   UNL     1      61.017   8.208   3.705  1.00  0.00     0.102 C 
HETATM   12  S   UNL     1      59.557   7.406   3.542  1.00  0.00    -0.060 SA
HETATM   13  N   UNL     1      61.162   9.389   3.035  1.00  0.00    -0.390 N 
HETATM   14  H   UNL     1      62.005   9.894   3.105  1.00  0.00     0.157 HD
HETATM   15  H   UNL     1      60.425   9.737   2.484  1.00  0.00     0.157 HD
ENDBRANCH   1  11
TORSDOF 1
ENDMDL
MODEL 7
REMARK VINA RESULT:      -4.0      3.773      5.266
REMARK  1 active torsions:
REMARK  status: ('A' for Active; 'I' for Inactive)
REMARK    1  A    between atoms: C_1  and  C_3 
ROOT
HETATM    1  C   UNL     1      62.298   7.727   2.813  1.00  0.00     0.004 C 
HETATM    2  C   UNL     1      62.865   8.260   3.907  1.00  0.00     0.026 C 
HETATM    3  O   UNL     1      64.136   6.056   2.598  1.00  0.00    -0.346 OA
HETATM    4  C   UNL     1      64.226   7.846   4.236  1.00  0.00    -0.002 A 
HETATM    5  C   UNL     1      63.064   6.759   1.945  1.00  0.00     0.217 C 
HETATM    6  C   UNL     1      64.797   6.760   3.567  1.00  0.00     0.079 A 
HETATM    7  C   UNL     1      64.957   8.492   5.240  1.00  0.00     0.014 A 
HETATM    8  C   UNL     1      66.072   6.307   3.907  1.00  0.00     0.037 A 
HETATM    9  C   UNL     1      66.242   8.051   5.568  1.00  0.00     0.001 A 
HETATM   10  C   UNL     1      66.798   6.957   4.903  1.00  0.00     0.003 A 
ENDROOT
BRANCH   1  11
HETATM   11  C   UNL     1      60.919   8.118   2.390  1.00  0.00     0.102 C 
HETATM   12  S   UNL     1      60.336   8.186   0.823  1.00  0.00    -0.060 SA
HETATM   13  N   UNL     1      60.043   8.403   3.398  1.00  0.00    -0.390 N 
HETATM   14  H   UNL     1      60.344   8.374   4.335  1.00  0.00     0.157 HD
HETATM   15  H   UNL     1      59.110   8.638   3.189  1.00  0.00     0.157 HD
ENDBRANCH   1  11
TORSDOF 1
ENDMDL
MODEL 8
REMARK VINA RESULT:      -4.0      1.885      2.001
REMARK  1 active torsions:
REMARK  status: ('A' for Active; 'I' for Inactive)
REMARK    1  A    between atoms: C_1  and  C_3 
ROOT
HETATM    1  C   UNL     1      63.883   6.114   4.168  1.00  0.00     0.004 C 
HETATM    2  C   UNL     1      63.157   6.792   3.264  1.00  0.00     0.026 C 
HETATM    3  O   UNL     1      63.698   7.979   5.811  1.00  0.00    -0.346 OA
HETATM    4  C   UNL     1      62.881   8.200   3.535  1.00  0.00    -0.002 A 
HETATM    5  C   UNL     1      64.418   6.805   5.398  1.00  0.00     0.217 C 
HETATM    6  C   UNL     1      63.161   8.728   4.798  1.00  0.00     0.079 A 
HETATM    7  C   UNL     1      62.301   9.023   2.564  1.00  0.00     0.014 A 
HETATM    8  C   UNL     1      62.850  10.054   5.099  1.00  0.00     0.037 A 
HETATM    9  C   UNL     1      62.006  10.357   2.858  1.00  0.00     0.001 A 
HETATM   10  C   UNL     1      62.278  10.871   4.127  1.00  0.00     0.003 A 
ENDROOT
BRANCH   1  11
HETATM   11  C   UNL     1      64.235   4.677   3.954  1.00  0.00     0.102 C 
HETATM   12  S   UNL     1      65.187   3.723   4.947  1.00  0.00    -0.060 SA
HETATM   13  N   UNL     1      63.680   4.082   2.857  1.00  0.00    -0.390 N 
HETATM   14  H   UNL     1      63.111   4.607   2.247  1.00  0.00     0.157 HD
HETATM   15  H   UNL     1      63.846   3.130   2.676  1.00  0.00     0.157 HD
ENDBRANCH   1  11
TORSDOF 1
ENDMDL
MODEL 9
REMARK VINA RESULT:      -3.9     14.443     14.877
REMARK  1 active torsions:
REMARK  status: ('A' for Active; 'I' for Inactive)
REMARK    1  A    between atoms: C_1  and  C_3 
ROOT
HETATM    1  C   UNL     1      54.410   2.081  13.898  1.00  0.00     0.004 C 
HETATM    2  C   UNL     1      55.303   1.130  14.215  1.00  0.00     0.026 C 
HETATM    3  O   UNL     1      56.004   3.130  12.293  1.00  0.00    -0.346 OA
HETATM    4  C   UNL     1      56.674   1.302  13.743  1.00  0.00    -0.002 A 
HETATM    5  C   UNL     1      54.831   3.297  13.109  1.00  0.00     0.217 C 
HETATM    6  C   UNL     1      56.960   2.293  12.800  1.00  0.00     0.079 A 
HETATM    7  C   UNL     1      57.703   0.464  14.187  1.00  0.00     0.014 A 
HETATM    8  C   UNL     1      58.250   2.437  12.289  1.00  0.00     0.037 A 
HETATM    9  C   UNL     1      59.000   0.619  13.690  1.00  0.00     0.001 A 
HETATM   10  C   UNL     1      59.273   1.603  12.739  1.00  0.00     0.003 A 
ENDROOT
BRANCH   1  11
HETATM   11  C   UNL     1      52.993   1.996  14.365  1.00  0.00     0.102 C 
HETATM   12  S   UNL     1      52.121   0.599  14.662  1.00  0.00    -0.060 SA
HETATM   13  N   UNL     1      52.373   3.188  14.612  1.00  0.00    -0.390 N 
HETATM   14  H   UNL     1      52.850   4.034  14.452  1.00  0.00     0.157 HD
HETATM   15  H   UNL     1      51.449   3.201  14.951  1.00  0.00     0.157 HD
ENDBRANCH   1  11
TORSDOF 1
ENDMDL
