MODEL 1
REMARK VINA RESULT:      -6.0      0.000      0.000
REMARK  2 active torsions:
REMARK  status: ('A' for Active; 'I' for Inactive)
REMARK    1  A    between atoms: C_1  and  C_2 
REMARK    2  A    between atoms: C_4  and  C_8 
ROOT
HETATM    1  C   UNL     1      65.083   7.563   6.108  1.00  0.00     0.057 A 
HETATM    2  C   UNL     1      64.568   8.506   5.209  1.00  0.00     0.033 A 
HETATM    3  C   UNL     1      63.247   8.404   4.741  1.00  0.00    -0.009 A 
HETATM    4  N   UNL     1      62.969   6.405   6.130  1.00  0.00    -0.373 N 
ATOM      5  HN  UNL     1      62.377   5.647   6.471  1.00  0.00     0.164 HD
HETATM    6  C   UNL     1      64.249   6.543   6.538  1.00  0.00     0.106 A 
HETATM    7  C   UNL     1      62.510   7.326   5.245  1.00  0.00     0.100 A 
ENDROOT
BRANCH   3   8
HETATM    8  C   UNL     1      62.676   9.354   3.757  1.00  0.00    -0.025 A 
HETATM    9  C   UNL     1      62.347  10.676   4.117  1.00  0.00     0.012 A 
HETATM   10  C   UNL     1      61.838  11.585   3.183  1.00  0.00     0.001 A 
HETATM   11  C   UNL     1      61.651  11.196   1.861  1.00  0.00     0.000 A 
HETATM   12  C   UNL     1      61.959   9.897   1.477  1.00  0.00     0.001 A 
HETATM   13  C   UNL     1      62.457   8.986   2.415  1.00  0.00     0.012 A 
ENDBRANCH   3   8
BRANCH   1  14
HETATM   14  C   UNL     1      66.470   7.592   6.608  1.00  0.00     0.210 C 
HETATM   15  O   UNL     1      67.226   6.641   6.665  1.00  0.00    -0.644 OA
HETATM   16  O   UNL     1      66.854   8.818   7.002  1.00  0.00    -0.644 OA
ENDBRANCH   1  14
TORSDOF 2
ENDMDL
MODEL 2
REMARK VINA RESULT:      -5.6      2.961      5.565
REMARK  2 active torsions:
REMARK  status: ('A' for Active; 'I' for Inactive)
REMARK    1  A    between atoms: C_1  and  C_2 
REMARK    2  A    between atoms: C_4  and  C_8 
ROOT
HETATM    1  C   UNL     1      62.240   9.910   3.720  1.00  0.00     0.057 A 
HETATM    2  C   UNL     1      63.377   9.499   4.429  1.00  0.00     0.033 A 
HETATM    3  C   UNL     1      63.528   8.160   4.828  1.00  0.00    -0.009 A 
HETATM    4  N   UNL     1      61.384   7.657   3.753  1.00  0.00    -0.373 N 
ATOM      5  HN  UNL     1      60.666   6.977   3.501  1.00  0.00     0.164 HD
HETATM    6  C   UNL     1      61.283   8.958   3.405  1.00  0.00     0.106 A 
HETATM    7  C   UNL     1      62.490   7.299   4.455  1.00  0.00     0.100 A 
ENDROOT
BRANCH   3   8
HETATM    8  C   UNL     1      64.693   7.692   5.615  1.00  0.00    -0.025 A 
HETATM    9  C   UNL     1      65.983   8.217   5.402  1.00  0.00     0.012 A 
HETATM   10  C   UNL     1      67.079   7.800   6.166  1.00  0.00     0.001 A 
HETATM   11  C   UNL     1      66.911   6.851   7.168  1.00  0.00     0.000 A 
HETATM   12  C   UNL     1      65.652   6.309   7.397  1.00  0.00     0.001 A 
HETATM   13  C   UNL     1      64.559   6.719   6.624  1.00  0.00     0.012 A 
ENDBRANCH   3   8
BRANCH   1  14
HETATM   14  C   UNL     1      62.002  11.305   3.305  1.00  0.00     0.210 C 
HETATM   15  O   UNL     1      61.952  11.708   2.159  1.00  0.00    -0.644 OA
HETATM   16  O   UNL     1      61.824  12.133   4.348  1.00  0.00    -0.644 OA
ENDBRANCH   1  14
TORSDOF 2
ENDMDL
MODEL 3
REMARK VINA RESULT:      -5.4      2.146      3.195
REMARK  2 active torsions:
REMARK  status: ('A' for Active; 'I' for Inactive)
REMARK    1  A    between atoms: C_1  and  C_2 
REMARK    2  A    between atoms: C_4  and  C_8 
ROOT
HETATM    1  C   UNL     1      66.472   6.534   7.171  1.00  0.00     0.057 A 
HETATM    2  C   UNL     1      65.341   7.101   6.566  1.00  0.00     0.033 A 
HETATM    3  C   UNL     1      65.410   7.623   5.264  1.00  0.00    -0.009 A 
HETATM    4  N   UNL     1      67.767   6.959   5.183  1.00  0.00    -0.373 N 
ATOM      5  HN  UNL     1      68.646   6.901   4.669  1.00  0.00     0.164 HD
HETATM    6  C   UNL     1      67.649   6.483   6.441  1.00  0.00     0.106 A 
HETATM    7  C   UNL     1      66.657   7.518   4.637  1.00  0.00     0.100 A 
ENDROOT
BRANCH   3   8
HETATM    8  C   UNL     1      64.251   8.269   4.604  1.00  0.00    -0.025 A 
HETATM    9  C   UNL     1      63.635   7.697   3.474  1.00  0.00     0.012 A 
HETATM   10  C   UNL     1      62.521   8.288   2.868  1.00  0.00     0.001 A 
HETATM   11  C   UNL     1      61.988   9.465   3.383  1.00  0.00     0.000 A 
HETATM   12  C   UNL     1      62.578  10.058   4.494  1.00  0.00     0.001 A 
HETATM   13  C   UNL     1      63.700   9.471   5.091  1.00  0.00     0.012 A 
ENDBRANCH   3   8
BRANCH   1  14
HETATM   14  C   UNL     1      66.476   6.003   8.546  1.00  0.00     0.210 C 
HETATM   15  O   UNL     1      66.675   6.647   9.558  1.00  0.00    -0.644 OA
HETATM   16  O   UNL     1      66.216   4.685   8.594  1.00  0.00    -0.644 OA
ENDBRANCH   1  14
TORSDOF 2
ENDMDL
MODEL 4
REMARK VINA RESULT:      -5.2      3.381      5.850
REMARK  2 active torsions:
REMARK  status: ('A' for Active; 'I' for Inactive)
REMARK    1  A    between atoms: C_1  and  C_2 
REMARK    2  A    between atoms: C_4  and  C_8 
ROOT
HETATM    1  C   UNL     1      62.210   9.318   2.735  1.00  0.00     0.057 A 
HETATM    2  C   UNL     1      63.102   8.462   3.395  1.00  0.00     0.033 A 
HETATM    3  C   UNL     1      63.641   8.811   4.644  1.00  0.00    -0.009 A 
HETATM    4  N   UNL     1      62.336  10.884   4.563  1.00  0.00    -0.373 N 
ATOM      5  HN  UNL     1      62.052  11.761   5.000  1.00  0.00     0.164 HD
HETATM    6  C   UNL     1      61.858  10.504   3.358  1.00  0.00     0.106 A 
HETATM    7  C   UNL     1      63.212  10.038   5.164  1.00  0.00     0.100 A 
ENDROOT
BRANCH   3   8
HETATM    8  C   UNL     1      64.620   7.956   5.355  1.00  0.00    -0.025 A 
HETATM    9  C   UNL     1      66.002   8.056   5.105  1.00  0.00     0.012 A 
HETATM   10  C   UNL     1      66.931   7.272   5.799  1.00  0.00     0.001 A 
HETATM   11  C   UNL     1      66.500   6.371   6.766  1.00  0.00     0.000 A 
HETATM   12  C   UNL     1      65.142   6.244   7.031  1.00  0.00     0.001 A 
HETATM   13  C   UNL     1      64.214   7.021   6.328  1.00  0.00     0.012 A 
ENDBRANCH   3   8
BRANCH   1  14
HETATM   14  C   UNL     1      61.639   9.028   1.407  1.00  0.00     0.210 C 
HETATM   15  O   UNL     1      60.492   8.693   1.183  1.00  0.00    -0.644 OA
HETATM   16  O   UNL     1      62.530   9.186   0.413  1.00  0.00    -0.644 OA
ENDBRANCH   1  14
TORSDOF 2
ENDMDL
MODEL 5
REMARK VINA RESULT:      -4.9      2.570      3.445
REMARK  2 active torsions:
REMARK  status: ('A' for Active; 'I' for Inactive)
REMARK    1  A    between atoms: C_1  and  C_2 
REMARK    2  A    between atoms: C_4  and  C_8 
ROOT
HETATM    1  C   UNL     1      62.478   5.905   5.806  1.00  0.00     0.057 A 
HETATM    2  C   UNL     1      62.087   6.905   4.906  1.00  0.00     0.033 A 
HETATM    3  C   UNL     1      62.950   7.970   4.599  1.00  0.00    -0.009 A 
HETATM    4  N   UNL     1      64.617   6.978   6.096  1.00  0.00    -0.373 N 
ATOM      5  HN  UNL     1      65.545   7.004   6.519  1.00  0.00     0.164 HD
HETATM    6  C   UNL     1      63.743   5.983   6.365  1.00  0.00     0.106 A 
HETATM    7  C   UNL     1      64.197   7.939   5.234  1.00  0.00     0.100 A 
ENDROOT
BRANCH   3   8
HETATM    8  C   UNL     1      62.561   9.071   3.686  1.00  0.00    -0.025 A 
HETATM    9  C   UNL     1      62.416   8.861   2.300  1.00  0.00     0.012 A 
HETATM   10  C   UNL     1      62.018   9.891   1.441  1.00  0.00     0.001 A 
HETATM   11  C   UNL     1      61.747  11.158   1.947  1.00  0.00     0.000 A 
HETATM   12  C   UNL     1      61.888  11.398   3.309  1.00  0.00     0.001 A 
HETATM   13  C   UNL     1      62.298  10.369   4.165  1.00  0.00     0.012 A 
ENDBRANCH   3   8
BRANCH   1  14
HETATM   14  C   UNL     1      61.607   4.782   6.199  1.00  0.00     0.210 C 
HETATM   15  O   UNL     1      60.391   4.775   6.160  1.00  0.00    -0.644 OA
HETATM   16  O   UNL     1      62.301   3.707   6.612  1.00  0.00    -0.644 OA
ENDBRANCH   1  14
TORSDOF 2
ENDMDL
MODEL 6
REMARK VINA RESULT:      -4.7      2.018      2.771
REMARK  2 active torsions:
REMARK  status: ('A' for Active; 'I' for Inactive)
REMARK    1  A    between atoms: C_1  and  C_2 
REMARK    2  A    between atoms: C_4  and  C_8 
ROOT
HETATM    1  C   UNL     1      65.652   6.450   5.189  1.00  0.00     0.057 A 
HETATM    2  C   UNL     1      64.810   6.647   4.086  1.00  0.00     0.033 A 
HETATM    3  C   UNL     1      64.063   7.830   3.958  1.00  0.00    -0.009 A 
HETATM    4  N   UNL     1      65.059   8.620   6.053  1.00  0.00    -0.373 N 
ATOM      5  HN  UNL     1      65.153   9.348   6.761  1.00  0.00     0.164 HD
HETATM    6  C   UNL     1      65.745   7.459   6.133  1.00  0.00     0.106 A 
HETATM    7  C   UNL     1      64.238   8.769   4.981  1.00  0.00     0.100 A 
ENDROOT
BRANCH   3   8
HETATM    8  C   UNL     1      63.128   8.061   2.831  1.00  0.00    -0.025 A 
HETATM    9  C   UNL     1      62.926   7.089   1.832  1.00  0.00     0.012 A 
HETATM   10  C   UNL     1      62.020   7.292   0.785  1.00  0.00     0.001 A 
HETATM   11  C   UNL     1      61.288   8.472   0.713  1.00  0.00     0.000 A 
HETATM   12  C   UNL     1      61.471   9.454   1.680  1.00  0.00     0.001 A 
HETATM   13  C   UNL     1      62.386   9.254   2.720  1.00  0.00     0.012 A 
ENDBRANCH   3   8
BRANCH   1  14
HETATM   14  C   UNL     1      66.434   5.217   5.402  1.00  0.00     0.210 C 
HETATM   15  O   UNL     1      66.232   4.387   6.267  1.00  0.00    -0.644 OA
HETATM   16  O   UNL     1      67.429   5.074   4.511  1.00  0.00    -0.644 OA
ENDBRANCH   1  14
TORSDOF 2
ENDMDL
MODEL 7
REMARK VINA RESULT:      -4.7      2.159      2.797
REMARK  2 active torsions:
REMARK  status: ('A' for Active; 'I' for Inactive)
REMARK    1  A    between atoms: C_1  and  C_2 
REMARK    2  A    between atoms: C_4  and  C_8 
ROOT
HETATM    1  C   UNL     1      65.331   7.061   5.200  1.00  0.00     0.057 A 
HETATM    2  C   UNL     1      64.268   7.533   4.419  1.00  0.00     0.033 A 
HETATM    3  C   UNL     1      63.978   6.950   3.174  1.00  0.00    -0.009 A 
HETATM    4  N   UNL     1      65.829   5.386   3.539  1.00  0.00    -0.373 N 
ATOM      5  HN  UNL     1      66.388   4.595   3.218  1.00  0.00     0.164 HD
HETATM    6  C   UNL     1      66.071   5.991   4.722  1.00  0.00     0.106 A 
HETATM    7  C   UNL     1      64.803   5.883   2.801  1.00  0.00     0.100 A 
ENDROOT
BRANCH   3   8
HETATM    8  C   UNL     1      62.891   7.446   2.297  1.00  0.00    -0.025 A 
HETATM    9  C   UNL     1      62.183   6.579   1.442  1.00  0.00     0.012 A 
HETATM   10  C   UNL     1      61.135   7.039   0.637  1.00  0.00     0.001 A 
HETATM   11  C   UNL     1      60.763   8.378   0.672  1.00  0.00     0.000 A 
HETATM   12  C   UNL     1      61.447   9.259   1.501  1.00  0.00     0.001 A 
HETATM   13  C   UNL     1      62.503   8.800   2.297  1.00  0.00     0.012 A 
ENDBRANCH   3   8
BRANCH   1  14
HETATM   14  C   UNL     1      65.711   7.652   6.497  1.00  0.00     0.210 C 
HETATM   15  O   UNL     1      65.644   7.100   7.578  1.00  0.00    -0.644 OA
HETATM   16  O   UNL     1      66.172   8.909   6.378  1.00  0.00    -0.644 OA
ENDBRANCH   1  14
TORSDOF 2
ENDMDL
MODEL 8
REMARK VINA RESULT:      -4.7      3.400      4.380
REMARK  2 active torsions:
REMARK  status: ('A' for Active; 'I' for Inactive)
REMARK    1  A    between atoms: C_1  and  C_2 
REMARK    2  A    between atoms: C_4  and  C_8 
ROOT
HETATM    1  C   UNL     1      62.700   9.599   4.390  1.00  0.00     0.057 A 
HETATM    2  C   UNL     1      61.558   9.153   3.712  1.00  0.00     0.033 A 
HETATM    3  C   UNL     1      61.577   7.946   2.992  1.00  0.00    -0.009 A 
HETATM    4  N   UNL     1      63.907   7.635   3.685  1.00  0.00    -0.373 N 
ATOM      5  HN  UNL     1      64.757   7.072   3.680  1.00  0.00     0.164 HD
HETATM    6  C   UNL     1      63.837   8.809   4.351  1.00  0.00     0.106 A 
HETATM    7  C   UNL     1      62.787   7.244   3.024  1.00  0.00     0.100 A 
ENDROOT
BRANCH   3   8
HETATM    8  C   UNL     1      60.406   7.459   2.226  1.00  0.00    -0.025 A 
HETATM    9  C   UNL     1      59.098   7.556   2.740  1.00  0.00     0.012 A 
HETATM   10  C   UNL     1      57.987   7.127   2.005  1.00  0.00     0.001 A 
HETATM   11  C   UNL     1      58.156   6.594   0.732  1.00  0.00     0.000 A 
HETATM   12  C   UNL     1      59.435   6.478   0.200  1.00  0.00     0.001 A 
HETATM   13  C   UNL     1      60.546   6.897   0.942  1.00  0.00     0.012 A 
ENDBRANCH   3   8
BRANCH   1  14
HETATM   14  C   UNL     1      62.757  10.872   5.132  1.00  0.00     0.210 C 
HETATM   15  O   UNL     1      63.410  11.083   6.136  1.00  0.00    -0.644 OA
HETATM   16  O   UNL     1      62.003  11.834   4.572  1.00  0.00    -0.644 OA
ENDBRANCH   1  14
TORSDOF 2
ENDMDL
MODEL 9
REMARK VINA RESULT:      -4.6      8.698     11.059
REMARK  2 active torsions:
REMARK  status: ('A' for Active; 'I' for Inactive)
REMARK    1  A    between atoms: C_1  and  C_2 
REMARK    2  A    between atoms: C_4  and  C_8 
ROOT
HETATM    1  C   UNL     1      58.476   4.585   8.932  1.00  0.00     0.057 A 
HETATM    2  C   UNL     1      58.546   3.970  10.190  1.00  0.00     0.033 A 
HETATM    3  C   UNL     1      57.973   2.706  10.403  1.00  0.00    -0.009 A 
HETATM    4  N   UNL     1      57.291   2.680   8.049  1.00  0.00    -0.373 N 
ATOM      5  HN  UNL     1      56.841   2.200   7.270  1.00  0.00     0.164 HD
HETATM    6  C   UNL     1      57.848   3.902   7.903  1.00  0.00     0.106 A 
HETATM    7  C   UNL     1      57.362   2.124   9.286  1.00  0.00     0.100 A 
ENDROOT
BRANCH   3   8
HETATM    8  C   UNL     1      57.987   2.039  11.727  1.00  0.00    -0.025 A 
HETATM    9  C   UNL     1      59.142   2.030  12.533  1.00  0.00     0.012 A 
HETATM   10  C   UNL     1      59.149   1.430  13.797  1.00  0.00     0.001 A 
HETATM   11  C   UNL     1      57.996   0.828  14.290  1.00  0.00     0.000 A 
HETATM   12  C   UNL     1      56.843   0.814  13.515  1.00  0.00     0.001 A 
HETATM   13  C   UNL     1      56.842   1.405  12.246  1.00  0.00     0.012 A 
ENDBRANCH   3   8
BRANCH   1  14
HETATM   14  C   UNL     1      59.023   5.925   8.652  1.00  0.00     0.210 C 
HETATM   15  O   UNL     1      59.966   6.172   7.925  1.00  0.00    -0.644 OA
HETATM   16  O   UNL     1      58.353   6.902   9.287  1.00  0.00    -0.644 OA
ENDBRANCH   1  14
TORSDOF 2
ENDMDL
