MODEL 1
REMARK VINA RESULT:      -4.6      0.000      0.000
REMARK  3 active torsions:
REMARK  status: ('A' for Active; 'I' for Inactive)
REMARK    1  A    between atoms: N_1  and  C_2 
REMARK    2  A    between atoms: C_11  and  C_13 
REMARK    3  A    between atoms: N_12  and  C_13 
ROOT
HETATM    1  C   UNL     1      64.135   8.145   4.981  1.00  0.00     0.038 A 
HETATM    2  C   UNL     1      63.495   9.373   5.201  1.00  0.00     0.030 A 
HETATM    3  C   UNL     1      63.920   7.484   3.764  1.00  0.00     0.030 A 
HETATM    4  C   UNL     1      63.091   8.045   2.788  1.00  0.00     0.011 A 
HETATM    5  C   UNL     1      62.668   9.933   4.218  1.00  0.00     0.011 A 
HETATM    6  C   UNL     1      62.462   9.276   2.999  1.00  0.00    -0.033 A 
ENDROOT
BRANCH   1   7
HETATM    7  N   UNL     1      64.999   7.581   5.972  1.00  0.00    -0.333 N 
HETATM    8  C   UNL     1      64.701   6.542   6.838  1.00  0.00     0.096 A 
HETATM    9  C   UNL     1      65.783   6.301   7.657  1.00  0.00     0.019 A 
HETATM   10  C   UNL     1      66.791   7.210   7.292  1.00  0.00     0.019 A 
HETATM   11  C   UNL     1      66.295   7.976   6.260  1.00  0.00     0.096 A 
ENDBRANCH   1   7
BRANCH   6  12
HETATM   12  C   UNL     1      61.574   9.872   1.936  1.00  0.00     0.268 C 
BRANCH  12  13
HETATM   13  N   UNL     1      61.474  11.320   2.073  1.00  0.00    -0.075 N 
HETATM   14  H   UNL     1      60.788  11.678   1.408  1.00  0.00     0.274 HD
HETATM   15  H   UNL     1      62.383  11.743   1.884  1.00  0.00     0.274 HD
HETATM   16  H   UNL     1      61.183  11.552   3.023  1.00  0.00     0.274 HD
ENDBRANCH  12  13
ENDBRANCH   6  12
TORSDOF 3
ENDMDL
MODEL 2
REMARK VINA RESULT:      -4.6      0.171      1.695
REMARK  3 active torsions:
REMARK  status: ('A' for Active; 'I' for Inactive)
REMARK    1  A    between atoms: N_1  and  C_2 
REMARK    2  A    between atoms: C_11  and  C_13 
REMARK    3  A    between atoms: N_12  and  C_13 
ROOT
HETATM    1  C   UNL     1      64.214   8.036   4.986  1.00  0.00     0.038 A 
HETATM    2  C   UNL     1      63.997   7.325   3.796  1.00  0.00     0.030 A 
HETATM    3  C   UNL     1      63.587   9.279   5.150  1.00  0.00     0.030 A 
HETATM    4  C   UNL     1      62.756   9.792   4.150  1.00  0.00     0.011 A 
HETATM    5  C   UNL     1      63.160   7.843   2.799  1.00  0.00     0.011 A 
HETATM    6  C   UNL     1      62.527   9.079   2.968  1.00  0.00    -0.033 A 
ENDROOT
BRANCH   1   7
HETATM    7  N   UNL     1      65.049   7.501   6.017  1.00  0.00    -0.333 N 
HETATM    8  C   UNL     1      66.318   7.934   6.365  1.00  0.00     0.096 A 
HETATM    9  C   UNL     1      66.805   7.153   7.392  1.00  0.00     0.019 A 
HETATM   10  C   UNL     1      65.813   6.207   7.700  1.00  0.00     0.019 A 
HETATM   11  C   UNL     1      64.750   6.440   6.855  1.00  0.00     0.096 A 
ENDBRANCH   1   7
BRANCH   6  12
HETATM   12  C   UNL     1      61.624   9.642   1.900  1.00  0.00     0.268 C 
BRANCH  12  13
HETATM   13  N   UNL     1      61.403  11.071   2.086  1.00  0.00    -0.075 N 
HETATM   14  H   UNL     1      61.324  11.276   3.083  1.00  0.00     0.274 HD
HETATM   15  H   UNL     1      60.543  11.347   1.613  1.00  0.00     0.274 HD
HETATM   16  H   UNL     1      62.188  11.590   1.693  1.00  0.00     0.274 HD
ENDBRANCH  12  13
ENDBRANCH   6  12
TORSDOF 3
ENDMDL
MODEL 3
REMARK VINA RESULT:      -4.5      1.543      5.663
REMARK  3 active torsions:
REMARK  status: ('A' for Active; 'I' for Inactive)
REMARK    1  A    between atoms: N_1  and  C_2 
REMARK    2  A    between atoms: C_11  and  C_13 
REMARK    3  A    between atoms: N_12  and  C_13 
ROOT
HETATM    1  C   UNL     1      64.303   8.171   5.295  1.00  0.00     0.038 A 
HETATM    2  C   UNL     1      65.678   8.447   5.274  1.00  0.00     0.030 A 
HETATM    3  C   UNL     1      63.840   7.126   6.107  1.00  0.00     0.030 A 
HETATM    4  C   UNL     1      64.733   6.381   6.884  1.00  0.00     0.011 A 
HETATM    5  C   UNL     1      66.568   7.700   6.058  1.00  0.00     0.011 A 
HETATM    6  C   UNL     1      66.103   6.663   6.875  1.00  0.00    -0.033 A 
ENDROOT
BRANCH   1   7
HETATM    7  N   UNL     1      63.389   8.946   4.515  1.00  0.00    -0.333 N 
HETATM    8  C   UNL     1      62.913   8.641   3.250  1.00  0.00     0.096 A 
HETATM    9  C   UNL     1      62.067   9.643   2.823  1.00  0.00     0.019 A 
HETATM   10  C   UNL     1      62.006  10.601   3.850  1.00  0.00     0.019 A 
HETATM   11  C   UNL     1      62.814  10.154   4.873  1.00  0.00     0.096 A 
ENDBRANCH   1   7
BRANCH   6  12
HETATM   12  C   UNL     1      67.054   5.856   7.722  1.00  0.00     0.268 C 
BRANCH  12  13
HETATM   13  N   UNL     1      67.748   6.694   8.692  1.00  0.00    -0.075 N 
HETATM   14  H   UNL     1      68.010   7.577   8.252  1.00  0.00     0.274 HD
HETATM   15  H   UNL     1      68.588   6.214   9.016  1.00  0.00     0.274 HD
HETATM   16  H   UNL     1      67.134   6.876   9.484  1.00  0.00     0.274 HD
ENDBRANCH  12  13
ENDBRANCH   6  12
TORSDOF 3
ENDMDL
MODEL 4
REMARK VINA RESULT:      -4.5      1.530      5.721
REMARK  3 active torsions:
REMARK  status: ('A' for Active; 'I' for Inactive)
REMARK    1  A    between atoms: N_1  and  C_2 
REMARK    2  A    between atoms: C_11  and  C_13 
REMARK    3  A    between atoms: N_12  and  C_13 
ROOT
HETATM    1  C   UNL     1      64.226   8.218   5.304  1.00  0.00     0.038 A 
HETATM    2  C   UNL     1      63.762   7.130   6.057  1.00  0.00     0.030 A 
HETATM    3  C   UNL     1      65.579   8.573   5.401  1.00  0.00     0.030 A 
HETATM    4  C   UNL     1      66.446   7.850   6.225  1.00  0.00     0.011 A 
HETATM    5  C   UNL     1      64.636   6.405   6.878  1.00  0.00     0.011 A 
HETATM    6  C   UNL     1      65.988   6.755   6.967  1.00  0.00    -0.033 A 
ENDROOT
BRANCH   1   7
HETATM    7  N   UNL     1      63.343   8.946   4.446  1.00  0.00    -0.333 N 
HETATM    8  C   UNL     1      62.730  10.157   4.722  1.00  0.00     0.096 A 
HETATM    9  C   UNL     1      61.937  10.525   3.655  1.00  0.00     0.019 A 
HETATM   10  C   UNL     1      62.060   9.519   2.680  1.00  0.00     0.019 A 
HETATM   11  C   UNL     1      62.924   8.570   3.180  1.00  0.00     0.096 A 
ENDBRANCH   1   7
BRANCH   6  12
HETATM   12  C   UNL     1      66.935   5.981   7.848  1.00  0.00     0.268 C 
BRANCH  12  13
HETATM   13  N   UNL     1      66.220   5.043   8.706  1.00  0.00    -0.075 N 
HETATM   14  H   UNL     1      65.368   5.483   9.053  1.00  0.00     0.274 HD
HETATM   15  H   UNL     1      66.813   4.783   9.493  1.00  0.00     0.274 HD
HETATM   16  H   UNL     1      65.979   4.209   8.171  1.00  0.00     0.274 HD
ENDBRANCH  12  13
ENDBRANCH   6  12
TORSDOF 3
ENDMDL
MODEL 5
REMARK VINA RESULT:      -4.3      1.157      1.851
REMARK  3 active torsions:
REMARK  status: ('A' for Active; 'I' for Inactive)
REMARK    1  A    between atoms: N_1  and  C_2 
REMARK    2  A    between atoms: C_11  and  C_13 
REMARK    3  A    between atoms: N_12  and  C_13 
ROOT
HETATM    1  C   UNL     1      64.846   7.542   4.745  1.00  0.00     0.038 A 
HETATM    2  C   UNL     1      64.370   6.918   3.583  1.00  0.00     0.030 A 
HETATM    3  C   UNL     1      64.276   8.763   5.134  1.00  0.00     0.030 A 
HETATM    4  C   UNL     1      63.248   9.337   4.380  1.00  0.00     0.011 A 
HETATM    5  C   UNL     1      63.337   7.496   2.834  1.00  0.00     0.011 A 
HETATM    6  C   UNL     1      62.762   8.709   3.228  1.00  0.00    -0.033 A 
ENDROOT
BRANCH   1   7
HETATM    7  N   UNL     1      65.885   6.944   5.526  1.00  0.00    -0.333 N 
HETATM    8  C   UNL     1      66.181   7.207   6.853  1.00  0.00     0.096 A 
HETATM    9  C   UNL     1      67.264   6.447   7.242  1.00  0.00     0.019 A 
HETATM   10  C   UNL     1      67.654   5.681   6.130  1.00  0.00     0.019 A 
HETATM   11  C   UNL     1      66.798   5.994   5.098  1.00  0.00     0.096 A 
ENDBRANCH   1   7
BRANCH   6  12
HETATM   12  C   UNL     1      61.649   9.338   2.428  1.00  0.00     0.268 C 
BRANCH  12  13
HETATM   13  N   UNL     1      61.548  10.769   2.687  1.00  0.00    -0.075 N 
HETATM   14  H   UNL     1      62.351  11.246   2.276  1.00  0.00     0.274 HD
HETATM   15  H   UNL     1      61.534  10.933   3.694  1.00  0.00     0.274 HD
HETATM   16  H   UNL     1      60.689  11.130   2.272  1.00  0.00     0.274 HD
ENDBRANCH  12  13
ENDBRANCH   6  12
TORSDOF 3
ENDMDL
MODEL 6
REMARK VINA RESULT:      -4.2      1.823      5.565
REMARK  3 active torsions:
REMARK  status: ('A' for Active; 'I' for Inactive)
REMARK    1  A    between atoms: N_1  and  C_2 
REMARK    2  A    between atoms: C_11  and  C_13 
REMARK    3  A    between atoms: N_12  and  C_13 
ROOT
HETATM    1  C   UNL     1      63.474   7.818   3.371  1.00  0.00     0.038 A 
HETATM    2  C   UNL     1      63.685   8.781   4.369  1.00  0.00     0.030 A 
HETATM    3  C   UNL     1      64.364   6.739   3.280  1.00  0.00     0.030 A 
HETATM    4  C   UNL     1      65.434   6.624   4.173  1.00  0.00     0.011 A 
HETATM    5  C   UNL     1      64.756   8.658   5.264  1.00  0.00     0.011 A 
HETATM    6  C   UNL     1      65.639   7.575   5.178  1.00  0.00    -0.033 A 
ENDROOT
BRANCH   1   7
HETATM    7  N   UNL     1      62.368   7.927   2.471  1.00  0.00    -0.333 N 
HETATM    8  C   UNL     1      62.261   8.783   1.387  1.00  0.00     0.096 A 
HETATM    9  C   UNL     1      61.037   8.605   0.779  1.00  0.00     0.019 A 
HETATM   10  C   UNL     1      60.358   7.605   1.497  1.00  0.00     0.019 A 
HETATM   11  C   UNL     1      61.188   7.202   2.519  1.00  0.00     0.096 A 
ENDBRANCH   1   7
BRANCH   6  12
HETATM   12  C   UNL     1      66.793   7.436   6.137  1.00  0.00     0.268 C 
BRANCH  12  13
HETATM   13  N   UNL     1      66.870   8.571   7.048  1.00  0.00    -0.075 N 
HETATM   14  H   UNL     1      66.569   9.417   6.564  1.00  0.00     0.274 HD
HETATM   15  H   UNL     1      67.833   8.687   7.367  1.00  0.00     0.274 HD
HETATM   16  H   UNL     1      66.265   8.403   7.851  1.00  0.00     0.274 HD
ENDBRANCH  12  13
ENDBRANCH   6  12
TORSDOF 3
ENDMDL
MODEL 7
REMARK VINA RESULT:      -4.1      1.705      2.731
REMARK  3 active torsions:
REMARK  status: ('A' for Active; 'I' for Inactive)
REMARK    1  A    between atoms: N_1  and  C_2 
REMARK    2  A    between atoms: C_11  and  C_13 
REMARK    3  A    between atoms: N_12  and  C_13 
ROOT
HETATM    1  C   UNL     1      65.446   7.015   6.588  1.00  0.00     0.038 A 
HETATM    2  C   UNL     1      64.145   6.492   6.576  1.00  0.00     0.030 A 
HETATM    3  C   UNL     1      65.717   8.160   5.825  1.00  0.00     0.030 A 
HETATM    4  C   UNL     1      64.706   8.770   5.076  1.00  0.00     0.011 A 
HETATM    5  C   UNL     1      63.135   7.110   5.827  1.00  0.00     0.011 A 
HETATM    6  C   UNL     1      63.404   8.258   5.073  1.00  0.00    -0.033 A 
ENDROOT
BRANCH   1   7
HETATM    7  N   UNL     1      66.475   6.402   7.370  1.00  0.00    -0.333 N 
HETATM    8  C   UNL     1      67.184   5.255   7.055  1.00  0.00     0.096 A 
HETATM    9  C   UNL     1      68.075   4.972   8.068  1.00  0.00     0.019 A 
HETATM   10  C   UNL     1      67.924   5.971   9.045  1.00  0.00     0.019 A 
HETATM   11  C   UNL     1      66.950   6.835   8.597  1.00  0.00     0.096 A 
ENDBRANCH   1   7
BRANCH   6  12
HETATM   12  C   UNL     1      62.322   8.928   4.265  1.00  0.00     0.268 C 
BRANCH  12  13
HETATM   13  N   UNL     1      62.421  10.381   4.342  1.00  0.00    -0.075 N 
HETATM   14  H   UNL     1      62.464  10.769   3.399  1.00  0.00     0.274 HD
HETATM   15  H   UNL     1      63.265  10.638   4.854  1.00  0.00     0.274 HD
HETATM   16  H   UNL     1      61.604  10.752   4.826  1.00  0.00     0.274 HD
ENDBRANCH  12  13
ENDBRANCH   6  12
TORSDOF 3
ENDMDL
MODEL 8
REMARK VINA RESULT:      -3.8      2.549      5.427
REMARK  3 active torsions:
REMARK  status: ('A' for Active; 'I' for Inactive)
REMARK    1  A    between atoms: N_1  and  C_2 
REMARK    2  A    between atoms: C_11  and  C_13 
REMARK    3  A    between atoms: N_12  and  C_13 
ROOT
HETATM    1  C   UNL     1      62.717   7.274   5.070  1.00  0.00     0.038 A 
HETATM    2  C   UNL     1      63.582   8.233   4.523  1.00  0.00     0.030 A 
HETATM    3  C   UNL     1      63.207   6.415   6.064  1.00  0.00     0.030 A 
HETATM    4  C   UNL     1      64.530   6.521   6.503  1.00  0.00     0.011 A 
HETATM    5  C   UNL     1      64.906   8.337   4.971  1.00  0.00     0.011 A 
HETATM    6  C   UNL     1      65.392   7.485   5.969  1.00  0.00    -0.033 A 
ENDROOT
BRANCH   1   7
HETATM    7  N   UNL     1      61.358   7.180   4.633  1.00  0.00    -0.333 N 
HETATM    8  C   UNL     1      60.756   7.922   3.631  1.00  0.00     0.096 A 
HETATM    9  C   UNL     1      59.431   7.555   3.520  1.00  0.00     0.019 A 
HETATM   10  C   UNL     1      59.196   6.552   4.477  1.00  0.00     0.019 A 
HETATM   11  C   UNL     1      60.384   6.335   5.139  1.00  0.00     0.096 A 
ENDBRANCH   1   7
BRANCH   6  12
HETATM   12  C   UNL     1      66.814   7.591   6.456  1.00  0.00     0.268 C 
BRANCH  12  13
HETATM   13  N   UNL     1      67.004   8.764   7.301  1.00  0.00    -0.075 N 
HETATM   14  H   UNL     1      67.906   9.191   7.092  1.00  0.00     0.274 HD
HETATM   15  H   UNL     1      66.979   8.484   8.282  1.00  0.00     0.274 HD
HETATM   16  H   UNL     1      66.258   9.436   7.121  1.00  0.00     0.274 HD
ENDBRANCH  12  13
ENDBRANCH   6  12
TORSDOF 3
ENDMDL
MODEL 9
REMARK VINA RESULT:      -3.7      2.550      5.633
REMARK  3 active torsions:
REMARK  status: ('A' for Active; 'I' for Inactive)
REMARK    1  A    between atoms: N_1  and  C_2 
REMARK    2  A    between atoms: C_11  and  C_13 
REMARK    3  A    between atoms: N_12  and  C_13 
ROOT
HETATM    1  C   UNL     1      61.989   8.060   4.295  1.00  0.00     0.038 A 
HETATM    2  C   UNL     1      62.778   7.941   5.448  1.00  0.00     0.030 A 
HETATM    3  C   UNL     1      61.217   6.961   3.893  1.00  0.00     0.030 A 
HETATM    4  C   UNL     1      61.229   5.775   4.635  1.00  0.00     0.011 A 
HETATM    5  C   UNL     1      62.783   6.752   6.190  1.00  0.00     0.011 A 
HETATM    6  C   UNL     1      62.005   5.659   5.793  1.00  0.00    -0.033 A 
ENDROOT
BRANCH   1   7
HETATM    7  N   UNL     1      61.962   9.279   3.548  1.00  0.00    -0.333 N 
HETATM    8  C   UNL     1      61.942  10.566   4.061  1.00  0.00     0.096 A 
HETATM    9  C   UNL     1      61.897  11.474   3.024  1.00  0.00     0.019 A 
HETATM   10  C   UNL     1      61.895  10.737   1.827  1.00  0.00     0.019 A 
HETATM   11  C   UNL     1      61.941   9.403   2.169  1.00  0.00     0.096 A 
ENDBRANCH   1   7
BRANCH   6  12
HETATM   12  C   UNL     1      62.004   4.376   6.586  1.00  0.00     0.268 C 
BRANCH  12  13
HETATM   13  N   UNL     1      63.358   3.879   6.797  1.00  0.00    -0.075 N 
HETATM   14  H   UNL     1      63.666   3.368   5.969  1.00  0.00     0.274 HD
HETATM   15  H   UNL     1      63.370   3.255   7.604  1.00  0.00     0.274 HD
HETATM   16  H   UNL     1      63.986   4.665   6.966  1.00  0.00     0.274 HD
ENDBRANCH  12  13
ENDBRANCH   6  12
TORSDOF 3
ENDMDL
