MODEL 1
REMARK VINA RESULT:      -4.9      0.000      0.000
REMARK  1 active torsions:
REMARK  status: ('A' for Active; 'I' for Inactive)
REMARK    1  A    between atoms: N_1  and  C_4 
ROOT
HETATM    1  N   UNL     1      66.025   5.138   8.125  1.00  0.00    -0.191 NA
HETATM    2  C   UNL     1      65.475   5.848   7.391  1.00  0.00     0.099 C 
HETATM    3  C   UNL     1      63.465   8.427   4.685  1.00  0.00     0.038 A 
HETATM    4  C   UNL     1      62.776   7.382   5.319  1.00  0.00     0.031 A 
HETATM    5  C   UNL     1      64.826   8.612   4.968  1.00  0.00     0.031 A 
HETATM    6  C   UNL     1      64.795   6.721   6.483  1.00  0.00     0.044 A 
HETATM    7  C   UNL     1      65.486   7.764   5.864  1.00  0.00     0.025 A 
HETATM    8  C   UNL     1      63.440   6.531   6.209  1.00  0.00     0.025 A 
ENDROOT
BRANCH   3   9
HETATM    9  N   UNL     1      62.792   9.287   3.764  1.00  0.00    -0.333 N 
HETATM   10  C   UNL     1      62.480   9.004   2.445  1.00  0.00     0.096 A 
HETATM   11  C   UNL     1      61.831  10.082   1.886  1.00  0.00     0.019 A 
HETATM   12  C   UNL     1      61.741  11.074   2.879  1.00  0.00     0.019 A 
HETATM   13  C   UNL     1      62.329  10.568   4.016  1.00  0.00     0.096 A 
ENDBRANCH   3   9
TORSDOF 1
ENDMDL
MODEL 2
REMARK VINA RESULT:      -4.6      0.801      1.613
REMARK  1 active torsions:
REMARK  status: ('A' for Active; 'I' for Inactive)
REMARK    1  A    between atoms: N_1  and  C_4 
ROOT
HETATM    1  N   UNL     1      66.484   4.386   7.930  1.00  0.00    -0.191 NA
HETATM    2  C   UNL     1      65.905   5.216   7.363  1.00  0.00     0.099 C 
HETATM    3  C   UNL     1      63.788   8.269   5.312  1.00  0.00     0.038 A 
HETATM    4  C   UNL     1      65.174   8.370   5.505  1.00  0.00     0.031 A 
HETATM    5  C   UNL     1      63.115   7.139   5.798  1.00  0.00     0.031 A 
HETATM    6  C   UNL     1      65.193   6.244   6.666  1.00  0.00     0.044 A 
HETATM    7  C   UNL     1      63.815   6.131   6.470  1.00  0.00     0.025 A 
HETATM    8  C   UNL     1      65.870   7.364   6.183  1.00  0.00     0.025 A 
ENDROOT
BRANCH   3   9
HETATM    9  N   UNL     1      63.073   9.304   4.632  1.00  0.00    -0.333 N 
HETATM   10  C   UNL     1      62.492   9.221   3.379  1.00  0.00     0.096 A 
HETATM   11  C   UNL     1      61.895  10.422   3.070  1.00  0.00     0.019 A 
HETATM   12  C   UNL     1      62.115  11.288   4.156  1.00  0.00     0.019 A 
HETATM   13  C   UNL     1      62.831  10.585   5.099  1.00  0.00     0.096 A 
ENDBRANCH   3   9
TORSDOF 1
ENDMDL
MODEL 3
REMARK VINA RESULT:      -4.4      1.764      5.630
REMARK  1 active torsions:
REMARK  status: ('A' for Active; 'I' for Inactive)
REMARK    1  A    between atoms: N_1  and  C_4 
ROOT
HETATM    1  N   UNL     1      61.309   9.090   0.948  1.00  0.00    -0.191 NA
HETATM    2  C   UNL     1      61.980   8.793   1.847  1.00  0.00     0.099 C 
HETATM    3  C   UNL     1      64.454   7.727   5.126  1.00  0.00     0.038 A 
HETATM    4  C   UNL     1      63.691   8.904   5.163  1.00  0.00     0.031 A 
HETATM    5  C   UNL     1      64.379   6.904   3.993  1.00  0.00     0.031 A 
HETATM    6  C   UNL     1      62.810   8.432   2.956  1.00  0.00     0.044 A 
HETATM    7  C   UNL     1      63.559   7.255   2.915  1.00  0.00     0.025 A 
HETATM    8  C   UNL     1      62.877   9.255   4.081  1.00  0.00     0.025 A 
ENDROOT
BRANCH   3   9
HETATM    9  N   UNL     1      65.298   7.375   6.225  1.00  0.00    -0.333 N 
HETATM   10  C   UNL     1      65.037   6.423   7.195  1.00  0.00     0.096 A 
HETATM   11  C   UNL     1      66.087   6.373   8.083  1.00  0.00     0.019 A 
HETATM   12  C   UNL     1      67.031   7.328   7.665  1.00  0.00     0.019 A 
HETATM   13  C   UNL     1      66.532   7.924   6.529  1.00  0.00     0.096 A 
ENDBRANCH   3   9
TORSDOF 1
ENDMDL
MODEL 4
REMARK VINA RESULT:      -4.3      2.581      5.667
REMARK  1 active torsions:
REMARK  status: ('A' for Active; 'I' for Inactive)
REMARK    1  A    between atoms: N_1  and  C_4 
ROOT
HETATM    1  N   UNL     1      61.596  11.012   3.997  1.00  0.00    -0.191 NA
HETATM    2  C   UNL     1      62.341  10.123   4.032  1.00  0.00     0.099 C 
HETATM    3  C   UNL     1      65.045   6.855   4.176  1.00  0.00     0.038 A 
HETATM    4  C   UNL     1      64.041   6.906   3.197  1.00  0.00     0.031 A 
HETATM    5  C   UNL     1      65.148   7.905   5.099  1.00  0.00     0.031 A 
HETATM    6  C   UNL     1      63.256   9.023   4.077  1.00  0.00     0.044 A 
HETATM    7  C   UNL     1      64.258   8.984   5.047  1.00  0.00     0.025 A 
HETATM    8  C   UNL     1      63.149   7.983   3.152  1.00  0.00     0.025 A 
ENDROOT
BRANCH   3   9
HETATM    9  N   UNL     1      65.947   5.748   4.232  1.00  0.00    -0.333 N 
HETATM   10  C   UNL     1      66.468   5.164   5.374  1.00  0.00     0.096 A 
HETATM   11  C   UNL     1      67.298   4.124   5.019  1.00  0.00     0.019 A 
HETATM   12  C   UNL     1      67.307   4.059   3.614  1.00  0.00     0.019 A 
HETATM   13  C   UNL     1      66.474   5.055   3.155  1.00  0.00     0.096 A 
ENDBRANCH   3   9
TORSDOF 1
ENDMDL
MODEL 5
REMARK VINA RESULT:      -4.1      1.583      6.026
REMARK  1 active torsions:
REMARK  status: ('A' for Active; 'I' for Inactive)
REMARK    1  A    between atoms: N_1  and  C_4 
ROOT
HETATM    1  N   UNL     1      61.938   8.655   2.920  1.00  0.00    -0.191 NA
HETATM    2  C   UNL     1      62.699   8.242   3.693  1.00  0.00     0.099 C 
HETATM    3  C   UNL     1      65.472   6.747   6.537  1.00  0.00     0.038 A 
HETATM    4  C   UNL     1      64.167   6.235   6.476  1.00  0.00     0.031 A 
HETATM    5  C   UNL     1      65.849   7.754   5.636  1.00  0.00     0.031 A 
HETATM    6  C   UNL     1      63.635   7.733   4.649  1.00  0.00     0.044 A 
HETATM    7  C   UNL     1      64.935   8.242   4.696  1.00  0.00     0.025 A 
HETATM    8  C   UNL     1      63.254   6.729   5.540  1.00  0.00     0.025 A 
ENDROOT
BRANCH   3   9
HETATM    9  N   UNL     1      66.402   6.253   7.503  1.00  0.00    -0.333 N 
HETATM   10  C   UNL     1      66.925   4.973   7.568  1.00  0.00     0.096 A 
HETATM   11  C   UNL     1      67.786   4.883   8.638  1.00  0.00     0.019 A 
HETATM   12  C   UNL     1      67.797   6.139   9.270  1.00  0.00     0.019 A 
HETATM   13  C   UNL     1      66.950   6.960   8.560  1.00  0.00     0.096 A 
ENDBRANCH   3   9
TORSDOF 1
ENDMDL
MODEL 6
REMARK VINA RESULT:      -4.0      1.817      2.158
REMARK  1 active torsions:
REMARK  status: ('A' for Active; 'I' for Inactive)
REMARK    1  A    between atoms: N_1  and  C_4 
ROOT
HETATM    1  N   UNL     1      66.725   3.562   5.022  1.00  0.00    -0.191 NA
HETATM    2  C   UNL     1      66.112   4.539   4.892  1.00  0.00     0.099 C 
HETATM    3  C   UNL     1      63.888   8.120   4.397  1.00  0.00     0.038 A 
HETATM    4  C   UNL     1      63.747   7.061   3.487  1.00  0.00     0.031 A 
HETATM    5  C   UNL     1      64.769   7.971   5.479  1.00  0.00     0.031 A 
HETATM    6  C   UNL     1      65.358   5.744   4.727  1.00  0.00     0.044 A 
HETATM    7  C   UNL     1      65.497   6.788   5.643  1.00  0.00     0.025 A 
HETATM    8  C   UNL     1      64.482   5.882   3.650  1.00  0.00     0.025 A 
ENDROOT
BRANCH   3   9
HETATM    9  N   UNL     1      63.150   9.330   4.223  1.00  0.00    -0.333 N 
HETATM   10  C   UNL     1      63.023  10.360   5.139  1.00  0.00     0.096 A 
HETATM   11  C   UNL     1      62.233  11.354   4.605  1.00  0.00     0.019 A 
HETATM   12  C   UNL     1      61.844  10.932   3.321  1.00  0.00     0.019 A 
HETATM   13  C   UNL     1      62.417   9.698   3.107  1.00  0.00     0.096 A 
ENDBRANCH   3   9
TORSDOF 1
ENDMDL
MODEL 7
REMARK VINA RESULT:      -3.9      1.366      2.300
REMARK  1 active torsions:
REMARK  status: ('A' for Active; 'I' for Inactive)
REMARK    1  A    between atoms: N_1  and  C_4 
ROOT
HETATM    1  N   UNL     1      67.286   3.807   8.766  1.00  0.00    -0.191 NA
HETATM    2  C   UNL     1      66.668   4.514   8.085  1.00  0.00     0.099 C 
HETATM    3  C   UNL     1      64.401   7.118   5.616  1.00  0.00     0.038 A 
HETATM    4  C   UNL     1      65.667   7.502   6.084  1.00  0.00     0.031 A 
HETATM    5  C   UNL     1      63.901   5.855   5.969  1.00  0.00     0.031 A 
HETATM    6  C   UNL     1      65.907   5.391   7.248  1.00  0.00     0.044 A 
HETATM    7  C   UNL     1      64.652   4.996   6.779  1.00  0.00     0.025 A 
HETATM    8  C   UNL     1      66.412   6.644   6.899  1.00  0.00     0.025 A 
ENDROOT
BRANCH   3   9
HETATM    9  N   UNL     1      63.632   7.999   4.796  1.00  0.00    -0.333 N 
HETATM   10  C   UNL     1      63.411   7.880   3.435  1.00  0.00     0.096 A 
HETATM   11  C   UNL     1      62.621   8.922   3.005  1.00  0.00     0.019 A 
HETATM   12  C   UNL     1      62.345   9.725   4.126  1.00  0.00     0.019 A 
HETATM   13  C   UNL     1      62.967   9.142   5.207  1.00  0.00     0.096 A 
ENDBRANCH   3   9
TORSDOF 1
ENDMDL
MODEL 8
REMARK VINA RESULT:      -3.9     11.681     13.396
REMARK  1 active torsions:
REMARK  status: ('A' for Active; 'I' for Inactive)
REMARK    1  A    between atoms: N_1  and  C_4 
ROOT
HETATM    1  N   UNL     1      62.457  -0.526  12.285  1.00  0.00    -0.191 NA
HETATM    2  C   UNL     1      61.364  -0.271  12.582  1.00  0.00     0.099 C 
HETATM    3  C   UNL     1      57.377   0.666  13.693  1.00  0.00     0.038 A 
HETATM    4  C   UNL     1      58.306   1.687  13.444  1.00  0.00     0.031 A 
HETATM    5  C   UNL     1      57.784  -0.670  13.559  1.00  0.00     0.031 A 
HETATM    6  C   UNL     1      60.018   0.046  12.951  1.00  0.00     0.044 A 
HETATM    7  C   UNL     1      59.097  -0.977  13.188  1.00  0.00     0.025 A 
HETATM    8  C   UNL     1      59.620   1.377  13.080  1.00  0.00     0.025 A 
ENDROOT
BRANCH   3   9
HETATM    9  N   UNL     1      56.038   0.981  14.080  1.00  0.00    -0.333 N 
HETATM   10  C   UNL     1      55.365   2.167  13.839  1.00  0.00     0.096 A 
HETATM   11  C   UNL     1      54.096   2.089  14.366  1.00  0.00     0.019 A 
HETATM   12  C   UNL     1      53.969   0.822  14.963  1.00  0.00     0.019 A 
HETATM   13  C   UNL     1      55.163   0.162  14.774  1.00  0.00     0.096 A 
ENDBRANCH   3   9
TORSDOF 1
ENDMDL
MODEL 9
REMARK VINA RESULT:      -3.8      2.179      5.315
REMARK  1 active torsions:
REMARK  status: ('A' for Active; 'I' for Inactive)
REMARK    1  A    between atoms: N_1  and  C_4 
ROOT
HETATM    1  N   UNL     1      58.656   7.312   3.038  1.00  0.00    -0.191 NA
HETATM    2  C   UNL     1      59.698   7.316   3.549  1.00  0.00     0.099 C 
HETATM    3  C   UNL     1      63.499   7.349   5.436  1.00  0.00     0.038 A 
HETATM    4  C   UNL     1      62.457   6.558   5.945  1.00  0.00     0.031 A 
HETATM    5  C   UNL     1      63.267   8.120   4.288  1.00  0.00     0.031 A 
HETATM    6  C   UNL     1      60.981   7.322   4.183  1.00  0.00     0.044 A 
HETATM    7  C   UNL     1      62.015   8.104   3.664  1.00  0.00     0.025 A 
HETATM    8  C   UNL     1      61.205   6.550   5.323  1.00  0.00     0.025 A 
ENDROOT
BRANCH   3   9
HETATM    9  N   UNL     1      64.775   7.370   6.080  1.00  0.00    -0.333 N 
HETATM   10  C   UNL     1      65.169   6.598   7.159  1.00  0.00     0.096 A 
HETATM   11  C   UNL     1      66.469   6.905   7.491  1.00  0.00     0.019 A 
HETATM   12  C   UNL     1      66.902   7.904   6.602  1.00  0.00     0.019 A 
HETATM   13  C   UNL     1      65.855   8.170   5.748  1.00  0.00     0.096 A 
ENDBRANCH   3   9
TORSDOF 1
ENDMDL
