MODEL 1
REMARK VINA RESULT:      -4.8      0.000      0.000
REMARK  2 active torsions:
REMARK  status: ('A' for Active; 'I' for Inactive)
REMARK    1  A    between atoms: N_1  and  C_2 
REMARK    2  A    between atoms: C_9  and  N_10 
ROOT
HETATM    1  C   UNL     1      63.605   8.789   4.790  1.00  0.00     0.038 A 
HETATM    2  C   UNL     1      63.173  10.049   5.224  1.00  0.00     0.032 A 
HETATM    3  C   UNL     1      63.234   8.362   3.507  1.00  0.00     0.032 A 
HETATM    4  C   UNL     1      61.966  10.408   3.142  1.00  0.00     0.025 A 
HETATM    5  C   UNL     1      62.381  10.855   4.395  1.00  0.00     0.031 A 
HETATM    6  C   UNL     1      62.440   9.177   2.689  1.00  0.00     0.031 A 
ENDROOT
BRANCH   1   7
HETATM    7  N   UNL     1      64.426   7.968   5.625  1.00  0.00    -0.333 N 
HETATM    8  C   UNL     1      65.786   8.112   5.847  1.00  0.00     0.096 A 
HETATM    9  C   UNL     1      66.221   7.124   6.704  1.00  0.00     0.019 A 
HETATM   10  C   UNL     1      65.102   6.337   7.032  1.00  0.00     0.019 A 
HETATM   11  C   UNL     1      64.020   6.873   6.367  1.00  0.00     0.096 A 
ENDBRANCH   1   7
BRANCH   4  12
HETATM   12  N   UNL     1      61.292  11.270   2.271  1.00  0.00    -0.399 N 
HETATM   13  H   UNL     1      61.794  11.769   1.586  1.00  0.00     0.156 HD
HETATM   14  H   UNL     1      60.316  11.378   2.343  1.00  0.00     0.156 HD
ENDBRANCH   4  12
TORSDOF 2
ENDMDL
MODEL 2
REMARK VINA RESULT:      -4.6      2.394      4.804
REMARK  2 active torsions:
REMARK  status: ('A' for Active; 'I' for Inactive)
REMARK    1  A    between atoms: N_1  and  C_2 
REMARK    2  A    between atoms: C_9  and  N_10 
ROOT
HETATM    1  C   UNL     1      62.215   9.078   3.007  1.00  0.00     0.038 A 
HETATM    2  C   UNL     1      61.782  10.401   3.171  1.00  0.00     0.032 A 
HETATM    3  C   UNL     1      63.058   8.527   3.982  1.00  0.00     0.032 A 
HETATM    4  C   UNL     1      63.076  10.622   5.221  1.00  0.00     0.025 A 
HETATM    5  C   UNL     1      62.193  11.152   4.281  1.00  0.00     0.031 A 
HETATM    6  C   UNL     1      63.463   9.289   5.085  1.00  0.00     0.031 A 
ENDROOT
BRANCH   1   7
HETATM    7  N   UNL     1      61.786   8.302   1.884  1.00  0.00    -0.333 N 
HETATM    8  C   UNL     1      60.557   8.374   1.250  1.00  0.00     0.096 A 
HETATM    9  C   UNL     1      60.517   7.460   0.218  1.00  0.00     0.019 A 
HETATM   10  C   UNL     1      61.758   6.798   0.201  1.00  0.00     0.019 A 
HETATM   11  C   UNL     1      62.516   7.330   1.222  1.00  0.00     0.096 A 
ENDBRANCH   1   7
BRANCH   4  12
HETATM   12  N   UNL     1      63.372  11.329   6.390  1.00  0.00    -0.399 N 
HETATM   13  H   UNL     1      62.708  11.379   7.116  1.00  0.00     0.156 HD
HETATM   14  H   UNL     1      64.244  11.776   6.487  1.00  0.00     0.156 HD
ENDBRANCH   4  12
TORSDOF 2
ENDMDL
MODEL 3
REMARK VINA RESULT:      -4.4      1.445      5.084
REMARK  2 active torsions:
REMARK  status: ('A' for Active; 'I' for Inactive)
REMARK    1  A    between atoms: N_1  and  C_2 
REMARK    2  A    between atoms: C_9  and  N_10 
ROOT
HETATM    1  C   UNL     1      63.457   8.418   4.679  1.00  0.00     0.038 A 
HETATM    2  C   UNL     1      64.819   8.583   4.963  1.00  0.00     0.032 A 
HETATM    3  C   UNL     1      62.753   7.409   5.351  1.00  0.00     0.032 A 
HETATM    4  C   UNL     1      64.772   6.711   6.518  1.00  0.00     0.025 A 
HETATM    5  C   UNL     1      65.459   7.750   5.891  1.00  0.00     0.031 A 
HETATM    6  C   UNL     1      63.405   6.582   6.275  1.00  0.00     0.031 A 
ENDROOT
BRANCH   1   7
HETATM    7  N   UNL     1      62.795   9.275   3.744  1.00  0.00    -0.333 N 
HETATM    8  C   UNL     1      62.359  10.570   3.974  1.00  0.00     0.096 A 
HETATM    9  C   UNL     1      61.759  11.063   2.835  1.00  0.00     0.019 A 
HETATM   10  C   UNL     1      61.823  10.051   1.860  1.00  0.00     0.019 A 
HETATM   11  C   UNL     1      62.462   8.973   2.435  1.00  0.00     0.096 A 
ENDBRANCH   1   7
BRANCH   4  12
HETATM   12  N   UNL     1      65.382   5.975   7.538  1.00  0.00    -0.399 N 
HETATM   13  H   UNL     1      65.737   5.076   7.351  1.00  0.00     0.156 HD
HETATM   14  H   UNL     1      65.457   6.356   8.443  1.00  0.00     0.156 HD
ENDBRANCH   4  12
TORSDOF 2
ENDMDL
MODEL 4
REMARK VINA RESULT:      -4.2      1.588      5.363
REMARK  2 active torsions:
REMARK  status: ('A' for Active; 'I' for Inactive)
REMARK    1  A    between atoms: N_1  and  C_2 
REMARK    2  A    between atoms: C_9  and  N_10 
ROOT
HETATM    1  C   UNL     1      64.974   7.845   5.454  1.00  0.00     0.038 A 
HETATM    2  C   UNL     1      66.319   8.016   5.100  1.00  0.00     0.032 A 
HETATM    3  C   UNL     1      64.677   7.113   6.612  1.00  0.00     0.032 A 
HETATM    4  C   UNL     1      67.040   6.683   7.005  1.00  0.00     0.025 A 
HETATM    5  C   UNL     1      67.338   7.458   5.885  1.00  0.00     0.031 A 
HETATM    6  C   UNL     1      65.705   6.558   7.385  1.00  0.00     0.031 A 
ENDROOT
BRANCH   1   7
HETATM    7  N   UNL     1      63.931   8.426   4.666  1.00  0.00    -0.333 N 
HETATM    8  C   UNL     1      63.248   9.601   4.934  1.00  0.00     0.096 A 
HETATM    9  C   UNL     1      62.308   9.824   3.950  1.00  0.00     0.019 A 
HETATM   10  C   UNL     1      62.405   8.759   3.036  1.00  0.00     0.019 A 
HETATM   11  C   UNL     1      63.403   7.923   3.490  1.00  0.00     0.096 A 
ENDBRANCH   1   7
BRANCH   4  12
HETATM   12  N   UNL     1      68.062   6.245   7.853  1.00  0.00    -0.399 N 
HETATM   13  H   UNL     1      67.844   5.712   8.652  1.00  0.00     0.156 HD
HETATM   14  H   UNL     1      68.999   6.470   7.652  1.00  0.00     0.156 HD
ENDBRANCH   4  12
TORSDOF 2
ENDMDL
MODEL 5
REMARK VINA RESULT:      -4.0      2.068      3.336
REMARK  2 active torsions:
REMARK  status: ('A' for Active; 'I' for Inactive)
REMARK    1  A    between atoms: N_1  and  C_2 
REMARK    2  A    between atoms: C_9  and  N_10 
ROOT
HETATM    1  C   UNL     1      65.396   7.072   6.612  1.00  0.00     0.038 A 
HETATM    2  C   UNL     1      65.661   8.203   5.828  1.00  0.00     0.032 A 
HETATM    3  C   UNL     1      64.108   6.521   6.575  1.00  0.00     0.032 A 
HETATM    4  C   UNL     1      63.358   8.256   5.041  1.00  0.00     0.025 A 
HETATM    5  C   UNL     1      64.654   8.770   5.035  1.00  0.00     0.031 A 
HETATM    6  C   UNL     1      63.110   7.099   5.780  1.00  0.00     0.031 A 
ENDROOT
BRANCH   1   7
HETATM    7  N   UNL     1      66.424   6.479   7.411  1.00  0.00    -0.333 N 
HETATM    8  C   UNL     1      67.203   5.383   7.078  1.00  0.00     0.096 A 
HETATM    9  C   UNL     1      68.074   5.105   8.109  1.00  0.00     0.019 A 
HETATM   10  C   UNL     1      67.839   6.057   9.119  1.00  0.00     0.019 A 
HETATM   11  C   UNL     1      66.833   6.886   8.669  1.00  0.00     0.096 A 
ENDBRANCH   1   7
BRANCH   4  12
HETATM   12  N   UNL     1      62.399   8.744   4.148  1.00  0.00    -0.399 N 
HETATM   13  H   UNL     1      62.009   9.637   4.285  1.00  0.00     0.156 HD
HETATM   14  H   UNL     1      62.115   8.194   3.382  1.00  0.00     0.156 HD
ENDBRANCH   4  12
TORSDOF 2
ENDMDL
MODEL 6
REMARK VINA RESULT:      -3.9      2.293      5.418
REMARK  2 active torsions:
REMARK  status: ('A' for Active; 'I' for Inactive)
REMARK    1  A    between atoms: N_1  and  C_2 
REMARK    2  A    between atoms: C_9  and  N_10 
ROOT
HETATM    1  C   UNL     1      62.166   8.230   3.219  1.00  0.00     0.038 A 
HETATM    2  C   UNL     1      63.228   7.317   3.229  1.00  0.00     0.032 A 
HETATM    3  C   UNL     1      62.201   9.305   4.119  1.00  0.00     0.032 A 
HETATM    4  C   UNL     1      64.302   8.511   5.059  1.00  0.00     0.025 A 
HETATM    5  C   UNL     1      64.294   7.474   4.127  1.00  0.00     0.031 A 
HETATM    6  C   UNL     1      63.271   9.449   5.012  1.00  0.00     0.031 A 
ENDROOT
BRANCH   1   7
HETATM    7  N   UNL     1      61.084   8.084   2.295  1.00  0.00    -0.333 N 
HETATM    8  C   UNL     1      59.823   7.581   2.571  1.00  0.00     0.096 A 
HETATM    9  C   UNL     1      59.062   7.588   1.421  1.00  0.00     0.019 A 
HETATM   10  C   UNL     1      59.867   8.114   0.394  1.00  0.00     0.019 A 
HETATM   11  C   UNL     1      61.092   8.413   0.951  1.00  0.00     0.096 A 
ENDBRANCH   1   7
BRANCH   4  12
HETATM   12  N   UNL     1      65.429   8.737   5.855  1.00  0.00    -0.399 N 
HETATM   13  H   UNL     1      65.333   8.815   6.832  1.00  0.00     0.156 HD
HETATM   14  H   UNL     1      66.317   8.817   5.439  1.00  0.00     0.156 HD
ENDBRANCH   4  12
TORSDOF 2
ENDMDL
MODEL 7
REMARK VINA RESULT:      -3.8      1.471      1.804
REMARK  2 active torsions:
REMARK  status: ('A' for Active; 'I' for Inactive)
REMARK    1  A    between atoms: N_1  and  C_2 
REMARK    2  A    between atoms: C_9  and  N_10 
ROOT
HETATM    1  C   UNL     1      64.408   7.877   4.801  1.00  0.00     0.038 A 
HETATM    2  C   UNL     1      63.970   9.203   4.913  1.00  0.00     0.032 A 
HETATM    3  C   UNL     1      63.573   6.951   4.160  1.00  0.00     0.032 A 
HETATM    4  C   UNL     1      61.868   8.654   3.815  1.00  0.00     0.025 A 
HETATM    5  C   UNL     1      62.722   9.587   4.402  1.00  0.00     0.031 A 
HETATM    6  C   UNL     1      62.327   7.347   3.656  1.00  0.00     0.031 A 
ENDROOT
BRANCH   1   7
HETATM    7  N   UNL     1      65.687   7.484   5.306  1.00  0.00    -0.333 N 
HETATM    8  C   UNL     1      66.909   7.634   4.672  1.00  0.00     0.096 A 
HETATM    9  C   UNL     1      67.910   7.123   5.470  1.00  0.00     0.019 A 
HETATM   10  C   UNL     1      67.299   6.641   6.643  1.00  0.00     0.019 A 
HETATM   11  C   UNL     1      65.946   6.875   6.522  1.00  0.00     0.096 A 
ENDBRANCH   1   7
BRANCH   4  12
HETATM   12  N   UNL     1      60.688   9.071   3.191  1.00  0.00    -0.399 N 
HETATM   13  H   UNL     1      59.960   8.426   3.035  1.00  0.00     0.156 HD
HETATM   14  H   UNL     1      60.586  10.008   2.907  1.00  0.00     0.156 HD
ENDBRANCH   4  12
TORSDOF 2
ENDMDL
MODEL 8
REMARK VINA RESULT:      -3.7      1.934      2.509
REMARK  2 active torsions:
REMARK  status: ('A' for Active; 'I' for Inactive)
REMARK    1  A    between atoms: N_1  and  C_2 
REMARK    2  A    between atoms: C_9  and  N_10 
ROOT
HETATM    1  C   UNL     1      62.866   7.663   4.884  1.00  0.00     0.038 A 
HETATM    2  C   UNL     1      61.849   6.727   5.116  1.00  0.00     0.032 A 
HETATM    3  C   UNL     1      62.616   8.711   3.987  1.00  0.00     0.032 A 
HETATM    4  C   UNL     1      60.388   7.847   3.523  1.00  0.00     0.025 A 
HETATM    5  C   UNL     1      60.617   6.837   4.456  1.00  0.00     0.031 A 
HETATM    6  C   UNL     1      61.381   8.808   3.333  1.00  0.00     0.031 A 
ENDROOT
BRANCH   1   7
HETATM    7  N   UNL     1      64.120   7.565   5.565  1.00  0.00    -0.333 N 
HETATM    8  C   UNL     1      64.430   6.707   6.608  1.00  0.00     0.096 A 
HETATM    9  C   UNL     1      65.733   6.917   7.007  1.00  0.00     0.019 A 
HETATM   10  C   UNL     1      66.258   7.934   6.189  1.00  0.00     0.019 A 
HETATM   11  C   UNL     1      65.259   8.310   5.315  1.00  0.00     0.096 A 
ENDBRANCH   1   7
BRANCH   4  12
HETATM   12  N   UNL     1      59.115   8.027   2.974  1.00  0.00    -0.399 N 
HETATM   13  H   UNL     1      58.821   8.925   2.696  1.00  0.00     0.156 HD
HETATM   14  H   UNL     1      58.513   7.256   2.864  1.00  0.00     0.156 HD
ENDBRANCH   4  12
TORSDOF 2
ENDMDL
MODEL 9
REMARK VINA RESULT:      -3.5      3.010      5.418
REMARK  2 active torsions:
REMARK  status: ('A' for Active; 'I' for Inactive)
REMARK    1  A    between atoms: N_1  and  C_2 
REMARK    2  A    between atoms: C_9  and  N_10 
ROOT
HETATM    1  C   UNL     1      61.209   7.509   4.088  1.00  0.00     0.038 A 
HETATM    2  C   UNL     1      62.108   7.404   5.158  1.00  0.00     0.032 A 
HETATM    3  C   UNL     1      59.992   6.819   4.170  1.00  0.00     0.032 A 
HETATM    4  C   UNL     1      60.609   5.888   6.333  1.00  0.00     0.025 A 
HETATM    5  C   UNL     1      61.795   6.618   6.276  1.00  0.00     0.031 A 
HETATM    6  C   UNL     1      59.692   6.035   5.292  1.00  0.00     0.031 A 
ENDROOT
BRANCH   1   7
HETATM    7  N   UNL     1      61.517   8.321   2.952  1.00  0.00    -0.333 N 
HETATM    8  C   UNL     1      61.822   9.672   2.959  1.00  0.00     0.096 A 
HETATM    9  C   UNL     1      62.047  10.101   1.668  1.00  0.00     0.019 A 
HETATM   10  C   UNL     1      61.881   8.987   0.826  1.00  0.00     0.019 A 
HETATM   11  C   UNL     1      61.563   7.913   1.630  1.00  0.00     0.096 A 
ENDBRANCH   1   7
BRANCH   4  12
HETATM   12  N   UNL     1      60.246   5.218   7.505  1.00  0.00    -0.399 N 
HETATM   13  H   UNL     1      60.932   4.752   8.037  1.00  0.00     0.156 HD
HETATM   14  H   UNL     1      59.307   5.213   7.798  1.00  0.00     0.156 HD
ENDBRANCH   4  12
TORSDOF 2
ENDMDL
