MODEL 1
REMARK VINA RESULT:      -5.4      0.000      0.000
REMARK  2 active torsions:
REMARK  status: ('A' for Active; 'I' for Inactive)
REMARK    1  A    between atoms: C_5  and  C_9 
REMARK    2  A    between atoms: O_7  and  C_9 
ROOT
HETATM    1  O   UNL     1      63.477   7.898   4.272  1.00  0.00    -0.350 OA
HETATM    2  C   UNL     1      62.290   9.417   2.778  1.00  0.00    -0.024 A 
HETATM    3  C   UNL     1      62.887   8.187   3.068  1.00  0.00     0.075 A 
HETATM    4  C   UNL     1      62.273  10.527   3.792  1.00  0.00     0.050 C 
HETATM    5  C   UNL     1      63.270  10.247   4.922  1.00  0.00     0.038 C 
HETATM    6  C   UNL     1      63.115   8.787   5.334  1.00  0.00     0.182 C 
HETATM    7  C   UNL     1      61.684   9.606   1.528  1.00  0.00     0.010 A 
HETATM    8  C   UNL     1      62.937   7.183   2.102  1.00  0.00     0.037 A 
HETATM    9  C   UNL     1      61.715   8.591   0.569  1.00  0.00     0.001 A 
HETATM   10  C   UNL     1      62.352   7.384   0.852  1.00  0.00     0.003 A 
ENDROOT
BRANCH   5  11
HETATM   11  C   UNL     1      63.054  11.190   6.101  1.00  0.00     0.171 C 
BRANCH  11  12
HETATM   12  O   UNL     1      64.293  11.715   6.559  1.00  0.00    -0.400 OA
HETATM   13  H   UNL     1      64.971  11.585   5.877  1.00  0.00     0.209 HD
ENDBRANCH  11  12
ENDBRANCH   5  11
TORSDOF 2
ENDMDL
MODEL 2
REMARK VINA RESULT:      -5.0      1.927      3.176
REMARK  2 active torsions:
REMARK  status: ('A' for Active; 'I' for Inactive)
REMARK    1  A    between atoms: C_5  and  C_9 
REMARK    2  A    between atoms: O_7  and  C_9 
ROOT
HETATM    1  O   UNL     1      62.787   7.741   2.393  1.00  0.00    -0.350 OA
HETATM    2  C   UNL     1      62.575   9.581   3.981  1.00  0.00    -0.024 A 
HETATM    3  C   UNL     1      62.486   9.045   2.692  1.00  0.00     0.075 A 
HETATM    4  C   UNL     1      63.032   8.738   5.138  1.00  0.00     0.050 C 
HETATM    5  C   UNL     1      63.697   7.449   4.644  1.00  0.00     0.038 C 
HETATM    6  C   UNL     1      62.833   6.871   3.530  1.00  0.00     0.182 C 
HETATM    7  C   UNL     1      62.215  10.919   4.191  1.00  0.00     0.010 A 
HETATM    8  C   UNL     1      62.105   9.850   1.619  1.00  0.00     0.037 A 
HETATM    9  C   UNL     1      61.812  11.718   3.119  1.00  0.00     0.001 A 
HETATM   10  C   UNL     1      61.769  11.187   1.831  1.00  0.00     0.003 A 
ENDROOT
BRANCH   5  11
HETATM   11  C   UNL     1      63.890   6.451   5.782  1.00  0.00     0.171 C 
BRANCH  11  12
HETATM   12  O   UNL     1      64.055   7.127   7.022  1.00  0.00    -0.400 OA
HETATM   13  H   UNL     1      64.381   8.026   6.859  1.00  0.00     0.209 HD
ENDBRANCH  11  12
ENDBRANCH   5  11
TORSDOF 2
ENDMDL
MODEL 3
REMARK VINA RESULT:      -4.9      2.895      4.315
REMARK  2 active torsions:
REMARK  status: ('A' for Active; 'I' for Inactive)
REMARK    1  A    between atoms: C_5  and  C_9 
REMARK    2  A    between atoms: O_7  and  C_9 
ROOT
HETATM    1  O   UNL     1      64.717   9.297   5.593  1.00  0.00    -0.350 OA
HETATM    2  C   UNL     1      64.872   7.370   4.105  1.00  0.00    -0.024 A 
HETATM    3  C   UNL     1      65.390   8.211   5.095  1.00  0.00     0.075 A 
HETATM    4  C   UNL     1      63.517   7.624   3.507  1.00  0.00     0.050 C 
HETATM    5  C   UNL     1      63.031   9.038   3.841  1.00  0.00     0.038 C 
HETATM    6  C   UNL     1      63.312   9.297   5.316  1.00  0.00     0.182 C 
HETATM    7  C   UNL     1      65.625   6.265   3.683  1.00  0.00     0.010 A 
HETATM    8  C   UNL     1      66.668   7.991   5.608  1.00  0.00     0.037 A 
HETATM    9  C   UNL     1      66.896   6.034   4.214  1.00  0.00     0.001 A 
HETATM   10  C   UNL     1      67.422   6.903   5.168  1.00  0.00     0.003 A 
ENDROOT
BRANCH   5  11
HETATM   11  C   UNL     1      61.551   9.211   3.511  1.00  0.00     0.171 C 
BRANCH  11  12
HETATM   12  O   UNL     1      61.175  10.580   3.588  1.00  0.00    -0.400 OA
HETATM   13  H   UNL     1      61.884  11.086   4.015  1.00  0.00     0.209 HD
ENDBRANCH  11  12
ENDBRANCH   5  11
TORSDOF 2
ENDMDL
MODEL 4
REMARK VINA RESULT:      -4.4      2.365      3.131
REMARK  2 active torsions:
REMARK  status: ('A' for Active; 'I' for Inactive)
REMARK    1  A    between atoms: C_5  and  C_9 
REMARK    2  A    between atoms: O_7  and  C_9 
ROOT
HETATM    1  O   UNL     1      64.620   6.737   3.277  1.00  0.00    -0.350 OA
HETATM    2  C   UNL     1      63.762   8.732   4.389  1.00  0.00    -0.024 A 
HETATM    3  C   UNL     1      63.693   7.739   3.406  1.00  0.00     0.075 A 
HETATM    4  C   UNL     1      64.894   8.764   5.376  1.00  0.00     0.050 C 
HETATM    5  C   UNL     1      66.045   7.864   4.915  1.00  0.00     0.038 C 
HETATM    6  C   UNL     1      65.447   6.548   4.430  1.00  0.00     0.182 C 
HETATM    7  C   UNL     1      62.747   9.696   4.459  1.00  0.00     0.010 A 
HETATM    8  C   UNL     1      62.662   7.748   2.467  1.00  0.00     0.037 A 
HETATM    9  C   UNL     1      61.703   9.691   3.531  1.00  0.00     0.001 A 
HETATM   10  C   UNL     1      61.667   8.723   2.528  1.00  0.00     0.003 A 
ENDROOT
BRANCH   5  11
HETATM   11  C   UNL     1      67.061   7.643   6.031  1.00  0.00     0.171 C 
BRANCH  11  12
HETATM   12  O   UNL     1      66.874   8.589   7.076  1.00  0.00    -0.400 OA
HETATM   13  H   UNL     1      67.513   9.312   6.975  1.00  0.00     0.209 HD
ENDBRANCH  11  12
ENDBRANCH   5  11
TORSDOF 2
ENDMDL
MODEL 5
REMARK VINA RESULT:      -4.2      2.887      4.241
REMARK  2 active torsions:
REMARK  status: ('A' for Active; 'I' for Inactive)
REMARK    1  A    between atoms: C_5  and  C_9 
REMARK    2  A    between atoms: O_7  and  C_9 
ROOT
HETATM    1  O   UNL     1      63.789   6.958   3.152  1.00  0.00    -0.350 OA
HETATM    2  C   UNL     1      65.318   7.900   4.802  1.00  0.00    -0.024 A 
HETATM    3  C   UNL     1      64.942   6.908   3.891  1.00  0.00     0.075 A 
HETATM    4  C   UNL     1      64.447   9.102   5.039  1.00  0.00     0.050 C 
HETATM    5  C   UNL     1      63.041   8.875   4.474  1.00  0.00     0.038 C 
HETATM    6  C   UNL     1      63.185   8.255   3.089  1.00  0.00     0.182 C 
HETATM    7  C   UNL     1      66.534   7.774   5.488  1.00  0.00     0.010 A 
HETATM    8  C   UNL     1      65.737   5.776   3.715  1.00  0.00     0.037 A 
HETATM    9  C   UNL     1      67.340   6.650   5.295  1.00  0.00     0.001 A 
HETATM   10  C   UNL     1      66.935   5.645   4.417  1.00  0.00     0.003 A 
ENDROOT
BRANCH   5  11
HETATM   11  C   UNL     1      62.243  10.175   4.429  1.00  0.00     0.171 C 
BRANCH  11  12
HETATM   12  O   UNL     1      61.047  10.004   3.680  1.00  0.00    -0.400 OA
HETATM   13  H   UNL     1      61.235   9.483   2.884  1.00  0.00     0.209 HD
ENDBRANCH  11  12
ENDBRANCH   5  11
TORSDOF 2
ENDMDL
MODEL 6
REMARK VINA RESULT:      -4.0     10.829     12.441
REMARK  2 active torsions:
REMARK  status: ('A' for Active; 'I' for Inactive)
REMARK    1  A    between atoms: C_5  and  C_9 
REMARK    2  A    between atoms: O_7  and  C_9 
ROOT
HETATM    1  O   UNL     1      59.117   0.356  10.437  1.00  0.00    -0.350 OA
HETATM    2  C   UNL     1      58.528   1.718  12.374  1.00  0.00    -0.024 A 
HETATM    3  C   UNL     1      58.898   0.506  11.782  1.00  0.00     0.075 A 
HETATM    4  C   UNL     1      58.330   2.955  11.542  1.00  0.00     0.050 C 
HETATM    5  C   UNL     1      58.219   2.599  10.056  1.00  0.00     0.038 C 
HETATM    6  C   UNL     1      59.312   1.587   9.732  1.00  0.00     0.182 C 
HETATM    7  C   UNL     1      58.357   1.777  13.764  1.00  0.00     0.010 A 
HETATM    8  C   UNL     1      59.033  -0.644  12.559  1.00  0.00     0.037 A 
HETATM    9  C   UNL     1      58.514   0.630  14.543  1.00  0.00     0.001 A 
HETATM   10  C   UNL     1      58.841  -0.584  13.940  1.00  0.00     0.003 A 
ENDROOT
BRANCH   5  11
HETATM   11  C   UNL     1      58.325   3.842   9.177  1.00  0.00     0.171 C 
BRANCH  11  12
HETATM   12  O   UNL     1      58.695   4.975   9.951  1.00  0.00    -0.400 OA
HETATM   13  H   UNL     1      58.095   5.711   9.753  1.00  0.00     0.209 HD
ENDBRANCH  11  12
ENDBRANCH   5  11
TORSDOF 2
ENDMDL
MODEL 7
REMARK VINA RESULT:      -3.9      6.153      7.663
REMARK  2 active torsions:
REMARK  status: ('A' for Active; 'I' for Inactive)
REMARK    1  A    between atoms: C_5  and  C_9 
REMARK    2  A    between atoms: O_7  and  C_9 
ROOT
HETATM    1  O   UNL     1      67.021   6.250   8.393  1.00  0.00    -0.350 OA
HETATM    2  C   UNL     1      67.346   5.411   6.125  1.00  0.00    -0.024 A 
HETATM    3  C   UNL     1      66.996   6.416   7.032  1.00  0.00     0.075 A 
HETATM    4  C   UNL     1      67.766   4.049   6.606  1.00  0.00     0.050 C 
HETATM    5  C   UNL     1      67.395   3.853   8.079  1.00  0.00     0.038 C 
HETATM    6  C   UNL     1      67.782   5.120   8.834  1.00  0.00     0.182 C 
HETATM    7  C   UNL     1      67.318   5.688   4.751  1.00  0.00     0.010 A 
HETATM    8  C   UNL     1      66.563   7.659   6.572  1.00  0.00     0.037 A 
HETATM    9  C   UNL     1      66.905   6.941   4.293  1.00  0.00     0.001 A 
HETATM   10  C   UNL     1      66.517   7.922   5.203  1.00  0.00     0.003 A 
ENDROOT
BRANCH   5  11
HETATM   11  C   UNL     1      68.075   2.620   8.665  1.00  0.00     0.171 C 
BRANCH  11  12
HETATM   12  O   UNL     1      67.270   2.036   9.681  1.00  0.00    -0.400 OA
HETATM   13  H   UNL     1      66.420   2.502   9.727  1.00  0.00     0.209 HD
ENDBRANCH  11  12
ENDBRANCH   5  11
TORSDOF 2
ENDMDL
MODEL 8
REMARK VINA RESULT:      -3.9      2.024      2.364
REMARK  2 active torsions:
REMARK  status: ('A' for Active; 'I' for Inactive)
REMARK    1  A    between atoms: C_5  and  C_9 
REMARK    2  A    between atoms: O_7  and  C_9 
ROOT
HETATM    1  O   UNL     1      61.333   6.799   4.621  1.00  0.00    -0.350 OA
HETATM    2  C   UNL     1      62.395   8.293   3.012  1.00  0.00    -0.024 A 
HETATM    3  C   UNL     1      61.335   7.485   3.435  1.00  0.00     0.075 A 
HETATM    4  C   UNL     1      63.632   8.446   3.853  1.00  0.00     0.050 C 
HETATM    5  C   UNL     1      63.691   7.365   4.936  1.00  0.00     0.038 C 
HETATM    6  C   UNL     1      62.308   7.254   5.567  1.00  0.00     0.182 C 
HETATM    7  C   UNL     1      62.289   8.980   1.795  1.00  0.00     0.010 A 
HETATM    8  C   UNL     1      60.213   7.314   2.624  1.00  0.00     0.037 A 
HETATM    9  C   UNL     1      61.156   8.825   0.994  1.00  0.00     0.001 A 
HETATM   10  C   UNL     1      60.123   7.983   1.403  1.00  0.00     0.003 A 
ENDROOT
BRANCH   5  11
HETATM   11  C   UNL     1      64.761   7.679   5.978  1.00  0.00     0.171 C 
BRANCH  11  12
HETATM   12  O   UNL     1      65.290   8.983   5.779  1.00  0.00    -0.400 OA
HETATM   13  H   UNL     1      64.907   9.590   6.432  1.00  0.00     0.209 HD
ENDBRANCH  11  12
ENDBRANCH   5  11
TORSDOF 2
ENDMDL
MODEL 9
REMARK VINA RESULT:      -3.7      3.274      5.633
REMARK  2 active torsions:
REMARK  status: ('A' for Active; 'I' for Inactive)
REMARK    1  A    between atoms: C_5  and  C_9 
REMARK    2  A    between atoms: O_7  and  C_9 
ROOT
HETATM    1  O   UNL     1      65.476   8.881   5.778  1.00  0.00    -0.350 OA
HETATM    2  C   UNL     1      64.892   6.516   5.903  1.00  0.00    -0.024 A 
HETATM    3  C   UNL     1      65.653   7.622   6.292  1.00  0.00     0.075 A 
HETATM    4  C   UNL     1      63.817   6.645   4.860  1.00  0.00     0.050 C 
HETATM    5  C   UNL     1      63.960   7.963   4.092  1.00  0.00     0.038 C 
HETATM    6  C   UNL     1      64.227   9.071   5.104  1.00  0.00     0.182 C 
HETATM    7  C   UNL     1      65.129   5.275   6.510  1.00  0.00     0.010 A 
HETATM    8  C   UNL     1      66.678   7.479   7.226  1.00  0.00     0.037 A 
HETATM    9  C   UNL     1      66.141   5.137   7.462  1.00  0.00     0.001 A 
HETATM   10  C   UNL     1      66.923   6.237   7.811  1.00  0.00     0.003 A 
ENDROOT
BRANCH   5  11
HETATM   11  C   UNL     1      62.720   8.255   3.252  1.00  0.00     0.171 C 
BRANCH  11  12
HETATM   12  O   UNL     1      62.383   7.133   2.446  1.00  0.00    -0.400 OA
HETATM   13  H   UNL     1      62.170   6.378   3.017  1.00  0.00     0.209 HD
ENDBRANCH  11  12
ENDBRANCH   5  11
TORSDOF 2
ENDMDL
