MODEL 1
REMARK VINA RESULT:      -5.3      0.000      0.000
REMARK  1 active torsions:
REMARK  status: ('A' for Active; 'I' for Inactive)
REMARK    1  A    between atoms: C_1  and  C_2 
ROOT
HETATM    1  C   UNL     1      63.722   7.651   4.966  1.00  0.00     0.115 C 
HETATM    2  O   UNL     1      62.788   7.638   2.712  1.00  0.00    -0.350 OA
HETATM    3  C   UNL     1      63.056   8.980   5.303  1.00  0.00     0.059 C 
HETATM    4  C   UNL     1      62.583   9.667   4.051  1.00  0.00    -0.024 A 
HETATM    5  C   UNL     1      62.849   6.925   3.953  1.00  0.00     0.191 C 
HETATM    6  C   UNL     1      62.484   8.967   2.843  1.00  0.00     0.075 A 
HETATM    7  C   UNL     1      62.227  11.022   4.085  1.00  0.00     0.010 A 
HETATM    8  C   UNL     1      62.095   9.624   1.676  1.00  0.00     0.037 A 
HETATM    9  C   UNL     1      61.819  11.673   2.920  1.00  0.00     0.001 A 
HETATM   10  C   UNL     1      61.762  10.978   1.715  1.00  0.00     0.003 A 
ENDROOT
BRANCH   1  11
HETATM   11  C   UNL     1      63.914   6.814   6.198  1.00  0.00     0.179 C 
HETATM   12  O   UNL     1      64.427   7.157   7.248  1.00  0.00    -0.648 OA
HETATM   13  O   UNL     1      63.400   5.575   6.065  1.00  0.00    -0.648 OA
ENDBRANCH   1  11
TORSDOF 1
ENDMDL
MODEL 2
REMARK VINA RESULT:      -5.2      0.976      1.155
REMARK  1 active torsions:
REMARK  status: ('A' for Active; 'I' for Inactive)
REMARK    1  A    between atoms: C_1  and  C_2 
ROOT
HETATM    1  C   UNL     1      64.628   7.544   4.876  1.00  0.00     0.115 C 
HETATM    2  O   UNL     1      63.516   7.135   2.743  1.00  0.00    -0.350 OA
HETATM    3  C   UNL     1      63.735   8.740   5.186  1.00  0.00     0.059 C 
HETATM    4  C   UNL     1      63.018   9.199   3.946  1.00  0.00    -0.024 A 
HETATM    5  C   UNL     1      63.836   6.567   4.020  1.00  0.00     0.191 C 
HETATM    6  C   UNL     1      62.956   8.383   2.809  1.00  0.00     0.075 A 
HETATM    7  C   UNL     1      62.393  10.452   3.919  1.00  0.00     0.010 A 
HETATM    8  C   UNL     1      62.335   8.838   1.647  1.00  0.00     0.037 A 
HETATM    9  C   UNL     1      61.755  10.898   2.761  1.00  0.00     0.001 A 
HETATM   10  C   UNL     1      61.734  10.096   1.622  1.00  0.00     0.003 A 
ENDROOT
BRANCH   1  11
HETATM   11  C   UNL     1      65.101   6.881   6.138  1.00  0.00     0.179 C 
HETATM   12  O   UNL     1      66.103   6.203   6.282  1.00  0.00    -0.648 OA
HETATM   13  O   UNL     1      64.301   7.145   7.191  1.00  0.00    -0.648 OA
ENDBRANCH   1  11
TORSDOF 1
ENDMDL
MODEL 3
REMARK VINA RESULT:      -5.0      2.463      5.110
REMARK  1 active torsions:
REMARK  status: ('A' for Active; 'I' for Inactive)
REMARK    1  A    between atoms: C_1  and  C_2 
ROOT
HETATM    1  C   UNL     1      63.211   9.129   3.919  1.00  0.00     0.115 C 
HETATM    2  O   UNL     1      64.998   9.279   5.573  1.00  0.00    -0.350 OA
HETATM    3  C   UNL     1      63.540   7.675   3.600  1.00  0.00     0.059 C 
HETATM    4  C   UNL     1      64.900   7.313   4.131  1.00  0.00    -0.024 A 
HETATM    5  C   UNL     1      63.584   9.395   5.369  1.00  0.00     0.191 C 
HETATM    6  C   UNL     1      65.544   8.128   5.069  1.00  0.00     0.075 A 
HETATM    7  C   UNL     1      65.536   6.144   3.695  1.00  0.00     0.010 A 
HETATM    8  C   UNL     1      66.827   7.813   5.517  1.00  0.00     0.037 A 
HETATM    9  C   UNL     1      66.812   5.819   4.158  1.00  0.00     0.001 A 
HETATM   10  C   UNL     1      67.461   6.658   5.061  1.00  0.00     0.003 A 
ENDROOT
BRANCH   1  11
HETATM   11  C   UNL     1      61.756   9.418   3.683  1.00  0.00     0.179 C 
HETATM   12  O   UNL     1      60.899   8.632   3.321  1.00  0.00    -0.648 OA
HETATM   13  O   UNL     1      61.431  10.696   3.965  1.00  0.00    -0.648 OA
ENDBRANCH   1  11
TORSDOF 1
ENDMDL
MODEL 4
REMARK VINA RESULT:      -4.9      2.061      2.968
REMARK  1 active torsions:
REMARK  status: ('A' for Active; 'I' for Inactive)
REMARK    1  A    between atoms: C_1  and  C_2 
ROOT
HETATM    1  C   UNL     1      65.211   6.851   5.121  1.00  0.00     0.115 C 
HETATM    2  O   UNL     1      64.969   9.135   5.943  1.00  0.00    -0.350 OA
HETATM    3  C   UNL     1      64.403   7.149   3.863  1.00  0.00     0.059 C 
HETATM    4  C   UNL     1      63.642   8.437   4.018  1.00  0.00    -0.024 A 
HETATM    5  C   UNL     1      65.913   8.130   5.551  1.00  0.00     0.191 C 
HETATM    6  C   UNL     1      63.961   9.341   5.039  1.00  0.00     0.075 A 
HETATM    7  C   UNL     1      62.606   8.751   3.129  1.00  0.00     0.010 A 
HETATM    8  C   UNL     1      63.217  10.507   5.207  1.00  0.00     0.037 A 
HETATM    9  C   UNL     1      61.874   9.929   3.287  1.00  0.00     0.001 A 
HETATM   10  C   UNL     1      62.173  10.802   4.331  1.00  0.00     0.003 A 
ENDROOT
BRANCH   1  11
HETATM   11  C   UNL     1      66.209   5.755   4.875  1.00  0.00     0.179 C 
HETATM   12  O   UNL     1      67.392   5.882   4.616  1.00  0.00    -0.648 OA
HETATM   13  O   UNL     1      65.672   4.526   5.017  1.00  0.00    -0.648 OA
ENDBRANCH   1  11
TORSDOF 1
ENDMDL
MODEL 5
REMARK VINA RESULT:      -4.7      1.491      2.571
REMARK  1 active torsions:
REMARK  status: ('A' for Active; 'I' for Inactive)
REMARK    1  A    between atoms: C_1  and  C_2 
ROOT
HETATM    1  C   UNL     1      63.954   7.488   5.334  1.00  0.00     0.115 C 
HETATM    2  O   UNL     1      63.115   9.626   4.510  1.00  0.00    -0.350 OA
HETATM    3  C   UNL     1      63.993   6.890   3.932  1.00  0.00     0.059 C 
HETATM    4  C   UNL     1      63.187   7.728   2.978  1.00  0.00    -0.024 A 
HETATM    5  C   UNL     1      64.185   8.987   5.218  1.00  0.00     0.191 C 
HETATM    6  C   UNL     1      62.794   9.028   3.320  1.00  0.00     0.075 A 
HETATM    7  C   UNL     1      62.826   7.215   1.725  1.00  0.00     0.010 A 
HETATM    8  C   UNL     1      62.003   9.778   2.452  1.00  0.00     0.037 A 
HETATM    9  C   UNL     1      62.051   7.975   0.848  1.00  0.00     0.001 A 
HETATM   10  C   UNL     1      61.631   9.252   1.215  1.00  0.00     0.003 A 
ENDROOT
BRANCH   1  11
HETATM   11  C   UNL     1      64.991   6.858   6.220  1.00  0.00     0.179 C 
HETATM   12  O   UNL     1      65.234   5.671   6.339  1.00  0.00    -0.648 OA
HETATM   13  O   UNL     1      65.719   7.772   6.892  1.00  0.00    -0.648 OA
ENDBRANCH   1  11
TORSDOF 1
ENDMDL
MODEL 6
REMARK VINA RESULT:      -4.6      1.771      2.936
REMARK  1 active torsions:
REMARK  status: ('A' for Active; 'I' for Inactive)
REMARK    1  A    between atoms: C_1  and  C_2 
ROOT
HETATM    1  C   UNL     1      65.218   7.352   5.631  1.00  0.00     0.115 C 
HETATM    2  O   UNL     1      63.000   6.349   5.805  1.00  0.00    -0.350 OA
HETATM    3  C   UNL     1      64.667   8.612   4.973  1.00  0.00     0.059 C 
HETATM    4  C   UNL     1      63.266   8.379   4.478  1.00  0.00    -0.024 A 
HETATM    5  C   UNL     1      64.145   6.786   6.549  1.00  0.00     0.191 C 
HETATM    6  C   UNL     1      62.526   7.273   4.911  1.00  0.00     0.075 A 
HETATM    7  C   UNL     1      62.681   9.279   3.578  1.00  0.00     0.010 A 
HETATM    8  C   UNL     1      61.248   7.036   4.407  1.00  0.00     0.037 A 
HETATM    9  C   UNL     1      61.393   9.052   3.089  1.00  0.00     0.001 A 
HETATM   10  C   UNL     1      60.681   7.926   3.496  1.00  0.00     0.003 A 
ENDROOT
BRANCH   1  11
HETATM   11  C   UNL     1      66.472   7.648   6.402  1.00  0.00     0.179 C 
HETATM   12  O   UNL     1      67.379   6.876   6.657  1.00  0.00    -0.648 OA
HETATM   13  O   UNL     1      66.551   8.939   6.784  1.00  0.00    -0.648 OA
ENDBRANCH   1  11
TORSDOF 1
ENDMDL
MODEL 7
REMARK VINA RESULT:      -4.5      2.233      4.782
REMARK  1 active torsions:
REMARK  status: ('A' for Active; 'I' for Inactive)
REMARK    1  A    between atoms: C_1  and  C_2 
ROOT
HETATM    1  C   UNL     1      62.822   9.111   4.247  1.00  0.00     0.115 C 
HETATM    2  O   UNL     1      63.617   7.004   3.309  1.00  0.00    -0.350 OA
HETATM    3  C   UNL     1      64.139   9.358   4.974  1.00  0.00     0.059 C 
HETATM    4  C   UNL     1      64.954   8.096   5.032  1.00  0.00    -0.024 A 
HETATM    5  C   UNL     1      63.117   8.308   2.989  1.00  0.00     0.191 C 
HETATM    6  C   UNL     1      64.646   7.004   4.212  1.00  0.00     0.075 A 
HETATM    7  C   UNL     1      66.043   8.003   5.909  1.00  0.00     0.010 A 
HETATM    8  C   UNL     1      65.375   5.819   4.309  1.00  0.00     0.037 A 
HETATM    9  C   UNL     1      66.785   6.823   5.991  1.00  0.00     0.001 A 
HETATM   10  C   UNL     1      66.445   5.729   5.199  1.00  0.00     0.003 A 
ENDROOT
BRANCH   1  11
HETATM   11  C   UNL     1      62.143  10.406   3.903  1.00  0.00     0.179 C 
HETATM   12  O   UNL     1      62.000  11.376   4.625  1.00  0.00    -0.648 OA
HETATM   13  O   UNL     1      61.709  10.438   2.626  1.00  0.00    -0.648 OA
ENDBRANCH   1  11
TORSDOF 1
ENDMDL
MODEL 8
REMARK VINA RESULT:      -4.3      1.945      2.631
REMARK  1 active torsions:
REMARK  status: ('A' for Active; 'I' for Inactive)
REMARK    1  A    between atoms: C_1  and  C_2 
ROOT
HETATM    1  C   UNL     1      63.693   6.647   2.303  1.00  0.00     0.115 C 
HETATM    2  O   UNL     1      62.407   8.210   0.940  1.00  0.00    -0.350 OA
HETATM    3  C   UNL     1      63.309   7.358   3.595  1.00  0.00     0.059 C 
HETATM    4  C   UNL     1      62.750   8.723   3.300  1.00  0.00    -0.024 A 
HETATM    5  C   UNL     1      62.560   6.832   1.304  1.00  0.00     0.191 C 
HETATM    6  C   UNL     1      62.342   9.067   2.006  1.00  0.00     0.075 A 
HETATM    7  C   UNL     1      62.621   9.666   4.328  1.00  0.00     0.010 A 
HETATM    8  C   UNL     1      61.873  10.351   1.731  1.00  0.00     0.037 A 
HETATM    9  C   UNL     1      62.133  10.945   4.056  1.00  0.00     0.001 A 
HETATM   10  C   UNL     1      61.768  11.290   2.756  1.00  0.00     0.003 A 
ENDROOT
BRANCH   1  11
HETATM   11  C   UNL     1      63.953   5.188   2.545  1.00  0.00     0.179 C 
HETATM   12  O   UNL     1      64.901   4.534   2.150  1.00  0.00    -0.648 OA
HETATM   13  O   UNL     1      63.014   4.619   3.328  1.00  0.00    -0.648 OA
ENDBRANCH   1  11
TORSDOF 1
ENDMDL
MODEL 9
REMARK VINA RESULT:      -4.0      2.979      4.376
REMARK  1 active torsions:
REMARK  status: ('A' for Active; 'I' for Inactive)
REMARK    1  A    between atoms: C_1  and  C_2 
ROOT
HETATM    1  C   UNL     1      61.402   9.716   3.368  1.00  0.00     0.115 C 
HETATM    2  O   UNL     1      61.150   9.287   0.980  1.00  0.00    -0.350 OA
HETATM    3  C   UNL     1      61.223   8.243   3.717  1.00  0.00     0.059 C 
HETATM    4  C   UNL     1      60.642   7.491   2.551  1.00  0.00    -0.024 A 
HETATM    5  C   UNL     1      62.030   9.805   1.986  1.00  0.00     0.191 C 
HETATM    6  C   UNL     1      60.634   8.051   1.268  1.00  0.00     0.075 A 
HETATM    7  C   UNL     1      60.109   6.209   2.738  1.00  0.00     0.010 A 
HETATM    8  C   UNL     1      60.047   7.369   0.203  1.00  0.00     0.037 A 
HETATM    9  C   UNL     1      59.539   5.519   1.666  1.00  0.00     0.001 A 
HETATM   10  C   UNL     1      59.499   6.103   0.402  1.00  0.00     0.003 A 
ENDROOT
BRANCH   1  11
HETATM   11  C   UNL     1      62.259  10.412   4.386  1.00  0.00     0.179 C 
HETATM   12  O   UNL     1      63.138   9.919   5.070  1.00  0.00    -0.648 OA
HETATM   13  O   UNL     1      61.998  11.733   4.464  1.00  0.00    -0.648 OA
ENDBRANCH   1  11
TORSDOF 1
ENDMDL
