MODEL 1
REMARK VINA RESULT:      -4.9      0.000      0.000
REMARK  2 active torsions:
REMARK  status: ('A' for Active; 'I' for Inactive)
REMARK    1  A    between atoms: N_1  and  C_3 
REMARK    2  A    between atoms: C_2  and  C_4 
ROOT
HETATM    1  C   UNL     1      63.482   8.408   4.771  1.00  0.00     0.038 A 
HETATM    2  C   UNL     1      64.786   6.726   6.622  1.00  0.00     0.041 A 
HETATM    3  C   UNL     1      62.776   7.391   5.433  1.00  0.00     0.031 A 
HETATM    4  C   UNL     1      64.845   8.579   5.055  1.00  0.00     0.031 A 
HETATM    5  C   UNL     1      65.490   7.744   5.975  1.00  0.00     0.020 A 
HETATM    6  C   UNL     1      63.426   6.554   6.350  1.00  0.00     0.020 A 
ENDROOT
BRANCH   1   7
HETATM    7  N   UNL     1      62.827   9.248   3.813  1.00  0.00    -0.333 N 
HETATM    8  C   UNL     1      62.331  10.522   4.029  1.00  0.00     0.096 A 
HETATM    9  C   UNL     1      61.750  10.991   2.872  1.00  0.00     0.019 A 
HETATM   10  C   UNL     1      61.889   9.985   1.899  1.00  0.00     0.019 A 
HETATM   11  C   UNL     1      62.555   8.935   2.493  1.00  0.00     0.096 A 
ENDBRANCH   1   7
BRANCH   2  12
HETATM   12  C   UNL     1      65.519   5.860   7.574  1.00  0.00     0.209 C 
HETATM   13  O   UNL     1      65.415   4.650   7.663  1.00  0.00    -0.644 OA
HETATM   14  O   UNL     1      66.348   6.550   8.376  1.00  0.00    -0.644 OA
ENDBRANCH   2  12
TORSDOF 2
ENDMDL
MODEL 2
REMARK VINA RESULT:      -4.9      1.061      2.094
REMARK  2 active torsions:
REMARK  status: ('A' for Active; 'I' for Inactive)
REMARK    1  A    between atoms: N_1  and  C_3 
REMARK    2  A    between atoms: C_2  and  C_4 
ROOT
HETATM    1  C   UNL     1      64.242   8.155   5.340  1.00  0.00     0.038 A 
HETATM    2  C   UNL     1      65.986   6.666   6.985  1.00  0.00     0.041 A 
HETATM    3  C   UNL     1      65.605   8.483   5.418  1.00  0.00     0.031 A 
HETATM    4  C   UNL     1      63.766   7.067   6.087  1.00  0.00     0.031 A 
HETATM    5  C   UNL     1      64.633   6.329   6.902  1.00  0.00     0.020 A 
HETATM    6  C   UNL     1      66.469   7.744   6.238  1.00  0.00     0.020 A 
ENDROOT
BRANCH   1   7
HETATM    7  N   UNL     1      63.351   8.924   4.525  1.00  0.00    -0.333 N 
HETATM    8  C   UNL     1      62.905   8.604   3.254  1.00  0.00     0.096 A 
HETATM    9  C   UNL     1      62.082   9.606   2.790  1.00  0.00     0.019 A 
HETATM   10  C   UNL     1      62.004  10.582   3.800  1.00  0.00     0.019 A 
HETATM   11  C   UNL     1      62.779  10.141   4.851  1.00  0.00     0.096 A 
ENDBRANCH   1   7
BRANCH   2  12
HETATM   12  C   UNL     1      66.857   5.863   7.873  1.00  0.00     0.209 C 
HETATM   13  O   UNL     1      68.070   5.778   7.795  1.00  0.00    -0.644 OA
HETATM   14  O   UNL     1      66.170   5.200   8.819  1.00  0.00    -0.644 OA
ENDBRANCH   2  12
TORSDOF 2
ENDMDL
MODEL 3
REMARK VINA RESULT:      -4.8      3.693      5.910
REMARK  2 active torsions:
REMARK  status: ('A' for Active; 'I' for Inactive)
REMARK    1  A    between atoms: N_1  and  C_3 
REMARK    2  A    between atoms: C_2  and  C_4 
ROOT
HETATM    1  C   UNL     1      64.177   8.073   4.947  1.00  0.00     0.038 A 
HETATM    2  C   UNL     1      62.513   9.107   2.917  1.00  0.00     0.041 A 
HETATM    3  C   UNL     1      63.545   9.316   5.106  1.00  0.00     0.031 A 
HETATM    4  C   UNL     1      63.958   7.350   3.765  1.00  0.00     0.031 A 
HETATM    5  C   UNL     1      63.131   7.864   2.759  1.00  0.00     0.020 A 
HETATM    6  C   UNL     1      62.721   9.830   4.095  1.00  0.00     0.020 A 
ENDROOT
BRANCH   1   7
HETATM    7  N   UNL     1      65.041   7.557   5.966  1.00  0.00    -0.333 N 
HETATM    8  C   UNL     1      64.757   6.536   6.856  1.00  0.00     0.096 A 
HETATM    9  C   UNL     1      65.830   6.347   7.698  1.00  0.00     0.019 A 
HETATM   10  C   UNL     1      66.820   7.273   7.323  1.00  0.00     0.019 A 
HETATM   11  C   UNL     1      66.320   7.995   6.261  1.00  0.00     0.096 A 
ENDBRANCH   1   7
BRANCH   2  12
HETATM   12  C   UNL     1      61.661   9.614   1.817  1.00  0.00     0.209 C 
HETATM   13  O   UNL     1      60.983   8.933   1.069  1.00  0.00    -0.644 OA
HETATM   14  O   UNL     1      61.699  10.952   1.700  1.00  0.00    -0.644 OA
ENDBRANCH   2  12
TORSDOF 2
ENDMDL
MODEL 4
REMARK VINA RESULT:      -4.6      3.740      5.887
REMARK  2 active torsions:
REMARK  status: ('A' for Active; 'I' for Inactive)
REMARK    1  A    between atoms: N_1  and  C_3 
REMARK    2  A    between atoms: C_2  and  C_4 
ROOT
HETATM    1  C   UNL     1      64.992   7.206   4.706  1.00  0.00     0.038 A 
HETATM    2  C   UNL     1      63.053   9.083   3.882  1.00  0.00     0.041 A 
HETATM    3  C   UNL     1      64.823   8.412   5.404  1.00  0.00     0.031 A 
HETATM    4  C   UNL     1      64.171   6.947   3.598  1.00  0.00     0.031 A 
HETATM    5  C   UNL     1      63.209   7.879   3.191  1.00  0.00     0.020 A 
HETATM    6  C   UNL     1      63.861   9.345   4.993  1.00  0.00     0.020 A 
ENDROOT
BRANCH   1   7
HETATM    7  N   UNL     1      65.992   6.263   5.107  1.00  0.00    -0.333 N 
HETATM    8  C   UNL     1      66.764   6.311   6.255  1.00  0.00     0.096 A 
HETATM    9  C   UNL     1      67.629   5.240   6.273  1.00  0.00     0.019 A 
HETATM   10  C   UNL     1      67.391   4.494   5.105  1.00  0.00     0.019 A 
HETATM   11  C   UNL     1      66.384   5.132   4.413  1.00  0.00     0.096 A 
ENDBRANCH   1   7
BRANCH   2  12
HETATM   12  C   UNL     1      62.031  10.042   3.403  1.00  0.00     0.209 C 
HETATM   13  O   UNL     1      61.571  10.971   4.040  1.00  0.00    -0.644 OA
HETATM   14  O   UNL     1      61.629   9.791   2.145  1.00  0.00    -0.644 OA
ENDBRANCH   2  12
TORSDOF 2
ENDMDL
MODEL 5
REMARK VINA RESULT:      -4.6      2.210      2.931
REMARK  2 active torsions:
REMARK  status: ('A' for Active; 'I' for Inactive)
REMARK    1  A    between atoms: N_1  and  C_3 
REMARK    2  A    between atoms: C_2  and  C_4 
ROOT
HETATM    1  C   UNL     1      62.614   7.998   3.233  1.00  0.00     0.038 A 
HETATM    2  C   UNL     1      64.935   8.030   4.836  1.00  0.00     0.041 A 
HETATM    3  C   UNL     1      63.559   6.964   3.143  1.00  0.00     0.031 A 
HETATM    4  C   UNL     1      62.840   9.041   4.143  1.00  0.00     0.031 A 
HETATM    5  C   UNL     1      63.992   9.055   4.938  1.00  0.00     0.020 A 
HETATM    6  C   UNL     1      64.713   6.982   3.938  1.00  0.00     0.020 A 
ENDROOT
BRANCH   1   7
HETATM    7  N   UNL     1      61.447   7.996   2.403  1.00  0.00    -0.333 N 
HETATM    8  C   UNL     1      60.250   7.350   2.657  1.00  0.00     0.096 A 
HETATM    9  C   UNL     1      59.380   7.565   1.611  1.00  0.00     0.019 A 
HETATM   10  C   UNL     1      60.048   8.374   0.674  1.00  0.00     0.019 A 
HETATM   11  C   UNL     1      61.304   8.630   1.182  1.00  0.00     0.096 A 
ENDBRANCH   1   7
BRANCH   2  12
HETATM   12  C   UNL     1      66.145   8.099   5.689  1.00  0.00     0.209 C 
HETATM   13  O   UNL     1      66.170   7.991   6.901  1.00  0.00    -0.644 OA
HETATM   14  O   UNL     1      67.270   8.304   4.983  1.00  0.00    -0.644 OA
ENDBRANCH   2  12
TORSDOF 2
ENDMDL
MODEL 6
REMARK VINA RESULT:      -4.5      3.735      5.908
REMARK  2 active torsions:
REMARK  status: ('A' for Active; 'I' for Inactive)
REMARK    1  A    between atoms: N_1  and  C_3 
REMARK    2  A    between atoms: C_2  and  C_4 
ROOT
HETATM    1  C   UNL     1      62.512   7.348   5.128  1.00  0.00     0.038 A 
HETATM    2  C   UNL     1      62.189   9.903   3.977  1.00  0.00     0.041 A 
HETATM    3  C   UNL     1      63.378   8.399   5.467  1.00  0.00     0.031 A 
HETATM    4  C   UNL     1      61.476   7.595   4.214  1.00  0.00     0.031 A 
HETATM    5  C   UNL     1      61.317   8.864   3.645  1.00  0.00     0.020 A 
HETATM    6  C   UNL     1      63.218   9.667   4.893  1.00  0.00     0.020 A 
ENDROOT
BRANCH   1   7
HETATM    7  N   UNL     1      62.688   6.044   5.692  1.00  0.00    -0.333 N 
HETATM    8  C   UNL     1      63.890   5.412   5.960  1.00  0.00     0.096 A 
HETATM    9  C   UNL     1      63.646   4.158   6.476  1.00  0.00     0.019 A 
HETATM   10  C   UNL     1      62.250   3.999   6.538  1.00  0.00     0.019 A 
HETATM   11  C   UNL     1      61.687   5.163   6.063  1.00  0.00     0.096 A 
ENDBRANCH   1   7
BRANCH   2  12
HETATM   12  C   UNL     1      61.988  11.223   3.335  1.00  0.00     0.209 C 
HETATM   13  O   UNL     1      61.997  11.442   2.137  1.00  0.00    -0.644 OA
HETATM   14  O   UNL     1      61.787  12.211   4.224  1.00  0.00    -0.644 OA
ENDBRANCH   2  12
TORSDOF 2
ENDMDL
MODEL 7
REMARK VINA RESULT:      -4.4      3.750      5.799
REMARK  2 active torsions:
REMARK  status: ('A' for Active; 'I' for Inactive)
REMARK    1  A    between atoms: N_1  and  C_3 
REMARK    2  A    between atoms: C_2  and  C_4 
ROOT
HETATM    1  C   UNL     1      63.719   7.342   4.592  1.00  0.00     0.038 A 
HETATM    2  C   UNL     1      62.588   9.770   3.706  1.00  0.00     0.041 A 
HETATM    3  C   UNL     1      63.191   7.454   3.296  1.00  0.00     0.031 A 
HETATM    4  C   UNL     1      63.684   8.464   5.434  1.00  0.00     0.031 A 
HETATM    5  C   UNL     1      63.123   9.668   4.992  1.00  0.00     0.020 A 
HETATM    6  C   UNL     1      62.627   8.660   2.858  1.00  0.00     0.020 A 
ENDROOT
BRANCH   1   7
HETATM    7  N   UNL     1      64.272   6.104   5.052  1.00  0.00    -0.333 N 
HETATM    8  C   UNL     1      64.473   5.723   6.367  1.00  0.00     0.096 A 
HETATM    9  C   UNL     1      65.048   4.472   6.402  1.00  0.00     0.019 A 
HETATM   10  C   UNL     1      65.209   4.052   5.069  1.00  0.00     0.019 A 
HETATM   11  C   UNL     1      64.722   5.059   4.264  1.00  0.00     0.096 A 
ENDBRANCH   1   7
BRANCH   2  12
HETATM   12  C   UNL     1      61.993  11.062   3.293  1.00  0.00     0.209 C 
HETATM   13  O   UNL     1      61.739  11.998   4.029  1.00  0.00    -0.644 OA
HETATM   14  O   UNL     1      61.738  11.121   1.974  1.00  0.00    -0.644 OA
ENDBRANCH   2  12
TORSDOF 2
ENDMDL
MODEL 8
REMARK VINA RESULT:      -4.3      3.402      4.217
REMARK  2 active torsions:
REMARK  status: ('A' for Active; 'I' for Inactive)
REMARK    1  A    between atoms: N_1  and  C_3 
REMARK    2  A    between atoms: C_2  and  C_4 
ROOT
HETATM    1  C   UNL     1      60.665   7.817   3.525  1.00  0.00     0.038 A 
HETATM    2  C   UNL     1      63.254   8.416   4.474  1.00  0.00     0.041 A 
HETATM    3  C   UNL     1      61.352   8.950   3.061  1.00  0.00     0.031 A 
HETATM    4  C   UNL     1      61.295   6.983   4.461  1.00  0.00     0.031 A 
HETATM    5  C   UNL     1      62.579   7.281   4.930  1.00  0.00     0.020 A 
HETATM    6  C   UNL     1      62.637   9.248   3.535  1.00  0.00     0.020 A 
ENDROOT
BRANCH   1   7
HETATM    7  N   UNL     1      59.342   7.525   3.063  1.00  0.00    -0.333 N 
HETATM    8  C   UNL     1      58.225   7.283   3.844  1.00  0.00     0.096 A 
HETATM    9  C   UNL     1      57.145   7.015   3.032  1.00  0.00     0.019 A 
HETATM   10  C   UNL     1      57.595   7.095   1.702  1.00  0.00     0.019 A 
HETATM   11  C   UNL     1      58.935   7.414   1.745  1.00  0.00     0.096 A 
ENDBRANCH   1   7
BRANCH   2  12
HETATM   12  C   UNL     1      64.605   8.696   5.013  1.00  0.00     0.209 C 
HETATM   13  O   UNL     1      65.600   8.018   4.831  1.00  0.00    -0.644 OA
HETATM   14  O   UNL     1      64.648   9.812   5.761  1.00  0.00    -0.644 OA
ENDBRANCH   2  12
TORSDOF 2
ENDMDL
MODEL 9
REMARK VINA RESULT:      -4.2      2.882      3.452
REMARK  2 active torsions:
REMARK  status: ('A' for Active; 'I' for Inactive)
REMARK    1  A    between atoms: N_1  and  C_3 
REMARK    2  A    between atoms: C_2  and  C_4 
ROOT
HETATM    1  C   UNL     1      61.132   7.741   3.785  1.00  0.00     0.038 A 
HETATM    2  C   UNL     1      63.652   7.930   5.038  1.00  0.00     0.041 A 
HETATM    3  C   UNL     1      61.428   6.962   4.915  1.00  0.00     0.031 A 
HETATM    4  C   UNL     1      62.109   8.622   3.297  1.00  0.00     0.031 A 
HETATM    5  C   UNL     1      63.358   8.715   3.921  1.00  0.00     0.020 A 
HETATM    6  C   UNL     1      62.682   7.056   5.535  1.00  0.00     0.020 A 
ENDROOT
BRANCH   1   7
HETATM    7  N   UNL     1      59.862   7.629   3.133  1.00  0.00    -0.333 N 
HETATM    8  C   UNL     1      58.625   7.501   3.741  1.00  0.00     0.096 A 
HETATM    9  C   UNL     1      57.647   7.395   2.778  1.00  0.00     0.019 A 
HETATM   10  C   UNL     1      58.286   7.462   1.527  1.00  0.00     0.019 A 
HETATM   11  C   UNL     1      59.635   7.612   1.768  1.00  0.00     0.096 A 
ENDBRANCH   1   7
BRANCH   2  12
HETATM   12  C   UNL     1      64.995   8.055   5.652  1.00  0.00     0.209 C 
HETATM   13  O   UNL     1      65.969   8.573   5.137  1.00  0.00    -0.644 OA
HETATM   14  O   UNL     1      65.057   7.520   6.883  1.00  0.00    -0.644 OA
ENDBRANCH   2  12
TORSDOF 2
ENDMDL
