MODEL 1
REMARK VINA RESULT:      -4.4      0.000      0.000
REMARK  2 active torsions:
REMARK  status: ('A' for Active; 'I' for Inactive)
REMARK    1  A    between atoms: C_3  and  C_7 
REMARK    2  A    between atoms: C_7  and  O_10 
ROOT
HETATM    1  N   UNK     1      62.062  10.701   3.816  1.00  0.00    -0.340 N 
ATOM      2  HN  UNK     1      61.454  11.516   3.734  1.00  0.00     0.167 HD
HETATM    3  C   UNK     1      62.899  10.365   4.863  1.00  0.00     0.064 A 
HETATM    4  C   UNK     1      63.527   9.169   4.583  1.00  0.00     0.076 A 
HETATM    5  C   UNK     1      62.230   9.723   2.949  1.00  0.00     0.120 A 
HETATM    6  O   UNK     1      63.107   8.753   3.350  1.00  0.00    -0.301 OA
HETATM    7  C   UNK     1      64.485   8.299   5.285  1.00  0.00     0.079 C 
HETATM    8  C   UNK     1      61.616   9.538   1.620  1.00  0.00     0.098 C 
ENDROOT
BRANCH   3   9
HETATM    9  C   UNK     1      62.998  11.237   6.060  1.00  0.00     0.223 C 
BRANCH   9  10
HETATM   10  O   UNK     1      64.356  11.519   6.391  1.00  0.00    -0.395 OA
HETATM   11  H   UNK     1      64.737  12.108   5.721  1.00  0.00     0.209 HD
ENDBRANCH   9  10
ENDBRANCH   3   9
TORSDOF 2
ENDMDL
MODEL 2
REMARK VINA RESULT:      -4.3      1.360      2.651
REMARK  2 active torsions:
REMARK  status: ('A' for Active; 'I' for Inactive)
REMARK    1  A    between atoms: C_3  and  C_7 
REMARK    2  A    between atoms: C_7  and  O_10 
ROOT
HETATM    1  N   UNK     1      64.246   8.994   5.473  1.00  0.00    -0.340 N 
ATOM      2  HN  UNK     1      64.835   8.977   6.306  1.00  0.00     0.167 HD
HETATM    3  C   UNK     1      63.339   9.964   5.091  1.00  0.00     0.064 A 
HETATM    4  C   UNK     1      62.770   9.610   3.886  1.00  0.00     0.076 A 
HETATM    5  C   UNK     1      64.174   8.096   4.511  1.00  0.00     0.120 A 
HETATM    6  O   UNK     1      63.297   8.406   3.510  1.00  0.00    -0.301 OA
HETATM    7  C   UNK     1      61.785  10.216   2.975  1.00  0.00     0.079 C 
HETATM    8  C   UNK     1      64.896   6.816   4.373  1.00  0.00     0.098 C 
ENDROOT
BRANCH   3   9
HETATM    9  C   UNK     1      63.122  11.167   5.933  1.00  0.00     0.223 C 
BRANCH   9  10
HETATM   10  O   UNK     1      64.340  11.627   6.511  1.00  0.00    -0.395 OA
HETATM   11  H   UNK     1      64.376  11.364   7.444  1.00  0.00     0.209 HD
ENDBRANCH   9  10
ENDBRANCH   3   9
TORSDOF 2
ENDMDL
MODEL 3
REMARK VINA RESULT:      -3.9      1.586      2.426
REMARK  2 active torsions:
REMARK  status: ('A' for Active; 'I' for Inactive)
REMARK    1  A    between atoms: C_3  and  C_7 
REMARK    2  A    between atoms: C_7  and  O_10 
ROOT
HETATM    1  N   UNK     1      62.575   8.935   4.682  1.00  0.00    -0.340 N 
ATOM      2  HN  UNK     1      62.868   8.476   5.544  1.00  0.00     0.167 HD
HETATM    3  C   UNK     1      62.446  10.290   4.439  1.00  0.00     0.064 A 
HETATM    4  C   UNK     1      62.046  10.486   3.135  1.00  0.00     0.076 A 
HETATM    5  C   UNK     1      62.231   8.374   3.539  1.00  0.00     0.120 A 
HETATM    6  O   UNK     1      61.898   9.258   2.551  1.00  0.00    -0.301 OA
HETATM    7  C   UNK     1      61.767  11.659   2.290  1.00  0.00     0.079 C 
HETATM    8  C   UNK     1      62.150   6.943   3.190  1.00  0.00     0.098 C 
ENDROOT
BRANCH   3   9
HETATM    9  C   UNK     1      62.745  11.278   5.505  1.00  0.00     0.223 C 
BRANCH   9  10
HETATM   10  O   UNK     1      64.077  11.133   5.993  1.00  0.00    -0.395 OA
HETATM   11  H   UNK     1      64.626  11.857   5.654  1.00  0.00     0.209 HD
ENDBRANCH   9  10
ENDBRANCH   3   9
TORSDOF 2
ENDMDL
MODEL 4
REMARK VINA RESULT:      -3.7      3.736      5.430
REMARK  2 active torsions:
REMARK  status: ('A' for Active; 'I' for Inactive)
REMARK    1  A    between atoms: C_3  and  C_7 
REMARK    2  A    between atoms: C_7  and  O_10 
ROOT
HETATM    1  N   UNK     1      65.192   7.196   7.178  1.00  0.00    -0.340 N 
ATOM      2  HN  UNK     1      64.248   7.208   7.564  1.00  0.00     0.167 HD
HETATM    3  C   UNK     1      65.645   7.794   6.018  1.00  0.00     0.064 A 
HETATM    4  C   UNK     1      66.995   7.552   5.874  1.00  0.00     0.076 A 
HETATM    5  C   UNK     1      66.263   6.606   7.670  1.00  0.00     0.120 A 
HETATM    6  O   UNK     1      67.398   6.782   6.929  1.00  0.00    -0.301 OA
HETATM    7  C   UNK     1      68.028   7.925   4.893  1.00  0.00     0.079 C 
HETATM    8  C   UNK     1      66.400   5.788   8.890  1.00  0.00     0.098 C 
ENDROOT
BRANCH   3   9
HETATM    9  C   UNK     1      64.718   8.570   5.157  1.00  0.00     0.223 C 
BRANCH   9  10
HETATM   10  O   UNK     1      64.471   9.868   5.692  1.00  0.00    -0.395 OA
HETATM   11  H   UNK     1      64.007  10.407   5.032  1.00  0.00     0.209 HD
ENDBRANCH   9  10
ENDBRANCH   3   9
TORSDOF 2
ENDMDL
MODEL 5
REMARK VINA RESULT:      -3.7      1.782      2.449
REMARK  2 active torsions:
REMARK  status: ('A' for Active; 'I' for Inactive)
REMARK    1  A    between atoms: C_3  and  C_7 
REMARK    2  A    between atoms: C_7  and  O_10 
ROOT
HETATM    1  N   UNK     1      62.528   8.107   3.477  1.00  0.00    -0.340 N 
ATOM      2  HN  UNK     1      62.541   7.131   3.182  1.00  0.00     0.167 HD
HETATM    3  C   UNK     1      62.834   8.626   4.721  1.00  0.00     0.064 A 
HETATM    4  C   UNK     1      62.711   9.998   4.690  1.00  0.00     0.076 A 
HETATM    5  C   UNK     1      62.215   9.169   2.760  1.00  0.00     0.120 A 
HETATM    6  O   UNK     1      62.306  10.355   3.434  1.00  0.00    -0.301 OA
HETATM    7  C   UNK     1      62.915  11.091   5.655  1.00  0.00     0.079 C 
HETATM    8  C   UNK     1      61.779   9.249   1.353  1.00  0.00     0.098 C 
ENDROOT
BRANCH   3   9
HETATM    9  C   UNK     1      63.240   7.729   5.832  1.00  0.00     0.223 C 
BRANCH   9  10
HETATM   10  O   UNK     1      62.531   8.028   7.032  1.00  0.00    -0.395 OA
HETATM   11  H   UNK     1      61.792   8.624   6.831  1.00  0.00     0.209 HD
ENDBRANCH   9  10
ENDBRANCH   3   9
TORSDOF 2
ENDMDL
MODEL 6
REMARK VINA RESULT:      -3.7      1.710      3.624
REMARK  2 active torsions:
REMARK  status: ('A' for Active; 'I' for Inactive)
REMARK    1  A    between atoms: C_3  and  C_7 
REMARK    2  A    between atoms: C_7  and  O_10 
ROOT
HETATM    1  N   UNK     1      63.827   8.082   4.141  1.00  0.00    -0.340 N 
ATOM      2  HN  UNK     1      63.782   7.238   3.570  1.00  0.00     0.167 HD
HETATM    3  C   UNK     1      62.876   9.077   4.269  1.00  0.00     0.064 A 
HETATM    4  C   UNK     1      63.325  10.030   5.158  1.00  0.00     0.076 A 
HETATM    5  C   UNK     1      64.808   8.479   4.928  1.00  0.00     0.120 A 
HETATM    6  O   UNK     1      64.570   9.656   5.581  1.00  0.00    -0.301 OA
HETATM    7  C   UNK     1      62.782  11.279   5.717  1.00  0.00     0.079 C 
HETATM    8  C   UNK     1      66.111   7.838   5.190  1.00  0.00     0.098 C 
ENDROOT
BRANCH   3   9
HETATM    9  C   UNK     1      61.596   8.997   3.520  1.00  0.00     0.223 C 
BRANCH   9  10
HETATM   10  O   UNK     1      61.330  10.203   2.809  1.00  0.00    -0.395 OA
HETATM   11  H   UNK     1      60.653  10.039   2.135  1.00  0.00     0.209 HD
ENDBRANCH   9  10
ENDBRANCH   3   9
TORSDOF 2
ENDMDL
MODEL 7
REMARK VINA RESULT:      -3.7      2.037      2.704
REMARK  2 active torsions:
REMARK  status: ('A' for Active; 'I' for Inactive)
REMARK    1  A    between atoms: C_3  and  C_7 
REMARK    2  A    between atoms: C_7  and  O_10 
ROOT
HETATM    1  N   UNK     1      63.968   9.699   5.489  1.00  0.00    -0.340 N 
ATOM      2  HN  UNK     1      64.223  10.287   6.282  1.00  0.00     0.167 HD
HETATM    3  C   UNK     1      64.494   8.470   5.136  1.00  0.00     0.064 A 
HETATM    4  C   UNK     1      63.853   8.003   4.008  1.00  0.00     0.076 A 
HETATM    5  C   UNK     1      63.060   9.932   4.562  1.00  0.00     0.120 A 
HETATM    6  O   UNK     1      62.933   8.941   3.629  1.00  0.00    -0.301 OA
HETATM    7  C   UNK     1      63.937   6.787   3.183  1.00  0.00     0.079 C 
HETATM    8  C   UNK     1      62.179  11.104   4.394  1.00  0.00     0.098 C 
ENDROOT
BRANCH   3   9
HETATM    9  C   UNK     1      65.571   7.849   5.948  1.00  0.00     0.223 C 
BRANCH   9  10
HETATM   10  O   UNK     1      66.379   8.835   6.586  1.00  0.00    -0.395 OA
HETATM   11  H   UNK     1      67.311   8.574   6.532  1.00  0.00     0.209 HD
ENDBRANCH   9  10
ENDBRANCH   3   9
TORSDOF 2
ENDMDL
MODEL 8
REMARK VINA RESULT:      -3.6      2.157      2.366
REMARK  2 active torsions:
REMARK  status: ('A' for Active; 'I' for Inactive)
REMARK    1  A    between atoms: C_3  and  C_7 
REMARK    2  A    between atoms: C_7  and  O_10 
ROOT
HETATM    1  N   UNK     1      60.657   9.102   3.353  1.00  0.00    -0.340 N 
ATOM      2  HN  UNK     1      59.831   9.460   2.873  1.00  0.00     0.167 HD
HETATM    3  C   UNK     1      61.800   9.792   3.711  1.00  0.00     0.064 A 
HETATM    4  C   UNK     1      62.665   8.939   4.363  1.00  0.00     0.076 A 
HETATM    5  C   UNK     1      60.883   7.874   3.776  1.00  0.00     0.120 A 
HETATM    6  O   UNK     1      62.086   7.702   4.402  1.00  0.00    -0.301 OA
HETATM    7  C   UNK     1      63.991   9.070   4.990  1.00  0.00     0.079 C 
HETATM    8  C   UNK     1      60.030   6.676   3.660  1.00  0.00     0.098 C 
ENDROOT
BRANCH   3   9
HETATM    9  C   UNK     1      61.937  11.237   3.399  1.00  0.00     0.223 C 
BRANCH   9  10
HETATM   10  O   UNK     1      62.069  12.018   4.584  1.00  0.00    -0.395 OA
HETATM   11  H   UNK     1      62.277  11.437   5.333  1.00  0.00     0.209 HD
ENDBRANCH   9  10
ENDBRANCH   3   9
TORSDOF 2
ENDMDL
MODEL 9
REMARK VINA RESULT:      -3.6      4.202      5.938
REMARK  2 active torsions:
REMARK  status: ('A' for Active; 'I' for Inactive)
REMARK    1  A    between atoms: C_3  and  C_7 
REMARK    2  A    between atoms: C_7  and  O_10 
ROOT
HETATM    1  N   UNK     1      66.965   7.505   7.273  1.00  0.00    -0.340 N 
ATOM      2  HN  UNK     1      67.676   8.235   7.226  1.00  0.00     0.167 HD
HETATM    3  C   UNK     1      65.861   7.339   6.458  1.00  0.00     0.064 A 
HETATM    4  C   UNK     1      65.169   6.212   6.848  1.00  0.00     0.076 A 
HETATM    5  C   UNK     1      66.885   6.501   8.123  1.00  0.00     0.120 A 
HETATM    6  O   UNK     1      65.818   5.671   7.923  1.00  0.00    -0.301 OA
HETATM    7  C   UNK     1      63.963   5.509   6.380  1.00  0.00     0.079 C 
HETATM    8  C   UNK     1      67.775   6.161   9.250  1.00  0.00     0.098 C 
ENDROOT
BRANCH   3   9
HETATM    9  C   UNK     1      65.589   8.291   5.352  1.00  0.00     0.223 C 
BRANCH   9  10
HETATM   10  O   UNK     1      65.059   9.521   5.840  1.00  0.00    -0.395 OA
HETATM   11  H   UNK     1      64.091   9.465   5.874  1.00  0.00     0.209 HD
ENDBRANCH   9  10
ENDBRANCH   3   9
TORSDOF 2
ENDMDL
