MODEL 1
REMARK VINA RESULT:      -5.6      0.000      0.000
REMARK  3 active torsions:
REMARK  status: ('A' for Active; 'I' for Inactive)
REMARK    1  A    between atoms: C_3  and  C_7 
REMARK    2  A    between atoms: C_4  and  C_8 
REMARK    3  A    between atoms: C_8  and  N_9 
ROOT
HETATM    1  N   UNL     1      64.540   7.645   6.564  1.00  0.00    -0.336 N 
ATOM      2  HN  UNL     1      63.707   7.482   7.130  1.00  0.00     0.168 HD
HETATM    3  C   UNL     1      64.644   8.368   5.463  1.00  0.00     0.158 A 
HETATM    4  C   UNL     1      65.818   7.160   6.773  1.00  0.00     0.066 A 
HETATM    5  O   UNL     1      65.906   8.387   4.926  1.00  0.00    -0.296 OA
HETATM    6  C   UNL     1      66.649   7.613   5.769  1.00  0.00     0.075 A 
HETATM    7  C   UNL     1      68.075   7.455   5.443  1.00  0.00     0.079 C 
ENDROOT
BRANCH   3   8
HETATM    8  C   UNL     1      63.630   9.162   4.774  1.00  0.00     0.015 A 
HETATM    9  C   UNL     1      63.235  10.400   5.304  1.00  0.00     0.016 A 
HETATM   10  C   UNL     1      62.285  11.189   4.651  1.00  0.00     0.001 A 
HETATM   11  C   UNL     1      61.713  10.747   3.460  1.00  0.00     0.000 A 
HETATM   12  C   UNL     1      62.086   9.518   2.925  1.00  0.00     0.001 A 
HETATM   13  C   UNL     1      63.039   8.731   3.576  1.00  0.00     0.016 A 
ENDBRANCH   3   8
BRANCH   4  14
HETATM   14  C   UNL     1      66.132   6.294   7.939  1.00  0.00     0.288 C 
BRANCH  14  15
HETATM   15  N   UNL     1      67.135   6.957   8.768  1.00  0.00    -0.074 N 
HETATM   16  H   UNL     1      67.108   6.569   9.711  1.00  0.00     0.274 HD
HETATM   17  H   UNL     1      66.938   7.957   8.805  1.00  0.00     0.274 HD
HETATM   18  H   UNL     1      68.061   6.808   8.366  1.00  0.00     0.274 HD
ENDBRANCH  14  15
ENDBRANCH   4  14
TORSDOF 3
ENDMDL
MODEL 2
REMARK VINA RESULT:      -5.5      0.290      1.321
REMARK  3 active torsions:
REMARK  status: ('A' for Active; 'I' for Inactive)
REMARK    1  A    between atoms: C_3  and  C_7 
REMARK    2  A    between atoms: C_4  and  C_8 
REMARK    3  A    between atoms: C_8  and  N_9 
ROOT
HETATM    1  N   UNL     1      64.368   7.449   6.378  1.00  0.00    -0.336 N 
ATOM      2  HN  UNL     1      63.485   7.221   6.836  1.00  0.00     0.168 HD
HETATM    3  C   UNL     1      64.574   8.303   5.392  1.00  0.00     0.158 A 
HETATM    4  C   UNL     1      65.623   6.935   6.648  1.00  0.00     0.066 A 
HETATM    5  O   UNL     1      65.881   8.383   4.986  1.00  0.00    -0.296 OA
HETATM    6  C   UNL     1      66.544   7.506   5.794  1.00  0.00     0.075 A 
HETATM    7  C   UNL     1      67.996   7.382   5.590  1.00  0.00     0.079 C 
ENDROOT
BRANCH   3   8
HETATM    8  C   UNL     1      63.626   9.183   4.713  1.00  0.00     0.015 A 
HETATM    9  C   UNL     1      63.059   8.788   3.491  1.00  0.00     0.016 A 
HETATM   10  C   UNL     1      62.132   9.601   2.835  1.00  0.00     0.001 A 
HETATM   11  C   UNL     1      61.762  10.824   3.390  1.00  0.00     0.000 A 
HETATM   12  C   UNL     1      62.320  11.236   4.597  1.00  0.00     0.001 A 
HETATM   13  C   UNL     1      63.245  10.422   5.255  1.00  0.00     0.016 A 
ENDBRANCH   3   8
BRANCH   4  14
HETATM   14  C   UNL     1      65.829   5.928   7.722  1.00  0.00     0.288 C 
BRANCH  14  15
HETATM   15  N   UNL     1      66.492   6.568   8.854  1.00  0.00    -0.074 N 
HETATM   16  H   UNL     1      66.664   7.550   8.637  1.00  0.00     0.274 HD
HETATM   17  H   UNL     1      67.381   6.100   9.037  1.00  0.00     0.274 HD
HETATM   18  H   UNL     1      65.897   6.501   9.680  1.00  0.00     0.274 HD
ENDBRANCH  14  15
ENDBRANCH   4  14
TORSDOF 3
ENDMDL
MODEL 3
REMARK VINA RESULT:      -5.3      1.493      1.929
REMARK  3 active torsions:
REMARK  status: ('A' for Active; 'I' for Inactive)
REMARK    1  A    between atoms: C_3  and  C_7 
REMARK    2  A    between atoms: C_4  and  C_8 
REMARK    3  A    between atoms: C_8  and  N_9 
ROOT
HETATM    1  N   UNL     1      64.982   8.395   5.808  1.00  0.00    -0.336 N 
ATOM      2  HN  UNL     1      65.567   9.230   5.835  1.00  0.00     0.168 HD
HETATM    3  C   UNL     1      63.830   8.231   5.183  1.00  0.00     0.158 A 
HETATM    4  C   UNL     1      65.214   7.174   6.416  1.00  0.00     0.066 A 
HETATM    5  O   UNL     1      63.280   6.985   5.344  1.00  0.00    -0.296 OA
HETATM    6  C   UNL     1      64.171   6.317   6.133  1.00  0.00     0.075 A 
HETATM    7  C   UNL     1      63.842   4.923   6.472  1.00  0.00     0.079 C 
ENDROOT
BRANCH   3   8
HETATM    8  C   UNL     1      63.094   9.164   4.333  1.00  0.00     0.015 A 
HETATM    9  C   UNL     1      62.729  10.424   4.833  1.00  0.00     0.016 A 
HETATM   10  C   UNL     1      62.047  11.342   4.031  1.00  0.00     0.001 A 
HETATM   11  C   UNL     1      61.715  11.010   2.719  1.00  0.00     0.000 A 
HETATM   12  C   UNL     1      62.062   9.762   2.210  1.00  0.00     0.001 A 
HETATM   13  C   UNL     1      62.747   8.845   3.010  1.00  0.00     0.016 A 
ENDBRANCH   3   8
BRANCH   4  14
HETATM   14  C   UNL     1      66.438   6.936   7.224  1.00  0.00     0.288 C 
BRANCH  14  15
HETATM   15  N   UNL     1      67.056   8.220   7.541  1.00  0.00    -0.074 N 
HETATM   16  H   UNL     1      67.246   8.269   8.542  1.00  0.00     0.274 HD
HETATM   17  H   UNL     1      66.424   8.976   7.278  1.00  0.00     0.274 HD
HETATM   18  H   UNL     1      67.931   8.313   7.025  1.00  0.00     0.274 HD
ENDBRANCH  14  15
ENDBRANCH   4  14
TORSDOF 3
ENDMDL
MODEL 4
REMARK VINA RESULT:      -4.9      1.996      5.592
REMARK  3 active torsions:
REMARK  status: ('A' for Active; 'I' for Inactive)
REMARK    1  A    between atoms: C_3  and  C_7 
REMARK    2  A    between atoms: C_4  and  C_8 
REMARK    3  A    between atoms: C_8  and  N_9 
ROOT
HETATM    1  N   UNL     1      63.745   8.119   3.956  1.00  0.00    -0.336 N 
ATOM      2  HN  UNL     1      63.794   7.288   3.366  1.00  0.00     0.168 HD
HETATM    3  C   UNL     1      64.508   8.427   4.989  1.00  0.00     0.158 A 
HETATM    4  C   UNL     1      62.864   9.181   3.857  1.00  0.00     0.066 A 
HETATM    5  O   UNL     1      64.187   9.620   5.584  1.00  0.00    -0.296 OA
HETATM    6  C   UNL     1      63.136  10.094   4.855  1.00  0.00     0.075 A 
HETATM    7  C   UNL     1      62.573  11.391   5.265  1.00  0.00     0.079 C 
ENDROOT
BRANCH   3   8
HETATM    8  C   UNL     1      65.648   7.705   5.549  1.00  0.00     0.015 A 
HETATM    9  C   UNL     1      65.475   6.908   6.692  1.00  0.00     0.016 A 
HETATM   10  C   UNL     1      66.543   6.189   7.232  1.00  0.00     0.001 A 
HETATM   11  C   UNL     1      67.802   6.261   6.639  1.00  0.00     0.000 A 
HETATM   12  C   UNL     1      67.994   7.053   5.511  1.00  0.00     0.001 A 
HETATM   13  C   UNL     1      66.925   7.770   4.968  1.00  0.00     0.016 A 
ENDBRANCH   3   8
BRANCH   4  14
HETATM   14  C   UNL     1      61.828   9.226   2.793  1.00  0.00     0.288 C 
BRANCH  14  15
HETATM   15  N   UNL     1      60.536   8.866   3.371  1.00  0.00    -0.074 N 
HETATM   16  H   UNL     1      59.865   8.690   2.623  1.00  0.00     0.274 HD
HETATM   17  H   UNL     1      60.201   9.631   3.957  1.00  0.00     0.274 HD
HETATM   18  H   UNL     1      60.640   8.025   3.939  1.00  0.00     0.274 HD
ENDBRANCH  14  15
ENDBRANCH   4  14
TORSDOF 3
ENDMDL
MODEL 5
REMARK VINA RESULT:      -4.9      2.566      3.418
REMARK  3 active torsions:
REMARK  status: ('A' for Active; 'I' for Inactive)
REMARK    1  A    between atoms: C_3  and  C_7 
REMARK    2  A    between atoms: C_4  and  C_8 
REMARK    3  A    between atoms: C_8  and  N_9 
ROOT
HETATM    1  N   UNL     1      61.730   7.055   5.013  1.00  0.00    -0.336 N 
ATOM      2  HN  UNL     1      60.780   6.882   4.684  1.00  0.00     0.168 HD
HETATM    3  C   UNL     1      62.546   8.033   4.662  1.00  0.00     0.158 A 
HETATM    4  C   UNL     1      62.458   6.320   5.931  1.00  0.00     0.066 A 
HETATM    5  O   UNL     1      63.768   7.989   5.281  1.00  0.00    -0.296 OA
HETATM    6  C   UNL     1      63.703   6.892   6.090  1.00  0.00     0.075 A 
HETATM    7  C   UNL     1      64.895   6.593   6.900  1.00  0.00     0.079 C 
ENDROOT
BRANCH   3   8
HETATM    8  C   UNL     1      62.316   9.151   3.751  1.00  0.00     0.015 A 
HETATM    9  C   UNL     1      62.254   8.922   2.367  1.00  0.00     0.016 A 
HETATM   10  C   UNL     1      62.010   9.972   1.477  1.00  0.00     0.001 A 
HETATM   11  C   UNL     1      61.831  11.266   1.960  1.00  0.00     0.000 A 
HETATM   12  C   UNL     1      61.898  11.513   3.328  1.00  0.00     0.001 A 
HETATM   13  C   UNL     1      62.138  10.463   4.218  1.00  0.00     0.016 A 
ENDBRANCH   3   8
BRANCH   4  14
HETATM   14  C   UNL     1      61.881   5.117   6.587  1.00  0.00     0.288 C 
BRANCH  14  15
HETATM   15  N   UNL     1      60.507   5.406   6.986  1.00  0.00    -0.074 N 
HETATM   16  H   UNL     1      60.482   6.278   7.515  1.00  0.00     0.274 HD
HETATM   17  H   UNL     1      60.155   4.645   7.568  1.00  0.00     0.274 HD
HETATM   18  H   UNL     1      59.923   5.495   6.155  1.00  0.00     0.274 HD
ENDBRANCH  14  15
ENDBRANCH   4  14
TORSDOF 3
ENDMDL
MODEL 6
REMARK VINA RESULT:      -4.4      1.804      2.495
REMARK  3 active torsions:
REMARK  status: ('A' for Active; 'I' for Inactive)
REMARK    1  A    between atoms: C_3  and  C_7 
REMARK    2  A    between atoms: C_4  and  C_8 
REMARK    3  A    between atoms: C_8  and  N_9 
ROOT
HETATM    1  N   UNL     1      64.869   7.329   7.017  1.00  0.00    -0.336 N 
ATOM      2  HN  UNL     1      65.035   8.283   7.340  1.00  0.00     0.168 HD
HETATM    3  C   UNL     1      64.043   6.925   6.069  1.00  0.00     0.158 A 
HETATM    4  C   UNL     1      65.458   6.163   7.474  1.00  0.00     0.066 A 
HETATM    5  O   UNL     1      64.041   5.568   5.873  1.00  0.00    -0.296 OA
HETATM    6  C   UNL     1      64.948   5.090   6.774  1.00  0.00     0.075 A 
HETATM    7  C   UNL     1      65.167   3.635   6.787  1.00  0.00     0.079 C 
ENDROOT
BRANCH   3   8
HETATM    8  C   UNL     1      63.177   7.711   5.195  1.00  0.00     0.015 A 
HETATM    9  C   UNL     1      62.010   7.137   4.669  1.00  0.00     0.016 A 
HETATM   10  C   UNL     1      61.153   7.876   3.850  1.00  0.00     0.001 A 
HETATM   11  C   UNL     1      61.455   9.201   3.542  1.00  0.00     0.000 A 
HETATM   12  C   UNL     1      62.613   9.785   4.048  1.00  0.00     0.001 A 
HETATM   13  C   UNL     1      63.468   9.046   4.870  1.00  0.00     0.016 A 
ENDBRANCH   3   8
BRANCH   4  14
HETATM   14  C   UNL     1      66.477   6.187   8.555  1.00  0.00     0.288 C 
BRANCH  14  15
HETATM   15  N   UNL     1      67.365   7.327   8.348  1.00  0.00    -0.074 N 
HETATM   16  H   UNL     1      68.287   7.114   8.728  1.00  0.00     0.274 HD
HETATM   17  H   UNL     1      66.983   8.146   8.821  1.00  0.00     0.274 HD
HETATM   18  H   UNL     1      67.445   7.519   7.349  1.00  0.00     0.274 HD
ENDBRANCH  14  15
ENDBRANCH   4  14
TORSDOF 3
ENDMDL
MODEL 7
REMARK VINA RESULT:      -4.3      2.743      5.709
REMARK  3 active torsions:
REMARK  status: ('A' for Active; 'I' for Inactive)
REMARK    1  A    between atoms: C_3  and  C_7 
REMARK    2  A    between atoms: C_4  and  C_8 
REMARK    3  A    between atoms: C_8  and  N_9 
ROOT
HETATM    1  N   UNL     1      61.780   7.266   4.297  1.00  0.00    -0.336 N 
ATOM      2  HN  UNL     1      61.412   6.558   4.933  1.00  0.00     0.168 HD
HETATM    3  C   UNL     1      62.961   7.858   4.338  1.00  0.00     0.158 A 
HETATM    4  C   UNL     1      61.158   7.827   3.196  1.00  0.00     0.066 A 
HETATM    5  O   UNL     1      63.158   8.778   3.340  1.00  0.00    -0.296 OA
HETATM    6  C   UNL     1      62.002   8.752   2.616  1.00  0.00     0.075 A 
HETATM    7  C   UNL     1      61.926   9.649   1.453  1.00  0.00     0.079 C 
ENDROOT
BRANCH   3   8
HETATM    8  C   UNL     1      64.075   7.644   5.258  1.00  0.00     0.015 A 
HETATM    9  C   UNL     1      63.973   6.670   6.263  1.00  0.00     0.016 A 
HETATM   10  C   UNL     1      65.034   6.431   7.139  1.00  0.00     0.001 A 
HETATM   11  C   UNL     1      66.211   7.167   7.026  1.00  0.00     0.000 A 
HETATM   12  C   UNL     1      66.327   8.143   6.040  1.00  0.00     0.001 A 
HETATM   13  C   UNL     1      65.267   8.380   5.161  1.00  0.00     0.016 A 
ENDBRANCH   3   8
BRANCH   4  14
HETATM   14  C   UNL     1      59.789   7.414   2.792  1.00  0.00     0.288 C 
BRANCH  14  15
HETATM   15  N   UNL     1      58.815   8.115   3.623  1.00  0.00    -0.074 N 
HETATM   16  H   UNL     1      58.564   9.000   3.181  1.00  0.00     0.274 HD
HETATM   17  H   UNL     1      59.221   8.298   4.542  1.00  0.00     0.274 HD
HETATM   18  H   UNL     1      57.980   7.539   3.729  1.00  0.00     0.274 HD
ENDBRANCH  14  15
ENDBRANCH   4  14
TORSDOF 3
ENDMDL
MODEL 8
REMARK VINA RESULT:      -4.3      2.134      2.989
REMARK  3 active torsions:
REMARK  status: ('A' for Active; 'I' for Inactive)
REMARK    1  A    between atoms: C_3  and  C_7 
REMARK    2  A    between atoms: C_4  and  C_8 
REMARK    3  A    between atoms: C_8  and  N_9 
ROOT
HETATM    1  N   UNL     1      65.393   5.279   6.324  1.00  0.00    -0.336 N 
ATOM      2  HN  UNL     1      65.206   4.625   5.563  1.00  0.00     0.168 HD
HETATM    3  C   UNL     1      64.911   6.498   6.483  1.00  0.00     0.158 A 
HETATM    4  C   UNL     1      66.209   5.090   7.425  1.00  0.00     0.066 A 
HETATM    5  O   UNL     1      65.360   7.132   7.613  1.00  0.00    -0.296 OA
HETATM    6  C   UNL     1      66.188   6.226   8.208  1.00  0.00     0.075 A 
HETATM    7  C   UNL     1      66.822   6.634   9.472  1.00  0.00     0.079 C 
ENDROOT
BRANCH   3   8
HETATM    8  C   UNL     1      63.958   7.235   5.657  1.00  0.00     0.015 A 
HETATM    9  C   UNL     1      62.695   6.684   5.389  1.00  0.00     0.016 A 
HETATM   10  C   UNL     1      61.758   7.380   4.622  1.00  0.00     0.001 A 
HETATM   11  C   UNL     1      62.073   8.636   4.108  1.00  0.00     0.000 A 
HETATM   12  C   UNL     1      63.323   9.194   4.356  1.00  0.00     0.001 A 
HETATM   13  C   UNL     1      64.260   8.500   5.126  1.00  0.00     0.016 A 
ENDBRANCH   3   8
BRANCH   4  14
HETATM   14  C   UNL     1      66.943   3.815   7.631  1.00  0.00     0.288 C 
BRANCH  14  15
HETATM   15  N   UNL     1      65.984   2.715   7.671  1.00  0.00    -0.074 N 
HETATM   16  H   UNL     1      65.382   2.817   8.488  1.00  0.00     0.274 HD
HETATM   17  H   UNL     1      66.486   1.828   7.727  1.00  0.00     0.274 HD
HETATM   18  H   UNL     1      65.414   2.729   6.825  1.00  0.00     0.274 HD
ENDBRANCH  14  15
ENDBRANCH   4  14
TORSDOF 3
ENDMDL
MODEL 9
REMARK VINA RESULT:      -4.1      4.646      6.416
REMARK  3 active torsions:
REMARK  status: ('A' for Active; 'I' for Inactive)
REMARK    1  A    between atoms: C_3  and  C_7 
REMARK    2  A    between atoms: C_4  and  C_8 
REMARK    3  A    between atoms: C_8  and  N_9 
ROOT
HETATM    1  N   UNL     1      60.257   8.681   2.616  1.00  0.00    -0.336 N 
ATOM      2  HN  UNL     1      59.521   8.930   1.954  1.00  0.00     0.168 HD
HETATM    3  C   UNL     1      60.186   7.837   3.629  1.00  0.00     0.158 A 
HETATM    4  C   UNL     1      61.557   9.152   2.657  1.00  0.00     0.066 A 
HETATM    5  O   UNL     1      61.351   7.724   4.343  1.00  0.00    -0.296 OA
HETATM    6  C   UNL     1      62.221   8.567   3.715  1.00  0.00     0.075 A 
HETATM    7  C   UNL     1      63.583   8.648   4.267  1.00  0.00     0.079 C 
ENDROOT
BRANCH   3   8
HETATM    8  C   UNL     1      59.071   6.999   4.062  1.00  0.00     0.015 A 
HETATM    9  C   UNL     1      59.320   5.711   4.562  1.00  0.00     0.016 A 
HETATM   10  C   UNL     1      58.273   4.899   5.005  1.00  0.00     0.001 A 
HETATM   11  C   UNL     1      56.961   5.363   4.949  1.00  0.00     0.000 A 
HETATM   12  C   UNL     1      56.694   6.634   4.448  1.00  0.00     0.001 A 
HETATM   13  C   UNL     1      57.742   7.447   4.008  1.00  0.00     0.016 A 
ENDBRANCH   3   8
BRANCH   4  14
HETATM   14  C   UNL     1      62.053  10.135   1.659  1.00  0.00     0.288 C 
BRANCH  14  15
HETATM   15  N   UNL     1      61.640  11.475   2.063  1.00  0.00    -0.074 N 
HETATM   16  H   UNL     1      60.941  11.828   1.410  1.00  0.00     0.274 HD
HETATM   17  H   UNL     1      62.449  12.096   2.063  1.00  0.00     0.274 HD
HETATM   18  H   UNL     1      61.240  11.439   3.001  1.00  0.00     0.274 HD
ENDBRANCH  14  15
ENDBRANCH   4  14
TORSDOF 3
ENDMDL
