MODEL 1
REMARK VINA RESULT:      -5.5      0.000      0.000
REMARK  3 active torsions:
REMARK  status: ('A' for Active; 'I' for Inactive)
REMARK    1  A    between atoms: C_3  and  C_7 
REMARK    2  A    between atoms: C_4  and  C_8 
REMARK    3  A    between atoms: C_8  and  O_10 
ROOT
HETATM    1  N   UNK     1      64.533   7.659   6.542  1.00  0.00    -0.336 N 
ATOM      2  HN  UNK     1      63.703   7.524   7.118  1.00  0.00     0.168 HD
HETATM    3  C   UNK     1      64.632   8.318   5.400  1.00  0.00     0.158 A 
HETATM    4  C   UNK     1      65.816   7.193   6.774  1.00  0.00     0.064 A 
HETATM    5  O   UNK     1      65.895   8.317   4.866  1.00  0.00    -0.296 OA
HETATM    6  C   UNK     1      66.645   7.601   5.753  1.00  0.00     0.076 A 
HETATM    7  C   UNK     1      68.075   7.447   5.438  1.00  0.00     0.079 C 
ENDROOT
BRANCH   3   8
HETATM    8  C   UNK     1      63.609   9.052   4.658  1.00  0.00     0.015 A 
HETATM    9  C   UNK     1      63.163  10.297   5.128  1.00  0.00     0.016 A 
HETATM   10  C   UNK     1      62.198  11.024   4.424  1.00  0.00     0.001 A 
HETATM   11  C   UNK     1      61.664  10.513   3.243  1.00  0.00     0.000 A 
HETATM   12  C   UNK     1      62.091   9.276   2.766  1.00  0.00     0.001 A 
HETATM   13  C   UNK     1      63.057   8.551   3.468  1.00  0.00     0.016 A 
ENDBRANCH   3   8
BRANCH   4  14
HETATM   14  C   UNK     1      66.126   6.395   7.988  1.00  0.00     0.223 C 
BRANCH  14  15
HETATM   15  O   UNK     1      67.193   6.968   8.741  1.00  0.00    -0.395 OA
HETATM   16  H   UNK     1      67.510   6.326   9.395  1.00  0.00     0.209 HD
ENDBRANCH  14  15
ENDBRANCH   4  14
TORSDOF 3
ENDMDL
MODEL 2
REMARK VINA RESULT:      -5.3      2.109      5.172
REMARK  3 active torsions:
REMARK  status: ('A' for Active; 'I' for Inactive)
REMARK    1  A    between atoms: C_3  and  C_7 
REMARK    2  A    between atoms: C_4  and  C_8 
REMARK    3  A    between atoms: C_8  and  O_10 
ROOT
HETATM    1  N   UNK     1      64.650   9.149   5.621  1.00  0.00    -0.336 N 
ATOM      2  HN  UNK     1      65.250   9.359   6.419  1.00  0.00     0.168 HD
HETATM    3  C   UNK     1      64.724   8.116   4.799  1.00  0.00     0.158 A 
HETATM    4  C   UNK     1      63.572   9.879   5.150  1.00  0.00     0.064 A 
HETATM    5  O   UNK     1      63.766   8.118   3.818  1.00  0.00    -0.296 OA
HETATM    6  C   UNK     1      63.032   9.244   4.054  1.00  0.00     0.076 A 
HETATM    7  C   UNK     1      61.902   9.501   3.145  1.00  0.00     0.079 C 
ENDROOT
BRANCH   3   8
HETATM    8  C   UNK     1      65.648   6.985   4.807  1.00  0.00     0.015 A 
HETATM    9  C   UNK     1      66.257   6.587   6.007  1.00  0.00     0.016 A 
HETATM   10  C   UNK     1      67.131   5.497   6.040  1.00  0.00     0.001 A 
HETATM   11  C   UNK     1      67.412   4.792   4.871  1.00  0.00     0.000 A 
HETATM   12  C   UNK     1      66.822   5.178   3.670  1.00  0.00     0.001 A 
HETATM   13  C   UNK     1      65.946   6.266   3.638  1.00  0.00     0.016 A 
ENDBRANCH   3   8
BRANCH   4  14
HETATM   14  C   UNK     1      63.154  11.135   5.823  1.00  0.00     0.223 C 
BRANCH  14  15
HETATM   15  O   UNK     1      64.226  11.727   6.554  1.00  0.00    -0.395 OA
HETATM   16  H   UNK     1      64.352  12.643   6.260  1.00  0.00     0.209 HD
ENDBRANCH  14  15
ENDBRANCH   4  14
TORSDOF 3
ENDMDL
MODEL 3
REMARK VINA RESULT:      -5.3      1.540      1.971
REMARK  3 active torsions:
REMARK  status: ('A' for Active; 'I' for Inactive)
REMARK    1  A    between atoms: C_3  and  C_7 
REMARK    2  A    between atoms: C_4  and  C_8 
REMARK    3  A    between atoms: C_8  and  O_10 
ROOT
HETATM    1  N   UNK     1      64.837   8.364   5.868  1.00  0.00    -0.336 N 
ATOM      2  HN  UNK     1      65.422   9.196   5.944  1.00  0.00     0.168 HD
HETATM    3  C   UNK     1      63.724   8.214   5.171  1.00  0.00     0.158 A 
HETATM    4  C   UNK     1      65.025   7.132   6.472  1.00  0.00     0.064 A 
HETATM    5  O   UNK     1      63.167   6.965   5.276  1.00  0.00    -0.296 OA
HETATM    6  C   UNK     1      64.008   6.280   6.104  1.00  0.00     0.076 A 
HETATM    7  C   UNK     1      63.661   4.878   6.389  1.00  0.00     0.079 C 
ENDROOT
BRANCH   3   8
HETATM    8  C   UNK     1      63.034   9.165   4.303  1.00  0.00     0.015 A 
HETATM    9  C   UNK     1      62.680  10.431   4.795  1.00  0.00     0.016 A 
HETATM   10  C   UNK     1      62.034  11.362   3.977  1.00  0.00     0.001 A 
HETATM   11  C   UNK     1      61.732  11.039   2.655  1.00  0.00     0.000 A 
HETATM   12  C   UNK     1      62.070   9.785   2.153  1.00  0.00     0.001 A 
HETATM   13  C   UNK     1      62.717   8.855   2.971  1.00  0.00     0.016 A 
ENDBRANCH   3   8
BRANCH   4  14
HETATM   14  C   UNK     1      66.197   6.890   7.353  1.00  0.00     0.223 C 
BRANCH  14  15
HETATM   15  O   UNK     1      67.087   8.004   7.369  1.00  0.00    -0.395 OA
HETATM   16  H   UNK     1      67.908   7.770   6.908  1.00  0.00     0.209 HD
ENDBRANCH  14  15
ENDBRANCH   4  14
TORSDOF 3
ENDMDL
MODEL 4
REMARK VINA RESULT:      -5.2      1.430      2.163
REMARK  3 active torsions:
REMARK  status: ('A' for Active; 'I' for Inactive)
REMARK    1  A    between atoms: C_3  and  C_7 
REMARK    2  A    between atoms: C_4  and  C_8 
REMARK    3  A    between atoms: C_8  and  O_10 
ROOT
HETATM    1  N   UNK     1      65.586   7.229   4.441  1.00  0.00    -0.336 N 
ATOM      2  HN  UNK     1      65.742   7.174   3.435  1.00  0.00     0.168 HD
HETATM    3  C   UNK     1      64.709   7.978   5.087  1.00  0.00     0.158 A 
HETATM    4  C   UNK     1      66.242   6.536   5.444  1.00  0.00     0.064 A 
HETATM    5  O   UNK     1      64.744   7.823   6.449  1.00  0.00    -0.296 OA
HETATM    6  C   UNK     1      65.723   6.897   6.667  1.00  0.00     0.076 A 
HETATM    7  C   UNK     1      65.975   6.517   8.067  1.00  0.00     0.079 C 
ENDROOT
BRANCH   3   8
HETATM    8  C   UNK     1      63.712   8.907   4.561  1.00  0.00     0.015 A 
HETATM    9  C   UNK     1      63.424  10.091   5.257  1.00  0.00     0.016 A 
HETATM   10  C   UNK     1      62.486  11.002   4.763  1.00  0.00     0.001 A 
HETATM   11  C   UNK     1      61.821  10.740   3.566  1.00  0.00     0.000 A 
HETATM   12  C   UNK     1      62.091   9.566   2.866  1.00  0.00     0.001 A 
HETATM   13  C   UNK     1      63.030   8.657   3.360  1.00  0.00     0.016 A 
ENDBRANCH   3   8
BRANCH   4  14
HETATM   14  C   UNK     1      67.319   5.566   5.117  1.00  0.00     0.223 C 
BRANCH  14  15
HETATM   15  O   UNK     1      67.515   5.446   3.709  1.00  0.00    -0.395 OA
HETATM   16  H   UNK     1      67.439   6.320   3.296  1.00  0.00     0.209 HD
ENDBRANCH  14  15
ENDBRANCH   4  14
TORSDOF 3
ENDMDL
MODEL 5
REMARK VINA RESULT:      -5.0      1.956      5.597
REMARK  3 active torsions:
REMARK  status: ('A' for Active; 'I' for Inactive)
REMARK    1  A    between atoms: C_3  and  C_7 
REMARK    2  A    between atoms: C_4  and  C_8 
REMARK    3  A    between atoms: C_8  and  O_10 
ROOT
HETATM    1  N   UNK     1      63.993   9.683   5.411  1.00  0.00    -0.336 N 
ATOM      2  HN  UNK     1      64.276  10.241   6.217  1.00  0.00     0.168 HD
HETATM    3  C   UNK     1      64.508   8.539   4.993  1.00  0.00     0.158 A 
HETATM    4  C   UNK     1      62.983   9.951   4.503  1.00  0.00     0.064 A 
HETATM    5  O   UNK     1      63.903   8.036   3.871  1.00  0.00    -0.296 OA
HETATM    6  C   UNK     1      62.927   8.941   3.568  1.00  0.00     0.076 A 
HETATM    7  C   UNK     1      62.090   8.645   2.393  1.00  0.00     0.079 C 
ENDROOT
BRANCH   3   8
HETATM    8  C   UNK     1      65.591   7.743   5.565  1.00  0.00     0.015 A 
HETATM    9  C   UNK     1      66.848   7.722   4.941  1.00  0.00     0.016 A 
HETATM   10  C   UNK     1      67.902   6.980   5.480  1.00  0.00     0.001 A 
HETATM   11  C   UNK     1      67.713   6.245   6.650  1.00  0.00     0.000 A 
HETATM   12  C   UNK     1      66.470   6.250   7.278  1.00  0.00     0.001 A 
HETATM   13  C   UNK     1      65.416   6.994   6.740  1.00  0.00     0.016 A 
ENDBRANCH   3   8
BRANCH   4  14
HETATM   14  C   UNK     1      62.147  11.171   4.635  1.00  0.00     0.223 C 
BRANCH  14  15
HETATM   15  O   UNK     1      61.978  11.836   3.384  1.00  0.00    -0.395 OA
HETATM   16  H   UNK     1      61.033  11.913   3.183  1.00  0.00     0.209 HD
ENDBRANCH  14  15
ENDBRANCH   4  14
TORSDOF 3
ENDMDL
MODEL 6
REMARK VINA RESULT:      -4.9      2.162      5.504
REMARK  3 active torsions:
REMARK  status: ('A' for Active; 'I' for Inactive)
REMARK    1  A    between atoms: C_3  and  C_7 
REMARK    2  A    between atoms: C_4  and  C_8 
REMARK    3  A    between atoms: C_8  and  O_10 
ROOT
HETATM    1  N   UNK     1      63.462   8.379   3.926  1.00  0.00    -0.336 N 
ATOM      2  HN  UNK     1      63.298   7.661   3.221  1.00  0.00     0.168 HD
HETATM    3  C   UNK     1      64.442   8.440   4.811  1.00  0.00     0.158 A 
HETATM    4  C   UNK     1      62.711   9.515   4.176  1.00  0.00     0.064 A 
HETATM    5  O   UNK     1      64.386   9.540   5.627  1.00  0.00    -0.296 OA
HETATM    6  C   UNK     1      63.280  10.224   5.210  1.00  0.00     0.076 A 
HETATM    7  C   UNK     1      62.976  11.481   5.912  1.00  0.00     0.079 C 
ENDROOT
BRANCH   3   8
HETATM    8  C   UNK     1      65.566   7.530   5.018  1.00  0.00     0.015 A 
HETATM    9  C   UNK     1      66.257   7.539   6.239  1.00  0.00     0.016 A 
HETATM   10  C   UNK     1      67.324   6.665   6.465  1.00  0.00     0.001 A 
HETATM   11  C   UNK     1      67.717   5.771   5.470  1.00  0.00     0.000 A 
HETATM   12  C   UNK     1      67.047   5.754   4.249  1.00  0.00     0.001 A 
HETATM   13  C   UNK     1      65.978   6.626   4.025  1.00  0.00     0.016 A 
ENDBRANCH   3   8
BRANCH   4  14
HETATM   14  C   UNK     1      61.501   9.818   3.369  1.00  0.00     0.223 C 
BRANCH  14  15
HETATM   15  O   UNK     1      61.399  11.208   3.068  1.00  0.00    -0.395 OA
HETATM   16  H   UNK     1      62.213  11.505   2.632  1.00  0.00     0.209 HD
ENDBRANCH  14  15
ENDBRANCH   4  14
TORSDOF 3
ENDMDL
MODEL 7
REMARK VINA RESULT:      -4.5      2.134      5.604
REMARK  3 active torsions:
REMARK  status: ('A' for Active; 'I' for Inactive)
REMARK    1  A    between atoms: C_3  and  C_7 
REMARK    2  A    between atoms: C_4  and  C_8 
REMARK    3  A    between atoms: C_8  and  O_10 
ROOT
HETATM    1  N   UNK     1      63.080   7.617   4.010  1.00  0.00    -0.336 N 
ATOM      2  HN  UNK     1      63.029   6.646   3.703  1.00  0.00     0.168 HD
HETATM    3  C   UNK     1      63.972   8.168   4.815  1.00  0.00     0.158 A 
HETATM    4  C   UNK     1      62.232   8.660   3.681  1.00  0.00     0.064 A 
HETATM    5  O   UNK     1      63.767   9.506   5.037  1.00  0.00    -0.296 OA
HETATM    6  C   UNK     1      62.657   9.812   4.305  1.00  0.00     0.076 A 
HETATM    7  C   UNK     1      62.204  11.212   4.342  1.00  0.00     0.079 C 
ENDROOT
BRANCH   3   8
HETATM    8  C   UNK     1      65.134   7.569   5.466  1.00  0.00     0.015 A 
HETATM    9  C   UNK     1      64.972   6.841   6.655  1.00  0.00     0.016 A 
HETATM   10  C   UNK     1      66.069   6.245   7.285  1.00  0.00     0.001 A 
HETATM   11  C   UNK     1      67.343   6.371   6.735  1.00  0.00     0.000 A 
HETATM   12  C   UNK     1      67.523   7.096   5.560  1.00  0.00     0.001 A 
HETATM   13  C   UNK     1      66.426   7.690   4.929  1.00  0.00     0.016 A 
ENDBRANCH   3   8
BRANCH   4  14
HETATM   14  C   UNK     1      61.079   8.443   2.769  1.00  0.00     0.223 C 
BRANCH  14  15
HETATM   15  O   UNK     1      59.846   8.369   3.483  1.00  0.00    -0.395 OA
HETATM   16  H   UNK     1      59.531   9.265   3.679  1.00  0.00     0.209 HD
ENDBRANCH  14  15
ENDBRANCH   4  14
TORSDOF 3
ENDMDL
MODEL 8
REMARK VINA RESULT:      -4.4      9.614     11.286
REMARK  3 active torsions:
REMARK  status: ('A' for Active; 'I' for Inactive)
REMARK    1  A    between atoms: C_3  and  C_7 
REMARK    2  A    between atoms: C_4  and  C_8 
REMARK    3  A    between atoms: C_8  and  O_10 
ROOT
HETATM    1  N   UNK     1      58.402   4.057  10.639  1.00  0.00    -0.336 N 
ATOM      2  HN  UNK     1      58.094   4.777  11.292  1.00  0.00     0.168 HD
HETATM    3  C   UNK     1      58.487   2.754  10.847  1.00  0.00     0.158 A 
HETATM    4  C   UNK     1      58.828   4.218   9.332  1.00  0.00     0.064 A 
HETATM    5  O   UNK     1      58.940   2.047   9.763  1.00  0.00    -0.296 OA
HETATM    6  C   UNK     1      59.150   2.989   8.799  1.00  0.00     0.076 A 
HETATM    7  C   UNK     1      59.633   2.506   7.495  1.00  0.00     0.079 C 
ENDROOT
BRANCH   3   8
HETATM    8  C   UNK     1      58.148   1.978  12.038  1.00  0.00     0.015 A 
HETATM    9  C   UNK     1      56.894   1.354  12.132  1.00  0.00     0.016 A 
HETATM   10  C   UNK     1      56.556   0.593  13.255  1.00  0.00     0.001 A 
HETATM   11  C   UNK     1      57.467   0.448  14.300  1.00  0.00     0.000 A 
HETATM   12  C   UNK     1      58.713   1.066  14.225  1.00  0.00     0.001 A 
HETATM   13  C   UNK     1      59.051   1.825  13.102  1.00  0.00     0.016 A 
ENDBRANCH   3   8
BRANCH   4  14
HETATM   14  C   UNK     1      58.872   5.565   8.708  1.00  0.00     0.223 C 
BRANCH  14  15
HETATM   15  O   UNK     1      58.619   6.598   9.659  1.00  0.00    -0.395 OA
HETATM   16  H   UNK     1      59.016   6.358  10.511  1.00  0.00     0.209 HD
ENDBRANCH  14  15
ENDBRANCH   4  14
TORSDOF 3
ENDMDL
MODEL 9
REMARK VINA RESULT:      -4.3      1.841      5.794
REMARK  3 active torsions:
REMARK  status: ('A' for Active; 'I' for Inactive)
REMARK    1  A    between atoms: C_3  and  C_7 
REMARK    2  A    between atoms: C_4  and  C_8 
REMARK    3  A    between atoms: C_8  and  O_10 
ROOT
HETATM    1  N   UNK     1      64.337   6.464   4.901  1.00  0.00    -0.336 N 
ATOM      2  HN  UNK     1      64.417   5.507   4.559  1.00  0.00     0.168 HD
HETATM    3  C   UNK     1      65.004   7.032   5.891  1.00  0.00     0.158 A 
HETATM    4  C   UNK     1      63.504   7.468   4.437  1.00  0.00     0.064 A 
HETATM    5  O   UNK     1      64.667   8.343   6.108  1.00  0.00    -0.296 OA
HETATM    6  C   UNK     1      63.712   8.614   5.171  1.00  0.00     0.076 A 
HETATM    7  C   UNK     1      63.165   9.981   5.159  1.00  0.00     0.079 C 
ENDROOT
BRANCH   3   8
HETATM    8  C   UNK     1      66.048   6.475   6.749  1.00  0.00     0.015 A 
HETATM    9  C   UNK     1      66.013   6.707   8.132  1.00  0.00     0.016 A 
HETATM   10  C   UNK     1      66.991   6.170   8.973  1.00  0.00     0.001 A 
HETATM   11  C   UNK     1      68.020   5.395   8.442  1.00  0.00     0.000 A 
HETATM   12  C   UNK     1      68.074   5.161   7.070  1.00  0.00     0.001 A 
HETATM   13  C   UNK     1      67.094   5.696   6.229  1.00  0.00     0.016 A 
ENDBRANCH   3   8
BRANCH   4  14
HETATM   14  C   UNK     1      62.580   7.222   3.299  1.00  0.00     0.223 C 
BRANCH  14  15
HETATM   15  O   UNK     1      62.867   8.072   2.191  1.00  0.00    -0.395 OA
HETATM   16  H   UNK     1      62.113   8.074   1.580  1.00  0.00     0.209 HD
ENDBRANCH  14  15
ENDBRANCH   4  14
TORSDOF 3
ENDMDL
