MODEL 1
REMARK VINA RESULT:      -3.8      0.000      0.000
REMARK  2 active torsions:
REMARK  status: ('A' for Active; 'I' for Inactive)
REMARK    1  A    between atoms: C_3  and  C_7 
REMARK    2  A    between atoms: C_7  and  N_8 
ROOT
HETATM    1  N   UNL     1      64.633   9.056   5.588  1.00  0.00    -0.340 N 
ATOM      2  HN  UNL     1      65.118   9.401   6.417  1.00  0.00     0.167 HD
HETATM    3  C   UNL     1      63.528   9.597   4.961  1.00  0.00     0.066 A 
HETATM    4  C   UNL     1      63.196   8.822   3.869  1.00  0.00     0.075 A 
HETATM    5  C   UNL     1      64.917   7.991   4.866  1.00  0.00     0.120 A 
HETATM    6  O   UNL     1      64.082   7.786   3.804  1.00  0.00    -0.301 OA
HETATM    7  C   UNL     1      62.156   8.887   2.830  1.00  0.00     0.079 C 
HETATM    8  C   UNL     1      65.998   7.002   5.052  1.00  0.00     0.098 C 
ENDROOT
BRANCH   3   9
HETATM    9  C   UNL     1      62.867  10.828   5.471  1.00  0.00     0.288 C 
BRANCH   9  10
HETATM   10  N   UNL     1      63.796  11.548   6.338  1.00  0.00    -0.074 N 
HETATM   11  H   UNL     1      64.410  12.132   5.769  1.00  0.00     0.274 HD
HETATM   12  H   UNL     1      64.357  10.878   6.865  1.00  0.00     0.274 HD
HETATM   13  H   UNL     1      63.272  12.136   6.985  1.00  0.00     0.274 HD
ENDBRANCH   9  10
ENDBRANCH   3   9
TORSDOF 2
ENDMDL
MODEL 2
REMARK VINA RESULT:      -3.7      2.238      4.287
REMARK  2 active torsions:
REMARK  status: ('A' for Active; 'I' for Inactive)
REMARK    1  A    between atoms: C_3  and  C_7 
REMARK    2  A    between atoms: C_7  and  N_8 
ROOT
HETATM    1  N   UNL     1      64.620   7.639   6.521  1.00  0.00    -0.340 N 
ATOM      2  HN  UNL     1      63.843   7.366   7.123  1.00  0.00     0.167 HD
HETATM    3  C   UNL     1      65.947   7.270   6.623  1.00  0.00     0.066 A 
HETATM    4  C   UNL     1      66.664   7.857   5.601  1.00  0.00     0.075 A 
HETATM    5  C   UNL     1      64.590   8.426   5.463  1.00  0.00     0.120 A 
HETATM    6  O   UNL     1      65.801   8.604   4.854  1.00  0.00    -0.301 OA
HETATM    7  C   UNL     1      68.075   7.835   5.181  1.00  0.00     0.079 C 
HETATM    8  C   UNL     1      63.441   9.132   4.862  1.00  0.00     0.098 C 
ENDROOT
BRANCH   3   9
HETATM    9  C   UNL     1      66.426   6.376   7.711  1.00  0.00     0.288 C 
BRANCH   9  10
HETATM   10  N   UNL     1      67.292   7.135   8.610  1.00  0.00    -0.074 N 
HETATM   11  H   UNL     1      68.027   6.526   8.969  1.00  0.00     0.274 HD
HETATM   12  H   UNL     1      66.741   7.498   9.387  1.00  0.00     0.274 HD
HETATM   13  H   UNL     1      67.713   7.911   8.101  1.00  0.00     0.274 HD
ENDBRANCH   9  10
ENDBRANCH   3   9
TORSDOF 2
ENDMDL
MODEL 3
REMARK VINA RESULT:      -3.7      1.941      2.578
REMARK  2 active torsions:
REMARK  status: ('A' for Active; 'I' for Inactive)
REMARK    1  A    between atoms: C_3  and  C_7 
REMARK    2  A    between atoms: C_7  and  N_8 
ROOT
HETATM    1  N   UNL     1      63.744   8.172   4.100  1.00  0.00    -0.340 N 
ATOM      2  HN  UNL     1      63.665   7.357   3.492  1.00  0.00     0.167 HD
HETATM    3  C   UNL     1      62.827   9.188   4.284  1.00  0.00     0.066 A 
HETATM    4  C   UNL     1      63.324  10.093   5.199  1.00  0.00     0.075 A 
HETATM    5  C   UNL     1      64.744   8.501   4.892  1.00  0.00     0.120 A 
HETATM    6  O   UNL     1      64.557   9.660   5.592  1.00  0.00    -0.301 OA
HETATM    7  C   UNL     1      62.823  11.340   5.800  1.00  0.00     0.079 C 
HETATM    8  C   UNL     1      66.022   7.796   5.118  1.00  0.00     0.098 C 
ENDROOT
BRANCH   3   9
HETATM    9  C   UNL     1      61.531   9.212   3.553  1.00  0.00     0.288 C 
BRANCH   9  10
HETATM   10  N   UNL     1      61.516  10.351   2.639  1.00  0.00    -0.074 N 
HETATM   11  H   UNL     1      61.690  11.210   3.163  1.00  0.00     0.274 HD
HETATM   12  H   UNL     1      60.605  10.410   2.184  1.00  0.00     0.274 HD
HETATM   13  H   UNL     1      62.241  10.231   1.934  1.00  0.00     0.274 HD
ENDBRANCH   9  10
ENDBRANCH   3   9
TORSDOF 2
ENDMDL
MODEL 4
REMARK VINA RESULT:      -3.6      1.603      3.040
REMARK  2 active torsions:
REMARK  status: ('A' for Active; 'I' for Inactive)
REMARK    1  A    between atoms: C_3  and  C_7 
REMARK    2  A    between atoms: C_7  and  N_8 
ROOT
HETATM    1  N   UNL     1      61.876  10.486   3.242  1.00  0.00    -0.340 N 
ATOM      2  HN  UNL     1      61.265  11.271   3.014  1.00  0.00     0.167 HD
HETATM    3  C   UNL     1      62.584  10.270   4.408  1.00  0.00     0.066 A 
HETATM    4  C   UNL     1      63.280   9.083   4.307  1.00  0.00     0.075 A 
HETATM    5  C   UNL     1      62.171   9.442   2.494  1.00  0.00     0.120 A 
HETATM    6  O   UNL     1      63.023   8.547   3.079  1.00  0.00    -0.301 OA
HETATM    7  C   UNL     1      64.175   8.329   5.198  1.00  0.00     0.079 C 
HETATM    8  C   UNL     1      61.714   9.119   1.127  1.00  0.00     0.098 C 
ENDROOT
BRANCH   3   9
HETATM    9  C   UNL     1      62.539  11.237   5.538  1.00  0.00     0.288 C 
BRANCH   9  10
HETATM   10  N   UNL     1      63.875  11.360   6.117  1.00  0.00    -0.074 N 
HETATM   11  H   UNL     1      64.496  10.673   5.689  1.00  0.00     0.274 HD
HETATM   12  H   UNL     1      63.826  11.194   7.122  1.00  0.00     0.274 HD
HETATM   13  H   UNL     1      64.235  12.298   5.945  1.00  0.00     0.274 HD
ENDBRANCH   9  10
ENDBRANCH   3   9
TORSDOF 2
ENDMDL
MODEL 5
REMARK VINA RESULT:      -3.6      2.168      3.538
REMARK  2 active torsions:
REMARK  status: ('A' for Active; 'I' for Inactive)
REMARK    1  A    between atoms: C_3  and  C_7 
REMARK    2  A    between atoms: C_7  and  N_8 
ROOT
HETATM    1  N   UNL     1      62.228  10.463   4.017  1.00  0.00    -0.340 N 
ATOM      2  HN  UNL     1      62.105  11.142   4.769  1.00  0.00     0.167 HD
HETATM    3  C   UNL     1      62.623   9.143   4.118  1.00  0.00     0.066 A 
HETATM    4  C   UNL     1      62.656   8.579   2.860  1.00  0.00     0.075 A 
HETATM    5  C   UNL     1      62.048  10.642   2.724  1.00  0.00     0.120 A 
HETATM    6  O   UNL     1      62.291   9.536   1.958  1.00  0.00    -0.301 OA
HETATM    7  C   UNL     1      62.977   7.243   2.332  1.00  0.00     0.079 C 
HETATM    8  C   UNL     1      61.628  11.861   2.003  1.00  0.00     0.098 C 
ENDROOT
BRANCH   3   9
HETATM    9  C   UNL     1      62.946   8.524   5.431  1.00  0.00     0.288 C 
BRANCH   9  10
HETATM   10  N   UNL     1      64.370   8.696   5.706  1.00  0.00    -0.074 N 
HETATM   11  H   UNL     1      64.836   9.057   4.873  1.00  0.00     0.274 HD
HETATM   12  H   UNL     1      64.778   7.797   5.961  1.00  0.00     0.274 HD
HETATM   13  H   UNL     1      64.491   9.354   6.475  1.00  0.00     0.274 HD
ENDBRANCH   9  10
ENDBRANCH   3   9
TORSDOF 2
ENDMDL
MODEL 6
REMARK VINA RESULT:      -3.5      2.003      3.508
REMARK  2 active torsions:
REMARK  status: ('A' for Active; 'I' for Inactive)
REMARK    1  A    between atoms: C_3  and  C_7 
REMARK    2  A    between atoms: C_7  and  N_8 
ROOT
HETATM    1  N   UNL     1      63.118   8.252   3.137  1.00  0.00    -0.340 N 
ATOM      2  HN  UNL     1      63.412   7.356   2.748  1.00  0.00     0.167 HD
HETATM    3  C   UNL     1      63.439   8.792   4.367  1.00  0.00     0.066 A 
HETATM    4  C   UNL     1      62.838  10.027   4.496  1.00  0.00     0.075 A 
HETATM    5  C   UNL     1      62.344   9.164   2.584  1.00  0.00     0.120 A 
HETATM    6  O   UNL     1      62.130  10.271   3.356  1.00  0.00    -0.301 OA
HETATM    7  C   UNL     1      62.815  11.063   5.540  1.00  0.00     0.079 C 
HETATM    8  C   UNL     1      61.685   9.145   1.262  1.00  0.00     0.098 C 
ENDROOT
BRANCH   3   9
HETATM    9  C   UNL     1      64.305   8.066   5.335  1.00  0.00     0.288 C 
BRANCH   9  10
HETATM   10  N   UNL     1      63.490   7.604   6.456  1.00  0.00    -0.074 N 
HETATM   11  H   UNL     1      62.559   7.356   6.120  1.00  0.00     0.274 HD
HETATM   12  H   UNL     1      63.414   8.348   7.150  1.00  0.00     0.274 HD
HETATM   13  H   UNL     1      63.927   6.787   6.880  1.00  0.00     0.274 HD
ENDBRANCH   9  10
ENDBRANCH   3   9
TORSDOF 2
ENDMDL
MODEL 7
REMARK VINA RESULT:      -3.5      2.525      2.977
REMARK  2 active torsions:
REMARK  status: ('A' for Active; 'I' for Inactive)
REMARK    1  A    between atoms: C_3  and  C_7 
REMARK    2  A    between atoms: C_7  and  N_8 
ROOT
HETATM    1  N   UNL     1      62.387   8.731   3.871  1.00  0.00    -0.340 N 
ATOM      2  HN  UNL     1      62.638   8.116   4.646  1.00  0.00     0.167 HD
HETATM    3  C   UNL     1      62.316  10.111   3.868  1.00  0.00     0.066 A 
HETATM    4  C   UNL     1      61.945  10.546   2.612  1.00  0.00     0.075 A 
HETATM    5  C   UNL     1      62.056   8.394   2.641  1.00  0.00     0.120 A 
HETATM    6  O   UNL     1      61.772   9.449   1.820  1.00  0.00    -0.301 OA
HETATM    7  C   UNL     1      61.720  11.864   1.998  1.00  0.00     0.079 C 
HETATM    8  C   UNL     1      61.948   7.048   2.043  1.00  0.00     0.098 C 
ENDROOT
BRANCH   3   9
HETATM    9  C   UNL     1      62.609  10.909   5.088  1.00  0.00     0.288 C 
BRANCH   9  10
HETATM   10  N   UNL     1      63.727  10.300   5.804  1.00  0.00    -0.074 N 
HETATM   11  H   UNL     1      63.746   9.298   5.614  1.00  0.00     0.274 HD
HETATM   12  H   UNL     1      63.614  10.455   6.806  1.00  0.00     0.274 HD
HETATM   13  H   UNL     1      64.601  10.722   5.491  1.00  0.00     0.274 HD
ENDBRANCH   9  10
ENDBRANCH   3   9
TORSDOF 2
ENDMDL
MODEL 8
REMARK VINA RESULT:      -3.5      2.767      3.665
REMARK  2 active torsions:
REMARK  status: ('A' for Active; 'I' for Inactive)
REMARK    1  A    between atoms: C_3  and  C_7 
REMARK    2  A    between atoms: C_7  and  N_8 
ROOT
HETATM    1  N   UNL     1      60.657   9.059   3.351  1.00  0.00    -0.340 N 
ATOM      2  HN  UNL     1      59.828   9.435   2.891  1.00  0.00     0.167 HD
HETATM    3  C   UNL     1      61.793   9.738   3.745  1.00  0.00     0.066 A 
HETATM    4  C   UNL     1      62.672   8.854   4.337  1.00  0.00     0.075 A 
HETATM    5  C   UNL     1      60.893   7.812   3.709  1.00  0.00     0.120 A 
HETATM    6  O   UNL     1      62.102   7.615   4.314  1.00  0.00    -0.301 OA
HETATM    7  C   UNL     1      64.004   8.973   4.951  1.00  0.00     0.079 C 
HETATM    8  C   UNL     1      60.038   6.620   3.542  1.00  0.00     0.098 C 
ENDROOT
BRANCH   3   9
HETATM    9  C   UNL     1      61.948  11.199   3.514  1.00  0.00     0.288 C 
BRANCH   9  10
HETATM   10  N   UNL     1      61.578  11.509   2.135  1.00  0.00    -0.074 N 
HETATM   11  H   UNL     1      60.924  12.291   2.125  1.00  0.00     0.274 HD
HETATM   12  H   UNL     1      61.138  10.692   1.710  1.00  0.00     0.274 HD
HETATM   13  H   UNL     1      62.414  11.757   1.606  1.00  0.00     0.274 HD
ENDBRANCH   9  10
ENDBRANCH   3   9
TORSDOF 2
ENDMDL
MODEL 9
REMARK VINA RESULT:      -3.4      1.423      3.114
REMARK  2 active torsions:
REMARK  status: ('A' for Active; 'I' for Inactive)
REMARK    1  A    between atoms: C_3  and  C_7 
REMARK    2  A    between atoms: C_7  and  N_8 
ROOT
HETATM    1  N   UNL     1      63.866   9.304   5.563  1.00  0.00    -0.340 N 
ATOM      2  HN  UNL     1      63.979   9.851   6.417  1.00  0.00     0.167 HD
HETATM    3  C   UNL     1      64.476   8.110   5.229  1.00  0.00     0.066 A 
HETATM    4  C   UNL     1      64.039   7.706   3.985  1.00  0.00     0.075 A 
HETATM    5  C   UNL     1      63.102   9.571   4.522  1.00  0.00     0.120 A 
HETATM    6  O   UNL     1      63.159   8.641   3.523  1.00  0.00    -0.301 OA
HETATM    7  C   UNL     1      64.307   6.546   3.119  1.00  0.00     0.079 C 
HETATM    8  C   UNL     1      62.210  10.726   4.296  1.00  0.00     0.098 C 
ENDROOT
BRANCH   3   9
HETATM    9  C   UNL     1      65.447   7.449   6.142  1.00  0.00     0.288 C 
BRANCH   9  10
HETATM   10  N   UNL     1      66.380   8.449   6.656  1.00  0.00    -0.074 N 
HETATM   11  H   UNL     1      67.290   8.014   6.817  1.00  0.00     0.274 HD
HETATM   12  H   UNL     1      66.024   8.826   7.534  1.00  0.00     0.274 HD
HETATM   13  H   UNL     1      66.479   9.203   5.977  1.00  0.00     0.274 HD
ENDBRANCH   9  10
ENDBRANCH   3   9
TORSDOF 2
ENDMDL
