MODEL 1
REMARK VINA RESULT:      -5.4      0.000      0.000
REMARK  1 active torsions:
REMARK  status: ('A' for Active; 'I' for Inactive)
REMARK    1  A    between atoms: C_1  and  C_4 
ROOT
HETATM    1  C   UNL     1      63.176   8.070   4.531  1.00  0.00     0.076 A 
HETATM    2  C   UNL     1      63.319   7.119   3.540  1.00  0.00     0.162 A 
HETATM    3  C   UNL     1      62.686   9.240   3.872  1.00  0.00     0.017 A 
HETATM    4  O   UNL     1      62.955   7.612   2.329  1.00  0.00    -0.321 OA
HETATM    5  C   UNL     1      62.571   8.902   2.528  1.00  0.00     0.086 A 
HETATM    6  C   UNL     1      62.327  10.546   4.260  1.00  0.00     0.015 A 
HETATM    7  C   UNL     1      62.123   9.769   1.535  1.00  0.00     0.038 A 
HETATM    8  C   UNL     1      61.873  11.444   3.283  1.00  0.00     0.001 A 
HETATM    9  C   UNL     1      61.774  11.060   1.943  1.00  0.00     0.003 A 
ENDROOT
BRANCH   1  10
HETATM   10  C   UNL     1      63.472   7.878   5.929  1.00  0.00     0.212 C 
HETATM   11  O   UNL     1      62.651   7.668   6.811  1.00  0.00    -0.644 OA
HETATM   12  O   UNL     1      64.787   7.945   6.237  1.00  0.00    -0.644 OA
ENDBRANCH   1  10
TORSDOF 1
ENDMDL
MODEL 2
REMARK VINA RESULT:      -5.4      1.555      2.401
REMARK  1 active torsions:
REMARK  status: ('A' for Active; 'I' for Inactive)
REMARK    1  A    between atoms: C_1  and  C_4 
ROOT
HETATM    1  C   UNL     1      63.331   9.407   4.964  1.00  0.00     0.076 A 
HETATM    2  C   UNL     1      62.837  10.660   5.268  1.00  0.00     0.162 A 
HETATM    3  C   UNL     1      62.879   9.129   3.637  1.00  0.00     0.017 A 
HETATM    4  O   UNL     1      62.120  11.171   4.235  1.00  0.00    -0.321 OA
HETATM    5  C   UNL     1      62.143  10.241   3.242  1.00  0.00     0.086 A 
HETATM    6  C   UNL     1      63.008   8.061   2.726  1.00  0.00     0.015 A 
HETATM    7  C   UNL     1      61.523  10.373   2.002  1.00  0.00     0.038 A 
HETATM    8  C   UNL     1      62.393   8.164   1.469  1.00  0.00     0.001 A 
HETATM    9  C   UNL     1      61.664   9.301   1.115  1.00  0.00     0.003 A 
ENDROOT
BRANCH   1  10
HETATM   10  C   UNL     1      64.133   8.586   5.836  1.00  0.00     0.212 C 
HETATM   11  O   UNL     1      63.733   7.629   6.483  1.00  0.00    -0.644 OA
HETATM   12  O   UNL     1      65.434   8.950   5.907  1.00  0.00    -0.644 OA
ENDBRANCH   1  10
TORSDOF 1
ENDMDL
MODEL 3
REMARK VINA RESULT:      -5.3      2.106      2.899
REMARK  1 active torsions:
REMARK  status: ('A' for Active; 'I' for Inactive)
REMARK    1  A    between atoms: C_1  and  C_4 
ROOT
HETATM    1  C   UNL     1      62.822   9.723   4.478  1.00  0.00     0.076 A 
HETATM    2  C   UNL     1      63.370   8.640   5.137  1.00  0.00     0.162 A 
HETATM    3  C   UNL     1      62.550   9.267   3.151  1.00  0.00     0.017 A 
HETATM    4  O   UNL     1      63.453   7.559   4.321  1.00  0.00    -0.321 OA
HETATM    5  C   UNL     1      62.957   7.938   3.113  1.00  0.00     0.086 A 
HETATM    6  C   UNL     1      62.007   9.829   1.978  1.00  0.00     0.015 A 
HETATM    7  C   UNL     1      62.863   7.119   1.989  1.00  0.00     0.038 A 
HETATM    8  C   UNL     1      61.900   9.030   0.830  1.00  0.00     0.001 A 
HETATM    9  C   UNL     1      62.321   7.699   0.837  1.00  0.00     0.003 A 
ENDROOT
BRANCH   1  10
HETATM   10  C   UNL     1      62.591  11.026   5.051  1.00  0.00     0.212 C 
HETATM   11  O   UNL     1      61.960  11.934   4.530  1.00  0.00    -0.644 OA
HETATM   12  O   UNL     1      63.144  11.206   6.273  1.00  0.00    -0.644 OA
ENDBRANCH   1  10
TORSDOF 1
ENDMDL
MODEL 4
REMARK VINA RESULT:      -5.0      2.180      3.666
REMARK  1 active torsions:
REMARK  status: ('A' for Active; 'I' for Inactive)
REMARK    1  A    between atoms: C_1  and  C_4 
ROOT
HETATM    1  C   UNL     1      62.654   9.823   4.331  1.00  0.00     0.076 A 
HETATM    2  C   UNL     1      61.703   9.446   3.403  1.00  0.00     0.162 A 
HETATM    3  C   UNL     1      63.643   8.792   4.308  1.00  0.00     0.017 A 
HETATM    4  O   UNL     1      62.032   8.268   2.813  1.00  0.00    -0.321 OA
HETATM    5  C   UNL     1      63.210   7.868   3.363  1.00  0.00     0.086 A 
HETATM    6  C   UNL     1      64.854   8.535   4.980  1.00  0.00     0.015 A 
HETATM    7  C   UNL     1      63.895   6.701   3.033  1.00  0.00     0.038 A 
HETATM    8  C   UNL     1      65.567   7.367   4.671  1.00  0.00     0.001 A 
HETATM    9  C   UNL     1      65.094   6.466   3.714  1.00  0.00     0.003 A 
ENDROOT
BRANCH   1  10
HETATM   10  C   UNL     1      62.615  11.020   5.134  1.00  0.00     0.212 C 
HETATM   11  O   UNL     1      63.118  11.154   6.240  1.00  0.00    -0.644 OA
HETATM   12  O   UNL     1      61.950  12.053   4.568  1.00  0.00    -0.644 OA
ENDBRANCH   1  10
TORSDOF 1
ENDMDL
MODEL 5
REMARK VINA RESULT:      -4.9      2.248      3.912
REMARK  1 active torsions:
REMARK  status: ('A' for Active; 'I' for Inactive)
REMARK    1  A    between atoms: C_1  and  C_4 
ROOT
HETATM    1  C   UNL     1      62.133   9.887   2.981  1.00  0.00     0.076 A 
HETATM    2  C   UNL     1      61.518   9.149   1.989  1.00  0.00     0.162 A 
HETATM    3  C   UNL     1      62.993   8.972   3.663  1.00  0.00     0.017 A 
HETATM    4  O   UNL     1      61.935   7.857   2.007  1.00  0.00    -0.321 OA
HETATM    5  C   UNL     1      62.831   7.747   3.025  1.00  0.00     0.086 A 
HETATM    6  C   UNL     1      63.890   9.042   4.747  1.00  0.00     0.015 A 
HETATM    7  C   UNL     1      63.498   6.578   3.386  1.00  0.00     0.038 A 
HETATM    8  C   UNL     1      64.576   7.881   5.135  1.00  0.00     0.001 A 
HETATM    9  C   UNL     1      64.382   6.671   4.465  1.00  0.00     0.003 A 
ENDROOT
BRANCH   1  10
HETATM   10  C   UNL     1      61.918  11.289   3.239  1.00  0.00     0.212 C 
HETATM   11  O   UNL     1      61.821  11.805   4.343  1.00  0.00    -0.644 OA
HETATM   12  O   UNL     1      61.824  12.055   2.128  1.00  0.00    -0.644 OA
ENDBRANCH   1  10
TORSDOF 1
ENDMDL
MODEL 6
REMARK VINA RESULT:      -4.7      2.112      4.364
REMARK  1 active torsions:
REMARK  status: ('A' for Active; 'I' for Inactive)
REMARK    1  A    between atoms: C_1  and  C_4 
ROOT
HETATM    1  C   UNL     1      62.983   9.381   4.418  1.00  0.00     0.076 A 
HETATM    2  C   UNL     1      63.605  10.123   5.403  1.00  0.00     0.162 A 
HETATM    3  C   UNL     1      63.860   8.285   4.150  1.00  0.00     0.017 A 
HETATM    4  O   UNL     1      64.791   9.568   5.760  1.00  0.00    -0.321 OA
HETATM    5  C   UNL     1      64.949   8.452   4.999  1.00  0.00     0.086 A 
HETATM    6  C   UNL     1      63.857   7.172   3.286  1.00  0.00     0.015 A 
HETATM    7  C   UNL     1      66.042   7.589   5.055  1.00  0.00     0.038 A 
HETATM    8  C   UNL     1      64.944   6.286   3.317  1.00  0.00     0.001 A 
HETATM    9  C   UNL     1      66.017   6.493   4.187  1.00  0.00     0.003 A 
ENDROOT
BRANCH   1  10
HETATM   10  C   UNL     1      61.710   9.688   3.813  1.00  0.00     0.212 C 
HETATM   11  O   UNL     1      60.865   8.872   3.474  1.00  0.00    -0.644 OA
HETATM   12  O   UNL     1      61.483  11.008   3.627  1.00  0.00    -0.644 OA
ENDBRANCH   1  10
TORSDOF 1
ENDMDL
MODEL 7
REMARK VINA RESULT:      -4.5      1.985      3.206
REMARK  1 active torsions:
REMARK  status: ('A' for Active; 'I' for Inactive)
REMARK    1  A    between atoms: C_1  and  C_4 
ROOT
HETATM    1  C   UNL     1      64.992   7.564   4.578  1.00  0.00     0.076 A 
HETATM    2  C   UNL     1      65.548   8.222   5.658  1.00  0.00     0.162 A 
HETATM    3  C   UNL     1      63.886   8.369   4.167  1.00  0.00     0.017 A 
HETATM    4  O   UNL     1      64.873   9.365   5.938  1.00  0.00    -0.321 OA
HETATM    5  C   UNL     1      63.860   9.456   5.033  1.00  0.00     0.086 A 
HETATM    6  C   UNL     1      62.902   8.301   3.159  1.00  0.00     0.015 A 
HETATM    7  C   UNL     1      62.926  10.487   4.974  1.00  0.00     0.038 A 
HETATM    8  C   UNL     1      61.946   9.324   3.074  1.00  0.00     0.001 A 
HETATM    9  C   UNL     1      61.959  10.397   3.967  1.00  0.00     0.003 A 
ENDROOT
BRANCH   1  10
HETATM   10  C   UNL     1      65.464   6.322   4.018  1.00  0.00     0.212 C 
HETATM   11  O   UNL     1      66.531   6.158   3.443  1.00  0.00    -0.644 OA
HETATM   12  O   UNL     1      64.615   5.281   4.170  1.00  0.00    -0.644 OA
ENDBRANCH   1  10
TORSDOF 1
ENDMDL
MODEL 8
REMARK VINA RESULT:      -4.4      1.297      3.038
REMARK  1 active torsions:
REMARK  status: ('A' for Active; 'I' for Inactive)
REMARK    1  A    between atoms: C_1  and  C_4 
ROOT
HETATM    1  C   UNL     1      62.485   7.591   3.033  1.00  0.00     0.076 A 
HETATM    2  C   UNL     1      62.679   7.475   4.396  1.00  0.00     0.162 A 
HETATM    3  C   UNL     1      62.248   8.981   2.797  1.00  0.00     0.017 A 
HETATM    4  O   UNL     1      62.582   8.681   5.011  1.00  0.00    -0.321 OA
HETATM    5  C   UNL     1      62.318   9.598   4.041  1.00  0.00     0.086 A 
HETATM    6  C   UNL     1      61.981   9.786   1.671  1.00  0.00     0.015 A 
HETATM    7  C   UNL     1      62.143  10.964   4.252  1.00  0.00     0.038 A 
HETATM    8  C   UNL     1      61.798  11.165   1.852  1.00  0.00     0.001 A 
HETATM    9  C   UNL     1      61.878  11.742   3.121  1.00  0.00     0.003 A 
ENDROOT
BRANCH   1  10
HETATM   10  C   UNL     1      62.521   6.507   2.084  1.00  0.00     0.212 C 
HETATM   11  O   UNL     1      61.548   5.927   1.624  1.00  0.00    -0.644 OA
HETATM   12  O   UNL     1      63.766   6.138   1.703  1.00  0.00    -0.644 OA
ENDBRANCH   1  10
TORSDOF 1
ENDMDL
MODEL 9
REMARK VINA RESULT:      -4.3      5.149      7.592
REMARK  1 active torsions:
REMARK  status: ('A' for Active; 'I' for Inactive)
REMARK    1  A    between atoms: C_1  and  C_4 
ROOT
HETATM    1  C   UNL     1      67.011   6.949   7.061  1.00  0.00     0.076 A 
HETATM    2  C   UNL     1      66.868   7.066   8.429  1.00  0.00     0.162 A 
HETATM    3  C   UNL     1      67.308   5.572   6.823  1.00  0.00     0.017 A 
HETATM    4  O   UNL     1      67.052   5.872   9.047  1.00  0.00    -0.321 OA
HETATM    5  C   UNL     1      67.321   4.962   8.072  1.00  0.00     0.086 A 
HETATM    6  C   UNL     1      67.569   4.772   5.692  1.00  0.00     0.015 A 
HETATM    7  C   UNL     1      67.574   3.609   8.284  1.00  0.00     0.038 A 
HETATM    8  C   UNL     1      67.828   3.406   5.872  1.00  0.00     0.001 A 
HETATM    9  C   UNL     1      67.831   2.836   7.147  1.00  0.00     0.003 A 
ENDROOT
BRANCH   1  10
HETATM   10  C   UNL     1      66.879   8.023   6.108  1.00  0.00     0.212 C 
HETATM   11  O   UNL     1      67.613   8.223   5.151  1.00  0.00    -0.644 OA
HETATM   12  O   UNL     1      65.835   8.852   6.339  1.00  0.00    -0.644 OA
ENDBRANCH   1  10
TORSDOF 1
ENDMDL
