MODEL 1
REMARK VINA RESULT:      -6.1      0.000      0.000
REMARK  2 active torsions:
REMARK  status: ('A' for Active; 'I' for Inactive)
REMARK    1  A    between atoms: C_5  and  C_8 
REMARK    2  A    between atoms: C_8  and  O_9 
ROOT
HETATM    1  C   UNL     1      63.717   9.252   4.966  1.00  0.00     0.084 A 
HETATM    2  O   UNL     1      64.645   8.903   5.908  1.00  0.00    -0.340 OA
HETATM    3  C   UNL     1      63.611   8.345   3.925  1.00  0.00    -0.021 A 
HETATM    4  C   UNL     1      65.133   7.591   5.514  1.00  0.00     0.064 C 
HETATM    5  C   UNL     1      62.951  10.405   5.023  1.00  0.00    -0.001 A 
HETATM    6  C   UNL     1      64.576   7.238   4.114  1.00  0.00     0.079 C 
HETATM    7  C   UNL     1      62.716   8.551   2.888  1.00  0.00     0.010 A 
HETATM    8  C   UNL     1      62.038  10.619   3.977  1.00  0.00     0.012 A 
HETATM    9  C   UNL     1      64.663   6.589   6.573  1.00  0.00     0.046 C 
HETATM   10  C   UNL     1      66.661   7.673   5.505  1.00  0.00     0.046 C 
HETATM   11  C   UNL     1      61.922   9.700   2.921  1.00  0.00     0.001 A 
ENDROOT
BRANCH   5  12
HETATM   12  C   UNL     1      63.067  11.379   6.157  1.00  0.00     0.205 C 
BRANCH  12  13
HETATM   13  O   UNL     1      64.436  11.608   6.471  1.00  0.00    -0.396 OA
HETATM   14  H   UNL     1      64.539  11.680   7.432  1.00  0.00     0.209 HD
ENDBRANCH  12  13
ENDBRANCH   5  12
TORSDOF 2
ENDMDL
MODEL 2
REMARK VINA RESULT:      -5.6      1.225      1.541
REMARK  2 active torsions:
REMARK  status: ('A' for Active; 'I' for Inactive)
REMARK    1  A    between atoms: C_5  and  C_8 
REMARK    2  A    between atoms: C_8  and  O_9 
ROOT
HETATM    1  C   UNL     1      62.939   9.439   4.201  1.00  0.00     0.084 A 
HETATM    2  O   UNL     1      63.571   8.539   5.014  1.00  0.00    -0.340 OA
HETATM    3  C   UNL     1      62.663   8.951   2.936  1.00  0.00    -0.021 A 
HETATM    4  C   UNL     1      63.635   7.300   4.255  1.00  0.00     0.064 C 
HETATM    5  C   UNL     1      62.603  10.728   4.586  1.00  0.00    -0.001 A 
HETATM    6  C   UNL     1      63.169   7.565   2.804  1.00  0.00     0.079 C 
HETATM    7  C   UNL     1      62.026   9.737   1.990  1.00  0.00     0.010 A 
HETATM    8  C   UNL     1      61.953  11.530   3.634  1.00  0.00     0.012 A 
HETATM    9  C   UNL     1      62.728   6.285   4.958  1.00  0.00     0.046 C 
HETATM   10  C   UNL     1      65.090   6.829   4.300  1.00  0.00     0.046 C 
HETATM   11  C   UNL     1      61.666  11.038   2.350  1.00  0.00     0.001 A 
ENDROOT
BRANCH   5  12
HETATM   12  C   UNL     1      62.899  11.247   5.961  1.00  0.00     0.205 C 
BRANCH  12  13
HETATM   13  O   UNL     1      64.305  11.317   6.169  1.00  0.00    -0.396 OA
HETATM   14  H   UNL     1      64.622  12.203   5.936  1.00  0.00     0.209 HD
ENDBRANCH  12  13
ENDBRANCH   5  12
TORSDOF 2
ENDMDL
MODEL 3
REMARK VINA RESULT:      -5.0      1.602      3.831
REMARK  2 active torsions:
REMARK  status: ('A' for Active; 'I' for Inactive)
REMARK    1  A    between atoms: C_5  and  C_8 
REMARK    2  A    between atoms: C_8  and  O_9 
ROOT
HETATM    1  C   UNL     1      63.179   8.698   3.835  1.00  0.00     0.084 A 
HETATM    2  O   UNL     1      62.066   9.187   3.208  1.00  0.00    -0.340 OA
HETATM    3  C   UNL     1      63.650   7.515   3.294  1.00  0.00    -0.021 A 
HETATM    4  C   UNL     1      61.829   8.301   2.079  1.00  0.00     0.064 C 
HETATM    5  C   UNL     1      63.789   9.311   4.918  1.00  0.00    -0.001 A 
HETATM    6  C   UNL     1      62.778   7.083   2.177  1.00  0.00     0.079 C 
HETATM    7  C   UNL     1      64.771   6.888   3.814  1.00  0.00     0.010 A 
HETATM    8  C   UNL     1      64.929   8.684   5.448  1.00  0.00     0.012 A 
HETATM    9  C   UNL     1      62.084   9.108   0.801  1.00  0.00     0.046 C 
HETATM   10  C   UNL     1      60.361   7.876   2.152  1.00  0.00     0.046 C 
HETATM   11  C   UNL     1      65.414   7.485   4.900  1.00  0.00     0.001 A 
ENDROOT
BRANCH   5  12
HETATM   12  C   UNL     1      63.277  10.597   5.494  1.00  0.00     0.205 C 
BRANCH  12  13
HETATM   13  O   UNL     1      64.312  11.262   6.210  1.00  0.00    -0.396 OA
HETATM   14  H   UNL     1      64.188  11.122   7.162  1.00  0.00     0.209 HD
ENDBRANCH  12  13
ENDBRANCH   5  12
TORSDOF 2
ENDMDL
MODEL 4
REMARK VINA RESULT:      -4.9      1.964      4.026
REMARK  2 active torsions:
REMARK  status: ('A' for Active; 'I' for Inactive)
REMARK    1  A    between atoms: C_5  and  C_8 
REMARK    2  A    between atoms: C_8  and  O_9 
ROOT
HETATM    1  C   UNL     1      62.465   8.758   3.443  1.00  0.00     0.084 A 
HETATM    2  O   UNL     1      62.444   7.572   2.761  1.00  0.00    -0.340 OA
HETATM    3  C   UNL     1      61.954   9.824   2.723  1.00  0.00    -0.021 A 
HETATM    4  C   UNL     1      61.765   7.851   1.505  1.00  0.00     0.064 C 
HETATM    5  C   UNL     1      62.955   8.901   4.731  1.00  0.00    -0.001 A 
HETATM    6  C   UNL     1      61.544   9.376   1.372  1.00  0.00     0.079 C 
HETATM    7  C   UNL     1      61.903  11.095   3.271  1.00  0.00     0.010 A 
HETATM    8  C   UNL     1      62.902  10.187   5.295  1.00  0.00     0.012 A 
HETATM    9  C   UNL     1      60.433   7.093   1.527  1.00  0.00     0.046 C 
HETATM   10  C   UNL     1      62.661   7.314   0.388  1.00  0.00     0.046 C 
HETATM   11  C   UNL     1      62.380  11.272   4.571  1.00  0.00     0.001 A 
ENDROOT
BRANCH   5  12
HETATM   12  C   UNL     1      63.500   7.740   5.507  1.00  0.00     0.205 C 
BRANCH  12  13
HETATM   13  O   UNL     1      62.951   7.723   6.820  1.00  0.00    -0.396 OA
HETATM   14  H   UNL     1      62.370   8.491   6.937  1.00  0.00     0.209 HD
ENDBRANCH  12  13
ENDBRANCH   5  12
TORSDOF 2
ENDMDL
MODEL 5
REMARK VINA RESULT:      -4.9      2.102      3.686
REMARK  2 active torsions:
REMARK  status: ('A' for Active; 'I' for Inactive)
REMARK    1  A    between atoms: C_5  and  C_8 
REMARK    2  A    between atoms: C_8  and  O_9 
ROOT
HETATM    1  C   UNL     1      62.734   8.743   3.209  1.00  0.00     0.084 A 
HETATM    2  O   UNL     1      63.260   7.704   3.926  1.00  0.00    -0.340 OA
HETATM    3  C   UNL     1      62.565   9.902   3.948  1.00  0.00    -0.021 A 
HETATM    4  C   UNL     1      63.565   8.246   5.241  1.00  0.00     0.064 C 
HETATM    5  C   UNL     1      62.388   8.664   1.870  1.00  0.00    -0.001 A 
HETATM    6  C   UNL     1      62.986   9.676   5.351  1.00  0.00     0.079 C 
HETATM    7  C   UNL     1      62.043  11.047   3.370  1.00  0.00     0.010 A 
HETATM    8  C   UNL     1      61.862   9.823   1.276  1.00  0.00     0.012 A 
HETATM    9  C   UNL     1      65.089   8.246   5.394  1.00  0.00     0.046 C 
HETATM   10  C   UNL     1      62.930   7.303   6.265  1.00  0.00     0.046 C 
HETATM   11  C   UNL     1      61.693  11.003   2.020  1.00  0.00     0.001 A 
ENDROOT
BRANCH   5  12
HETATM   12  C   UNL     1      62.580   7.408   1.074  1.00  0.00     0.205 C 
BRANCH  12  13
HETATM   13  O   UNL     1      61.915   6.319   1.705  1.00  0.00    -0.396 OA
HETATM   14  H   UNL     1      61.210   6.659   2.278  1.00  0.00     0.209 HD
ENDBRANCH  12  13
ENDBRANCH   5  12
TORSDOF 2
ENDMDL
MODEL 6
REMARK VINA RESULT:      -4.7      1.632      2.064
REMARK  2 active torsions:
REMARK  status: ('A' for Active; 'I' for Inactive)
REMARK    1  A    between atoms: C_5  and  C_8 
REMARK    2  A    between atoms: C_8  and  O_9 
ROOT
HETATM    1  C   UNL     1      63.272   8.550   3.725  1.00  0.00     0.084 A 
HETATM    2  O   UNL     1      63.926   8.742   4.910  1.00  0.00    -0.340 OA
HETATM    3  C   UNL     1      63.595   7.360   3.096  1.00  0.00    -0.021 A 
HETATM    4  C   UNL     1      64.682   7.522   5.146  1.00  0.00     0.064 C 
HETATM    5  C   UNL     1      62.371   9.453   3.182  1.00  0.00    -0.001 A 
HETATM    6  C   UNL     1      64.606   6.624   3.889  1.00  0.00     0.079 C 
HETATM    7  C   UNL     1      63.019   7.013   1.884  1.00  0.00     0.010 A 
HETATM    8  C   UNL     1      61.780   9.106   1.955  1.00  0.00     0.012 A 
HETATM    9  C   UNL     1      64.066   6.830   6.367  1.00  0.00     0.046 C 
HETATM   10  C   UNL     1      66.121   7.945   5.447  1.00  0.00     0.046 C 
HETATM   11  C   UNL     1      62.101   7.898   1.315  1.00  0.00     0.001 A 
ENDROOT
BRANCH   5  12
HETATM   12  C   UNL     1      62.021  10.736   3.872  1.00  0.00     0.205 C 
BRANCH  12  13
HETATM   13  O   UNL     1      61.476  11.664   2.940  1.00  0.00    -0.396 OA
HETATM   14  H   UNL     1      60.804  12.207   3.381  1.00  0.00     0.209 HD
ENDBRANCH  12  13
ENDBRANCH   5  12
TORSDOF 2
ENDMDL
MODEL 7
REMARK VINA RESULT:      -4.4     11.054     12.853
REMARK  2 active torsions:
REMARK  status: ('A' for Active; 'I' for Inactive)
REMARK    1  A    between atoms: C_5  and  C_8 
REMARK    2  A    between atoms: C_8  and  O_9 
ROOT
HETATM    1  C   UNL     1      56.864   2.581  12.284  1.00  0.00     0.084 A 
HETATM    2  O   UNL     1      55.692   3.058  11.764  1.00  0.00    -0.340 OA
HETATM    3  C   UNL     1      56.731   2.029  13.547  1.00  0.00    -0.021 A 
HETATM    4  C   UNL     1      54.660   2.702  12.726  1.00  0.00     0.064 C 
HETATM    5  C   UNL     1      58.083   2.642  11.628  1.00  0.00    -0.001 A 
HETATM    6  C   UNL     1      55.326   2.139  14.004  1.00  0.00     0.079 C 
HETATM    7  C   UNL     1      57.824   1.501  14.214  1.00  0.00     0.010 A 
HETATM    8  C   UNL     1      59.195   2.104  12.297  1.00  0.00     0.012 A 
HETATM    9  C   UNL     1      53.754   1.660  12.062  1.00  0.00     0.046 C 
HETATM   10  C   UNL     1      53.871   3.979  13.021  1.00  0.00     0.046 C 
HETATM   11  C   UNL     1      59.065   1.539  13.576  1.00  0.00     0.001 A 
ENDROOT
BRANCH   5  12
HETATM   12  C   UNL     1      58.218   3.234  10.258  1.00  0.00     0.205 C 
BRANCH  12  13
HETATM   13  O   UNL     1      58.664   4.583  10.346  1.00  0.00    -0.396 OA
HETATM   14  H   UNL     1      57.901   5.168  10.477  1.00  0.00     0.209 HD
ENDBRANCH  12  13
ENDBRANCH   5  12
TORSDOF 2
ENDMDL
MODEL 8
REMARK VINA RESULT:      -4.1      3.381      4.988
REMARK  2 active torsions:
REMARK  status: ('A' for Active; 'I' for Inactive)
REMARK    1  A    between atoms: C_5  and  C_8 
REMARK    2  A    between atoms: C_8  and  O_9 
ROOT
HETATM    1  C   UNL     1      61.004   7.642   3.866  1.00  0.00     0.084 A 
HETATM    2  O   UNL     1      60.756   8.476   2.811  1.00  0.00    -0.340 OA
HETATM    3  C   UNL     1      62.327   7.639   4.275  1.00  0.00    -0.021 A 
HETATM    4  C   UNL     1      62.007   9.171   2.555  1.00  0.00     0.064 C 
HETATM    5  C   UNL     1      60.039   6.858   4.478  1.00  0.00    -0.001 A 
HETATM    6  C   UNL     1      63.127   8.541   3.415  1.00  0.00     0.079 C 
HETATM    7  C   UNL     1      62.745   6.847   5.332  1.00  0.00     0.010 A 
HETATM    8  C   UNL     1      60.455   6.056   5.554  1.00  0.00     0.012 A 
HETATM    9  C   UNL     1      61.793  10.647   2.908  1.00  0.00     0.046 C 
HETATM   10  C   UNL     1      62.297   9.022   1.060  1.00  0.00     0.046 C 
HETATM   11  C   UNL     1      61.795   6.052   5.976  1.00  0.00     0.001 A 
ENDROOT
BRANCH   5  12
HETATM   12  C   UNL     1      58.607   6.873   4.034  1.00  0.00     0.205 C 
BRANCH  12  13
HETATM   13  O   UNL     1      58.116   8.208   4.001  1.00  0.00    -0.396 OA
HETATM   14  H   UNL     1      57.159   8.196   3.839  1.00  0.00     0.209 HD
ENDBRANCH  12  13
ENDBRANCH   5  12
TORSDOF 2
ENDMDL
MODEL 9
REMARK VINA RESULT:      -4.0      2.486      5.011
REMARK  2 active torsions:
REMARK  status: ('A' for Active; 'I' for Inactive)
REMARK    1  A    between atoms: C_5  and  C_8 
REMARK    2  A    between atoms: C_8  and  O_9 
ROOT
HETATM    1  C   UNL     1      63.654   7.512   3.284  1.00  0.00     0.084 A 
HETATM    2  O   UNL     1      62.695   7.396   2.315  1.00  0.00    -0.340 OA
HETATM    3  C   UNL     1      63.519   8.644   4.069  1.00  0.00    -0.021 A 
HETATM    4  C   UNL     1      61.774   8.500   2.537  1.00  0.00     0.064 C 
HETATM    5  C   UNL     1      64.678   6.599   3.473  1.00  0.00    -0.001 A 
HETATM    6  C   UNL     1      62.361   9.446   3.611  1.00  0.00     0.079 C 
HETATM    7  C   UNL     1      64.410   8.911   5.096  1.00  0.00     0.010 A 
HETATM    8  C   UNL     1      65.583   6.860   4.515  1.00  0.00     0.012 A 
HETATM    9  C   UNL     1      60.439   7.899   2.990  1.00  0.00     0.046 C 
HETATM   10  C   UNL     1      61.605   9.211   1.194  1.00  0.00     0.046 C 
HETATM   11  C   UNL     1      65.448   8.004   5.319  1.00  0.00     0.001 A 
ENDROOT
BRANCH   5  12
HETATM   12  C   UNL     1      64.814   5.372   2.623  1.00  0.00     0.205 C 
BRANCH  12  13
HETATM   13  O   UNL     1      63.584   4.656   2.591  1.00  0.00    -0.396 OA
HETATM   14  H   UNL     1      63.612   3.936   3.241  1.00  0.00     0.209 HD
ENDBRANCH  12  13
ENDBRANCH   5  12
TORSDOF 2
ENDMDL
