MODEL 1
REMARK VINA RESULT:      -5.7      0.000      0.000
REMARK  1 active torsions:
REMARK  status: ('A' for Active; 'I' for Inactive)
REMARK    1  A    between atoms: C_6  and  N_7 
ROOT
HETATM    1  C   UNL     1      63.972   9.392   5.123  1.00  0.00     0.102 A 
HETATM    2  O   UNL     1      65.032   8.985   5.896  1.00  0.00    -0.338 OA
HETATM    3  C   UNL     1      63.641   8.508   4.112  1.00  0.00    -0.020 A 
HETATM    4  C   UNL     1      65.434   7.691   5.360  1.00  0.00     0.065 A 
HETATM    5  C   UNL     1      64.557   7.347   4.131  1.00  0.00     0.079 A 
HETATM    6  C   UNL     1      63.275  10.575   5.338  1.00  0.00     0.060 A 
HETATM    7  C   UNL     1      62.598   8.784   3.246  1.00  0.00     0.010 A 
HETATM    8  C   UNL     1      66.913   7.800   4.981  1.00  0.00     0.046 C 
HETATM    9  C   UNL     1      65.259   6.655   6.474  1.00  0.00     0.046 C 
HETATM   10  C   UNL     1      61.899   9.983   3.414  1.00  0.00     0.003 A 
HETATM   11  C   UNL     1      62.249  10.878   4.439  1.00  0.00     0.032 A 
ENDROOT
BRANCH   6  12
HETATM   12  N   UNL     1      63.726  11.527   6.260  1.00  0.00    -0.397 N 
HETATM   13  H   UNL     1      64.687  11.730   6.327  1.00  0.00     0.156 HD
HETATM   14  H   UNL     1      63.083  11.992   6.842  1.00  0.00     0.156 HD
ENDBRANCH   6  12
TORSDOF 1
ENDMDL
MODEL 2
REMARK VINA RESULT:      -5.3      1.151      1.327
REMARK  1 active torsions:
REMARK  status: ('A' for Active; 'I' for Inactive)
REMARK    1  A    between atoms: C_6  and  N_7 
ROOT
HETATM    1  C   UNL     1      63.060   9.484   4.382  1.00  0.00     0.102 A 
HETATM    2  O   UNL     1      63.713   9.134   5.539  1.00  0.00    -0.338 OA
HETATM    3  C   UNL     1      63.103   8.513   3.397  1.00  0.00    -0.020 A 
HETATM    4  C   UNL     1      64.225   7.790   5.309  1.00  0.00     0.065 A 
HETATM    5  C   UNL     1      63.879   7.345   3.867  1.00  0.00     0.079 A 
HETATM    6  C   UNL     1      62.397  10.693   4.210  1.00  0.00     0.060 A 
HETATM    7  C   UNL     1      62.495   8.724   2.172  1.00  0.00     0.010 A 
HETATM    8  C   UNL     1      65.738   7.838   5.534  1.00  0.00     0.046 C 
HETATM    9  C   UNL     1      63.577   6.866   6.345  1.00  0.00     0.046 C 
HETATM   10  C   UNL     1      61.849   9.944   1.956  1.00  0.00     0.003 A 
HETATM   11  C   UNL     1      61.819  10.926   2.960  1.00  0.00     0.032 A 
ENDROOT
BRANCH   6  12
HETATM   12  N   UNL     1      62.502  11.720   5.156  1.00  0.00    -0.397 N 
HETATM   13  H   UNL     1      63.366  11.901   5.591  1.00  0.00     0.156 HD
HETATM   14  H   UNL     1      61.712  12.260   5.387  1.00  0.00     0.156 HD
ENDBRANCH   6  12
TORSDOF 1
ENDMDL
MODEL 3
REMARK VINA RESULT:      -4.8      2.456      3.295
REMARK  1 active torsions:
REMARK  status: ('A' for Active; 'I' for Inactive)
REMARK    1  A    between atoms: C_6  and  N_7 
ROOT
HETATM    1  C   UNL     1      62.847   8.669   3.219  1.00  0.00     0.102 A 
HETATM    2  O   UNL     1      63.429   7.661   3.949  1.00  0.00    -0.338 OA
HETATM    3  C   UNL     1      62.638   9.833   3.937  1.00  0.00    -0.020 A 
HETATM    4  C   UNL     1      63.645   8.215   5.279  1.00  0.00     0.065 A 
HETATM    5  C   UNL     1      63.090   9.659   5.334  1.00  0.00     0.079 A 
HETATM    6  C   UNL     1      62.512   8.549   1.876  1.00  0.00     0.060 A 
HETATM    7  C   UNL     1      62.054  10.936   3.339  1.00  0.00     0.010 A 
HETATM    8  C   UNL     1      62.927   7.298   6.273  1.00  0.00     0.046 C 
HETATM    9  C   UNL     1      65.153   8.190   5.549  1.00  0.00     0.046 C 
HETATM   10  C   UNL     1      61.674  10.836   1.997  1.00  0.00     0.003 A 
HETATM   11  C   UNL     1      61.883   9.646   1.280  1.00  0.00     0.032 A 
ENDROOT
BRANCH   6  12
HETATM   12  N   UNL     1      62.585   7.317   1.216  1.00  0.00    -0.397 N 
HETATM   13  H   UNL     1      61.759   6.859   0.937  1.00  0.00     0.156 HD
HETATM   14  H   UNL     1      63.461   6.907   1.033  1.00  0.00     0.156 HD
ENDBRANCH   6  12
TORSDOF 1
ENDMDL
MODEL 4
REMARK VINA RESULT:      -4.5      2.493      3.713
REMARK  1 active torsions:
REMARK  status: ('A' for Active; 'I' for Inactive)
REMARK    1  A    between atoms: C_6  and  N_7 
ROOT
HETATM    1  C   UNL     1      62.506   8.765   3.811  1.00  0.00     0.102 A 
HETATM    2  O   UNL     1      62.523   7.486   3.311  1.00  0.00    -0.338 OA
HETATM    3  C   UNL     1      61.934   9.694   2.960  1.00  0.00    -0.020 A 
HETATM    4  C   UNL     1      61.881   7.567   2.006  1.00  0.00     0.065 A 
HETATM    5  C   UNL     1      61.507   9.039   1.704  1.00  0.00     0.079 A 
HETATM    6  C   UNL     1      62.998   9.106   5.065  1.00  0.00     0.060 A 
HETATM    7  C   UNL     1      61.851  11.027   3.322  1.00  0.00     0.010 A 
HETATM    8  C   UNL     1      62.876   7.019   0.979  1.00  0.00     0.046 C 
HETATM    9  C   UNL     1      60.637   6.675   2.047  1.00  0.00     0.046 C 
HETATM   10  C   UNL     1      62.368  11.408   4.563  1.00  0.00     0.003 A 
HETATM   11  C   UNL     1      62.954  10.458   5.417  1.00  0.00     0.032 A 
ENDROOT
BRANCH   6  12
HETATM   12  N   UNL     1      63.714   8.185   5.840  1.00  0.00    -0.397 N 
HETATM   13  H   UNL     1      64.667   8.339   6.031  1.00  0.00     0.156 HD
HETATM   14  H   UNL     1      63.264   7.383   6.191  1.00  0.00     0.156 HD
ENDBRANCH   6  12
TORSDOF 1
ENDMDL
MODEL 5
REMARK VINA RESULT:      -4.4      1.812      4.081
REMARK  1 active torsions:
REMARK  status: ('A' for Active; 'I' for Inactive)
REMARK    1  A    between atoms: C_6  and  N_7 
ROOT
HETATM    1  C   UNL     1      63.414   8.506   3.864  1.00  0.00     0.102 A 
HETATM    2  O   UNL     1      62.308   9.100   3.306  1.00  0.00    -0.338 OA
HETATM    3  C   UNL     1      63.810   7.345   3.225  1.00  0.00    -0.020 A 
HETATM    4  C   UNL     1      61.944   8.263   2.172  1.00  0.00     0.065 A 
HETATM    5  C   UNL     1      62.897   7.045   2.101  1.00  0.00     0.079 A 
HETATM    6  C   UNL     1      64.093   9.023   4.961  1.00  0.00     0.060 A 
HETATM    7  C   UNL     1      64.905   6.629   3.676  1.00  0.00     0.010 A 
HETATM    8  C   UNL     1      60.491   7.827   2.380  1.00  0.00     0.046 C 
HETATM    9  C   UNL     1      62.049   9.124   0.910  1.00  0.00     0.046 C 
HETATM   10  C   UNL     1      65.589   7.105   4.798  1.00  0.00     0.003 A 
HETATM   11  C   UNL     1      65.173   8.281   5.445  1.00  0.00     0.032 A 
ENDROOT
BRANCH   6  12
HETATM   12  N   UNL     1      63.582  10.106   5.687  1.00  0.00    -0.397 N 
HETATM   13  H   UNL     1      62.768  10.565   5.378  1.00  0.00     0.156 HD
HETATM   14  H   UNL     1      64.038  10.409   6.505  1.00  0.00     0.156 HD
ENDBRANCH   6  12
TORSDOF 1
ENDMDL
MODEL 6
REMARK VINA RESULT:      -4.2      2.145      4.354
REMARK  1 active torsions:
REMARK  status: ('A' for Active; 'I' for Inactive)
REMARK    1  A    between atoms: C_6  and  N_7 
ROOT
HETATM    1  C   UNL     1      65.571   7.372   5.674  1.00  0.00     0.102 A 
HETATM    2  O   UNL     1      64.600   8.092   6.327  1.00  0.00    -0.338 OA
HETATM    3  C   UNL     1      65.176   6.884   4.441  1.00  0.00    -0.020 A 
HETATM    4  C   UNL     1      63.451   8.101   5.432  1.00  0.00     0.065 A 
HETATM    5  C   UNL     1      63.773   7.264   4.169  1.00  0.00     0.079 A 
HETATM    6  C   UNL     1      66.846   7.160   6.186  1.00  0.00     0.060 A 
HETATM    7  C   UNL     1      66.043   6.133   3.667  1.00  0.00     0.010 A 
HETATM    8  C   UNL     1      62.269   7.514   6.208  1.00  0.00     0.046 C 
HETATM    9  C   UNL     1      63.159   9.560   5.071  1.00  0.00     0.046 C 
HETATM   10  C   UNL     1      67.321   5.875   4.170  1.00  0.00     0.003 A 
HETATM   11  C   UNL     1      67.710   6.368   5.427  1.00  0.00     0.032 A 
ENDROOT
BRANCH   6  12
HETATM   12  N   UNL     1      67.170   7.524   7.499  1.00  0.00    -0.397 N 
HETATM   13  H   UNL     1      67.098   8.464   7.781  1.00  0.00     0.156 HD
HETATM   14  H   UNL     1      67.473   6.840   8.139  1.00  0.00     0.156 HD
ENDBRANCH   6  12
TORSDOF 1
ENDMDL
MODEL 7
REMARK VINA RESULT:      -4.2      2.021      4.572
REMARK  1 active torsions:
REMARK  status: ('A' for Active; 'I' for Inactive)
REMARK    1  A    between atoms: C_6  and  N_7 
ROOT
HETATM    1  C   UNL     1      65.723   7.617   5.691  1.00  0.00     0.102 A 
HETATM    2  O   UNL     1      65.279   8.621   4.866  1.00  0.00    -0.338 OA
HETATM    3  C   UNL     1      64.709   6.897   6.297  1.00  0.00    -0.020 A 
HETATM    4  C   UNL     1      63.825   8.552   4.912  1.00  0.00     0.065 A 
HETATM    5  C   UNL     1      63.392   7.437   5.895  1.00  0.00     0.079 A 
HETATM    6  C   UNL     1      67.067   7.326   5.893  1.00  0.00     0.060 A 
HETATM    7  C   UNL     1      65.000   5.857   7.162  1.00  0.00     0.010 A 
HETATM    8  C   UNL     1      63.322   9.926   5.364  1.00  0.00     0.046 C 
HETATM    9  C   UNL     1      63.332   8.262   3.492  1.00  0.00     0.046 C 
HETATM   10  C   UNL     1      66.343   5.562   7.412  1.00  0.00     0.003 A 
HETATM   11  C   UNL     1      67.366   6.305   6.798  1.00  0.00     0.032 A 
ENDROOT
BRANCH   6  12
HETATM   12  N   UNL     1      68.074   8.165   5.399  1.00  0.00    -0.397 N 
HETATM   13  H   UNL     1      68.777   8.497   6.002  1.00  0.00     0.156 HD
HETATM   14  H   UNL     1      68.077   8.423   4.449  1.00  0.00     0.156 HD
ENDBRANCH   6  12
TORSDOF 1
ENDMDL
MODEL 8
REMARK VINA RESULT:      -4.1     11.993     13.383
REMARK  1 active torsions:
REMARK  status: ('A' for Active; 'I' for Inactive)
REMARK    1  A    between atoms: C_6  and  N_7 
ROOT
HETATM    1  C   UNL     1      56.946   2.475  12.551  1.00  0.00     0.102 A 
HETATM    2  O   UNL     1      55.864   3.201  12.116  1.00  0.00    -0.338 OA
HETATM    3  C   UNL     1      56.678   1.666  13.642  1.00  0.00    -0.020 A 
HETATM    4  C   UNL     1      54.762   2.823  12.990  1.00  0.00     0.065 A 
HETATM    5  C   UNL     1      55.269   1.827  14.062  1.00  0.00     0.079 A 
HETATM    6  C   UNL     1      58.197   2.525  11.949  1.00  0.00     0.060 A 
HETATM    7  C   UNL     1      57.671   0.880  14.198  1.00  0.00     0.010 A 
HETATM    8  C   UNL     1      54.230   4.110  13.627  1.00  0.00     0.046 C 
HETATM    9  C   UNL     1      53.674   2.192  12.116  1.00  0.00     0.046 C 
HETATM   10  C   UNL     1      58.950   0.934  13.636  1.00  0.00     0.003 A 
HETATM   11  C   UNL     1      59.213   1.765  12.534  1.00  0.00     0.032 A 
ENDROOT
BRANCH   6  12
HETATM   12  N   UNL     1      58.487   3.466  10.953  1.00  0.00    -0.397 N 
HETATM   13  H   UNL     1      58.090   4.365  10.996  1.00  0.00     0.156 HD
HETATM   14  H   UNL     1      59.085   3.227  10.209  1.00  0.00     0.156 HD
ENDBRANCH   6  12
TORSDOF 1
ENDMDL
MODEL 9
REMARK VINA RESULT:      -4.1      2.716      4.699
REMARK  1 active torsions:
REMARK  status: ('A' for Active; 'I' for Inactive)
REMARK    1  A    between atoms: C_6  and  N_7 
ROOT
HETATM    1  C   UNL     1      63.670   7.504   3.288  1.00  0.00     0.102 A 
HETATM    2  O   UNL     1      62.797   7.303   2.246  1.00  0.00    -0.338 OA
HETATM    3  C   UNL     1      63.434   8.666   4.001  1.00  0.00    -0.020 A 
HETATM    4  C   UNL     1      61.878   8.432   2.281  1.00  0.00     0.065 A 
HETATM    5  C   UNL     1      62.291   9.400   3.416  1.00  0.00     0.079 A 
HETATM    6  C   UNL     1      64.689   6.620   3.618  1.00  0.00     0.060 A 
HETATM    7  C   UNL     1      64.235   9.009   5.077  1.00  0.00     0.010 A 
HETATM    8  C   UNL     1      61.946   9.113   0.911  1.00  0.00     0.046 C 
HETATM    9  C   UNL     1      60.470   7.875   2.512  1.00  0.00     0.046 C 
HETATM   10  C   UNL     1      65.290   8.157   5.413  1.00  0.00     0.003 A 
HETATM   11  C   UNL     1      65.526   6.983   4.676  1.00  0.00     0.032 A 
ENDROOT
BRANCH   6  12
HETATM   12  N   UNL     1      65.009   5.538   2.788  1.00  0.00    -0.397 N 
HETATM   13  H   UNL     1      64.408   4.759   2.742  1.00  0.00     0.156 HD
HETATM   14  H   UNL     1      65.834   5.555   2.253  1.00  0.00     0.156 HD
ENDBRANCH   6  12
TORSDOF 1
ENDMDL
