MODEL 1
REMARK VINA RESULT:      -6.1      0.000      0.000
REMARK  1 active torsions:
REMARK  status: ('A' for Active; 'I' for Inactive)
REMARK    1  A    between atoms: C_2  and  C_4 
ROOT
HETATM    1  C   UNL     1      62.886   8.891   3.234  1.00  0.00     0.093 A 
HETATM    2  C   UNL     1      62.158   9.809   2.488  1.00  0.00     0.074 A 
HETATM    3  O   UNL     1      63.421   9.116   4.473  1.00  0.00    -0.339 OA
HETATM    4  C   UNL     1      63.150   7.615   2.755  1.00  0.00    -0.021 A 
HETATM    5  C   UNL     1      63.996   7.855   4.908  1.00  0.00     0.064 C 
HETATM    6  C   UNL     1      63.970   6.856   3.730  1.00  0.00     0.079 C 
HETATM    7  C   UNL     1      61.690   9.397   1.229  1.00  0.00     0.021 A 
HETATM    8  C   UNL     1      62.696   7.203   1.513  1.00  0.00     0.010 A 
HETATM    9  C   UNL     1      61.956   8.104   0.747  1.00  0.00     0.002 A 
HETATM   10  C   UNL     1      63.159   7.352   6.089  1.00  0.00     0.046 C 
HETATM   11  C   UNL     1      65.427   8.149   5.362  1.00  0.00     0.046 C 
ENDROOT
BRANCH   2  12
HETATM   12  C   UNL     1      61.882  11.176   3.004  1.00  0.00     0.212 C 
HETATM   13  O   UNL     1      61.666  11.515   4.151  1.00  0.00    -0.644 OA
HETATM   14  O   UNL     1      61.886  12.094   2.016  1.00  0.00    -0.644 OA
ENDBRANCH   2  12
TORSDOF 1
ENDMDL
MODEL 2
REMARK VINA RESULT:      -6.0      1.556      2.063
REMARK  1 active torsions:
REMARK  status: ('A' for Active; 'I' for Inactive)
REMARK    1  A    between atoms: C_2  and  C_4 
ROOT
HETATM    1  C   UNL     1      63.945   8.825   4.698  1.00  0.00     0.093 A 
HETATM    2  C   UNL     1      62.950   9.766   4.466  1.00  0.00     0.074 A 
HETATM    3  O   UNL     1      64.894   8.895   5.681  1.00  0.00    -0.339 OA
HETATM    4  C   UNL     1      64.067   7.690   3.908  1.00  0.00    -0.021 A 
HETATM    5  C   UNL     1      65.645   7.654   5.616  1.00  0.00     0.064 C 
HETATM    6  C   UNL     1      65.225   6.876   4.350  1.00  0.00     0.079 C 
HETATM    7  C   UNL     1      62.063   9.524   3.402  1.00  0.00     0.021 A 
HETATM    8  C   UNL     1      63.200   7.447   2.856  1.00  0.00     0.010 A 
HETATM    9  C   UNL     1      62.188   8.374   2.606  1.00  0.00     0.002 A 
HETATM   10  C   UNL     1      65.335   6.861   6.890  1.00  0.00     0.046 C 
HETATM   11  C   UNL     1      67.128   8.030   5.576  1.00  0.00     0.046 C 
ENDROOT
BRANCH   2  12
HETATM   12  C   UNL     1      62.826  10.982   5.312  1.00  0.00     0.212 C 
HETATM   13  O   UNL     1      63.308  11.185   6.409  1.00  0.00    -0.644 OA
HETATM   14  O   UNL     1      62.067  11.928   4.721  1.00  0.00    -0.644 OA
ENDBRANCH   2  12
TORSDOF 1
ENDMDL
MODEL 3
REMARK VINA RESULT:      -5.7      2.096      3.721
REMARK  1 active torsions:
REMARK  status: ('A' for Active; 'I' for Inactive)
REMARK    1  A    between atoms: C_2  and  C_4 
ROOT
HETATM    1  C   UNL     1      62.495   8.840   3.061  1.00  0.00     0.093 A 
HETATM    2  C   UNL     1      62.743   9.599   4.197  1.00  0.00     0.074 A 
HETATM    3  O   UNL     1      62.750   7.502   2.926  1.00  0.00    -0.339 OA
HETATM    4  C   UNL     1      61.952   9.405   1.916  1.00  0.00    -0.021 A 
HETATM    5  C   UNL     1      62.236   7.116   1.624  1.00  0.00     0.064 C 
HETATM    6  C   UNL     1      61.823   8.385   0.847  1.00  0.00     0.079 C 
HETATM    7  C   UNL     1      62.417  10.966   4.148  1.00  0.00     0.021 A 
HETATM    8  C   UNL     1      61.633  10.752   1.858  1.00  0.00     0.010 A 
HETATM    9  C   UNL     1      61.866  11.535   2.988  1.00  0.00     0.002 A 
HETATM   10  C   UNL     1      61.039   6.189   1.860  1.00  0.00     0.046 C 
HETATM   11  C   UNL     1      63.356   6.359   0.907  1.00  0.00     0.046 C 
ENDROOT
BRANCH   2  12
HETATM   12  C   UNL     1      63.329   8.990   5.420  1.00  0.00     0.212 C 
HETATM   13  O   UNL     1      62.787   8.266   6.231  1.00  0.00    -0.644 OA
HETATM   14  O   UNL     1      64.624   9.334   5.579  1.00  0.00    -0.644 OA
ENDBRANCH   2  12
TORSDOF 1
ENDMDL
MODEL 4
REMARK VINA RESULT:      -5.0      1.661      4.509
REMARK  1 active torsions:
REMARK  status: ('A' for Active; 'I' for Inactive)
REMARK    1  A    between atoms: C_2  and  C_4 
ROOT
HETATM    1  C   UNL     1      62.989   8.140   4.446  1.00  0.00     0.093 A 
HETATM    2  C   UNL     1      63.896   7.629   5.366  1.00  0.00     0.074 A 
HETATM    3  O   UNL     1      63.254   9.117   3.525  1.00  0.00    -0.339 OA
HETATM    4  C   UNL     1      61.679   7.684   4.391  1.00  0.00    -0.021 A 
HETATM    5  C   UNL     1      62.056   9.250   2.713  1.00  0.00     0.064 C 
HETATM    6  C   UNL     1      60.922   8.417   3.347  1.00  0.00     0.079 C 
HETATM    7  C   UNL     1      63.440   6.627   6.239  1.00  0.00     0.021 A 
HETATM    8  C   UNL     1      61.221   6.700   5.251  1.00  0.00     0.010 A 
HETATM    9  C   UNL     1      62.114   6.167   6.180  1.00  0.00     0.002 A 
HETATM   10  C   UNL     1      62.398   8.754   1.305  1.00  0.00     0.046 C 
HETATM   11  C   UNL     1      61.705  10.739   2.678  1.00  0.00     0.046 C 
ENDROOT
BRANCH   2  12
HETATM   12  C   UNL     1      65.297   8.123   5.423  1.00  0.00     0.212 C 
HETATM   13  O   UNL     1      65.746   9.028   6.098  1.00  0.00    -0.644 OA
HETATM   14  O   UNL     1      66.106   7.433   4.593  1.00  0.00    -0.644 OA
ENDBRANCH   2  12
TORSDOF 1
ENDMDL
MODEL 5
REMARK VINA RESULT:      -5.0      1.692      3.807
REMARK  1 active torsions:
REMARK  status: ('A' for Active; 'I' for Inactive)
REMARK    1  A    between atoms: C_2  and  C_4 
ROOT
HETATM    1  C   UNL     1      61.668   8.739   3.069  1.00  0.00     0.093 A 
HETATM    2  C   UNL     1      62.147   9.814   3.807  1.00  0.00     0.074 A 
HETATM    3  O   UNL     1      61.052   8.821   1.850  1.00  0.00    -0.339 OA
HETATM    4  C   UNL     1      61.773   7.436   3.536  1.00  0.00    -0.021 A 
HETATM    5  C   UNL     1      60.824   7.454   1.413  1.00  0.00     0.064 C 
HETATM    6  C   UNL     1      61.156   6.491   2.573  1.00  0.00     0.079 C 
HETATM    7  C   UNL     1      62.749   9.535   5.045  1.00  0.00     0.021 A 
HETATM    8  C   UNL     1      62.362   7.153   4.758  1.00  0.00     0.010 A 
HETATM    9  C   UNL     1      62.856   8.215   5.514  1.00  0.00     0.002 A 
HETATM   10  C   UNL     1      61.726   7.203   0.200  1.00  0.00     0.046 C 
HETATM   11  C   UNL     1      59.352   7.355   1.006  1.00  0.00     0.046 C 
ENDROOT
BRANCH   2  12
HETATM   12  C   UNL     1      62.028  11.208   3.304  1.00  0.00     0.212 C 
HETATM   13  O   UNL     1      62.105  11.601   2.157  1.00  0.00    -0.644 OA
HETATM   14  O   UNL     1      61.812  12.085   4.307  1.00  0.00    -0.644 OA
ENDBRANCH   2  12
TORSDOF 1
ENDMDL
MODEL 6
REMARK VINA RESULT:      -4.9      2.108      3.412
REMARK  1 active torsions:
REMARK  status: ('A' for Active; 'I' for Inactive)
REMARK    1  A    between atoms: C_2  and  C_4 
ROOT
HETATM    1  C   UNL     1      62.805   8.160   3.056  1.00  0.00     0.093 A 
HETATM    2  C   UNL     1      62.407   7.956   1.742  1.00  0.00     0.074 A 
HETATM    3  O   UNL     1      63.362   7.215   3.876  1.00  0.00    -0.339 OA
HETATM    4  C   UNL     1      62.656   9.393   3.676  1.00  0.00    -0.021 A 
HETATM    5  C   UNL     1      63.715   7.898   5.108  1.00  0.00     0.064 C 
HETATM    6  C   UNL     1      63.129   9.326   5.080  1.00  0.00     0.079 C 
HETATM    7  C   UNL     1      61.850   9.049   1.055  1.00  0.00     0.021 A 
HETATM    8  C   UNL     1      62.104  10.473   3.008  1.00  0.00     0.010 A 
HETATM    9  C   UNL     1      61.702  10.296   1.684  1.00  0.00     0.002 A 
HETATM   10  C   UNL     1      65.245   7.921   5.198  1.00  0.00     0.046 C 
HETATM   11  C   UNL     1      63.131   7.075   6.258  1.00  0.00     0.046 C 
ENDROOT
BRANCH   2  12
HETATM   12  C   UNL     1      62.566   6.632   1.084  1.00  0.00     0.212 C 
HETATM   13  O   UNL     1      63.531   6.204   0.483  1.00  0.00    -0.644 OA
HETATM   14  O   UNL     1      61.457   5.874   1.213  1.00  0.00    -0.644 OA
ENDBRANCH   2  12
TORSDOF 1
ENDMDL
MODEL 7
REMARK VINA RESULT:      -4.9      2.525      3.342
REMARK  1 active torsions:
REMARK  status: ('A' for Active; 'I' for Inactive)
REMARK    1  A    between atoms: C_2  and  C_4 
ROOT
HETATM    1  C   UNL     1      60.893   8.499   2.938  1.00  0.00     0.093 A 
HETATM    2  C   UNL     1      61.772   9.557   2.744  1.00  0.00     0.074 A 
HETATM    3  O   UNL     1      60.230   8.218   4.102  1.00  0.00    -0.339 OA
HETATM    4  C   UNL     1      60.610   7.596   1.923  1.00  0.00    -0.021 A 
HETATM    5  C   UNL     1      59.347   7.102   3.812  1.00  0.00     0.064 C 
HETATM    6  C   UNL     1      59.672   6.554   2.405  1.00  0.00     0.079 C 
HETATM    7  C   UNL     1      62.364   9.684   1.476  1.00  0.00     0.021 A 
HETATM    8  C   UNL     1      61.193   7.713   0.672  1.00  0.00     0.010 A 
HETATM    9  C   UNL     1      62.075   8.770   0.449  1.00  0.00     0.002 A 
HETATM   10  C   UNL     1      57.908   7.621   3.893  1.00  0.00     0.046 C 
HETATM   11  C   UNL     1      59.590   6.047   4.894  1.00  0.00     0.046 C 
ENDROOT
BRANCH   2  12
HETATM   12  C   UNL     1      62.075  10.518   3.837  1.00  0.00     0.212 C 
HETATM   13  O   UNL     1      61.702  11.669   3.947  1.00  0.00    -0.644 OA
HETATM   14  O   UNL     1      62.870   9.971   4.780  1.00  0.00    -0.644 OA
ENDBRANCH   2  12
TORSDOF 1
ENDMDL
MODEL 8
REMARK VINA RESULT:      -4.6     10.654     13.063
REMARK  1 active torsions:
REMARK  status: ('A' for Active; 'I' for Inactive)
REMARK    1  A    between atoms: C_2  and  C_4 
ROOT
HETATM    1  C   UNL     1      56.956   2.585  12.320  1.00  0.00     0.093 A 
HETATM    2  C   UNL     1      58.192   2.625  11.688  1.00  0.00     0.074 A 
HETATM    3  O   UNL     1      55.798   3.134  11.840  1.00  0.00    -0.339 OA
HETATM    4  C   UNL     1      56.791   1.963  13.550  1.00  0.00    -0.021 A 
HETATM    5  C   UNL     1      54.748   2.756  12.770  1.00  0.00     0.064 C 
HETATM    6  C   UNL     1      55.387   2.095  14.011  1.00  0.00     0.079 C 
HETATM    7  C   UNL     1      59.274   2.006  12.338  1.00  0.00     0.021 A 
HETATM    8  C   UNL     1      57.853   1.355  14.199  1.00  0.00     0.010 A 
HETATM    9  C   UNL     1      59.103   1.376  13.582  1.00  0.00     0.002 A 
HETATM   10  C   UNL     1      53.813   1.788  12.038  1.00  0.00     0.046 C 
HETATM   11  C   UNL     1      53.997   4.036  13.141  1.00  0.00     0.046 C 
ENDROOT
BRANCH   2  12
HETATM   12  C   UNL     1      58.364   3.296  10.373  1.00  0.00     0.212 C 
HETATM   13  O   UNL     1      58.641   4.458  10.154  1.00  0.00    -0.644 OA
HETATM   14  O   UNL     1      58.168   2.442   9.346  1.00  0.00    -0.644 OA
ENDBRANCH   2  12
TORSDOF 1
ENDMDL
MODEL 9
REMARK VINA RESULT:      -4.5      3.045      3.974
REMARK  1 active torsions:
REMARK  status: ('A' for Active; 'I' for Inactive)
REMARK    1  A    between atoms: C_2  and  C_4 
ROOT
HETATM    1  C   UNL     1      60.390   8.249   2.662  1.00  0.00     0.093 A 
HETATM    2  C   UNL     1      59.256   7.448   2.652  1.00  0.00     0.074 A 
HETATM    3  O   UNL     1      60.919   8.868   3.763  1.00  0.00    -0.339 OA
HETATM    4  C   UNL     1      61.107   8.505   1.501  1.00  0.00    -0.021 A 
HETATM    5  C   UNL     1      62.151   9.500   3.326  1.00  0.00     0.064 C 
HETATM    6  C   UNL     1      62.247   9.411   1.787  1.00  0.00     0.079 C 
HETATM    7  C   UNL     1      58.860   6.899   1.420  1.00  0.00     0.021 A 
HETATM    8  C   UNL     1      60.721   7.971   0.283  1.00  0.00     0.010 A 
HETATM    9  C   UNL     1      59.588   7.158   0.247  1.00  0.00     0.002 A 
HETATM   10  C   UNL     1      63.311   8.763   4.003  1.00  0.00     0.046 C 
HETATM   11  C   UNL     1      62.100  10.954   3.800  1.00  0.00     0.046 C 
ENDROOT
BRANCH   2  12
HETATM   12  C   UNL     1      58.490   7.181   3.898  1.00  0.00     0.212 C 
HETATM   13  O   UNL     1      57.626   7.866   4.409  1.00  0.00    -0.644 OA
HETATM   14  O   UNL     1      58.860   6.018   4.473  1.00  0.00    -0.644 OA
ENDBRANCH   2  12
TORSDOF 1
ENDMDL
