MODEL 1
REMARK VINA RESULT:      -5.4      0.000      0.000
REMARK  3 active torsions:
REMARK  status: ('A' for Active; 'I' for Inactive)
REMARK    1  A    between atoms: C_3  and  C_7 
REMARK    2  A    between atoms: C_4  and  C_8 
REMARK    3  A    between atoms: C_8  and  O_10 
ROOT
HETATM    1  N   UNL     1      61.774  10.276   2.671  1.00  0.00    -0.309 N 
ATOM      2  HN  UNL     1      61.266  10.402   1.796  1.00  0.00     0.186 HD
HETATM    3  C   UNL     1      63.006   9.322   4.351  1.00  0.00     0.070 A 
HETATM    4  C   UNL     1      62.646  10.615   4.749  1.00  0.00     0.011 A 
HETATM    5  N   UNL     1      62.485   9.201   3.071  1.00  0.00    -0.296 N 
HETATM    6  C   UNL     1      61.888  11.131   3.679  1.00  0.00     0.119 A 
HETATM    7  C   UNL     1      62.623   8.143   2.098  1.00  0.00     0.178 C 
ENDROOT
BRANCH   3   8
HETATM    8  C   UNL     1      63.783   8.291   5.072  1.00  0.00    -0.007 A 
HETATM    9  C   UNL     1      65.185   8.309   5.048  1.00  0.00     0.014 A 
HETATM   10  C   UNL     1      65.941   7.371   5.760  1.00  0.00     0.001 A 
HETATM   11  C   UNL     1      65.305   6.371   6.485  1.00  0.00     0.000 A 
HETATM   12  C   UNL     1      63.916   6.324   6.516  1.00  0.00     0.001 A 
HETATM   13  C   UNL     1      63.163   7.291   5.837  1.00  0.00     0.014 A 
ENDBRANCH   3   8
BRANCH   4  14
HETATM   14  C   UNL     1      62.943  11.369   6.003  1.00  0.00     0.206 C 
BRANCH  14  15
HETATM   15  O   UNL     1      64.337  11.467   6.262  1.00  0.00    -0.396 OA
HETATM   16  H   UNL     1      64.582  10.840   6.960  1.00  0.00     0.209 HD
ENDBRANCH  14  15
ENDBRANCH   4  14
TORSDOF 3
ENDMDL
MODEL 2
REMARK VINA RESULT:      -5.4      1.923      4.493
REMARK  3 active torsions:
REMARK  status: ('A' for Active; 'I' for Inactive)
REMARK    1  A    between atoms: C_3  and  C_7 
REMARK    2  A    between atoms: C_4  and  C_8 
REMARK    3  A    between atoms: C_8  and  O_10 
ROOT
HETATM    1  N   UNL     1      62.421   5.986   5.879  1.00  0.00    -0.309 N 
ATOM      2  HN  UNL     1      61.985   5.148   6.264  1.00  0.00     0.186 HD
HETATM    3  C   UNL     1      62.755   7.900   4.666  1.00  0.00     0.070 A 
HETATM    4  C   UNL     1      63.937   7.605   5.356  1.00  0.00     0.011 A 
HETATM    5  N   UNL     1      61.870   6.908   5.063  1.00  0.00    -0.296 N 
HETATM    6  C   UNL     1      63.661   6.419   6.065  1.00  0.00     0.119 A 
HETATM    7  C   UNL     1      60.464   6.738   4.782  1.00  0.00     0.178 C 
ENDROOT
BRANCH   3   8
HETATM    8  C   UNL     1      62.452   9.012   3.739  1.00  0.00    -0.007 A 
HETATM    9  C   UNL     1      62.387   8.789   2.356  1.00  0.00     0.014 A 
HETATM   10  C   UNL     1      62.057   9.815   1.464  1.00  0.00     0.001 A 
HETATM   11  C   UNL     1      61.820  11.100   1.938  1.00  0.00     0.000 A 
HETATM   12  C   UNL     1      61.890  11.351   3.304  1.00  0.00     0.001 A 
HETATM   13  C   UNL     1      62.177  10.310   4.198  1.00  0.00     0.014 A 
ENDBRANCH   3   8
BRANCH   4  14
HETATM   14  C   UNL     1      65.248   8.317   5.396  1.00  0.00     0.206 C 
BRANCH  14  15
HETATM   15  O   UNL     1      65.148   9.611   5.975  1.00  0.00    -0.396 OA
HETATM   16  H   UNL     1      66.011  10.050   5.937  1.00  0.00     0.209 HD
ENDBRANCH  14  15
ENDBRANCH   4  14
TORSDOF 3
ENDMDL
MODEL 3
REMARK VINA RESULT:      -5.0      2.226      4.565
REMARK  3 active torsions:
REMARK  status: ('A' for Active; 'I' for Inactive)
REMARK    1  A    between atoms: C_3  and  C_7 
REMARK    2  A    between atoms: C_4  and  C_8 
REMARK    3  A    between atoms: C_8  and  O_10 
ROOT
HETATM    1  N   UNL     1      63.943   5.589   6.605  1.00  0.00    -0.309 N 
ATOM      2  HN  UNL     1      63.701   4.689   7.020  1.00  0.00     0.186 HD
HETATM    3  C   UNL     1      63.776   7.582   5.489  1.00  0.00     0.070 A 
HETATM    4  C   UNL     1      65.113   7.399   5.866  1.00  0.00     0.011 A 
HETATM    5  N   UNL     1      63.121   6.474   6.006  1.00  0.00    -0.296 N 
HETATM    6  C   UNL     1      65.139   6.158   6.532  1.00  0.00     0.119 A 
HETATM    7  C   UNL     1      61.714   6.150   6.045  1.00  0.00     0.178 C 
ENDROOT
BRANCH   3   8
HETATM    8  C   UNL     1      63.147   8.690   4.738  1.00  0.00    -0.007 A 
HETATM    9  C   UNL     1      62.981   9.949   5.333  1.00  0.00     0.014 A 
HETATM   10  C   UNL     1      62.431  11.025   4.627  1.00  0.00     0.001 A 
HETATM   11  C   UNL     1      62.001  10.850   3.317  1.00  0.00     0.000 A 
HETATM   12  C   UNL     1      62.144   9.609   2.708  1.00  0.00     0.001 A 
HETATM   13  C   UNL     1      62.736   8.547   3.403  1.00  0.00     0.014 A 
ENDBRANCH   3   8
BRANCH   4  14
HETATM   14  C   UNL     1      66.313   8.261   5.654  1.00  0.00     0.206 C 
BRANCH  14  15
HETATM   15  O   UNL     1      66.788   8.839   6.862  1.00  0.00    -0.396 OA
HETATM   16  H   UNL     1      66.266   8.505   7.607  1.00  0.00     0.209 HD
ENDBRANCH  14  15
ENDBRANCH   4  14
TORSDOF 3
ENDMDL
MODEL 4
REMARK VINA RESULT:      -4.8      2.565      4.860
REMARK  3 active torsions:
REMARK  status: ('A' for Active; 'I' for Inactive)
REMARK    1  A    between atoms: C_3  and  C_7 
REMARK    2  A    between atoms: C_4  and  C_8 
REMARK    3  A    between atoms: C_8  and  O_10 
ROOT
HETATM    1  N   UNL     1      65.079   6.338   6.376  1.00  0.00    -0.309 N 
ATOM      2  HN  UNL     1      65.966   5.966   6.714  1.00  0.00     0.186 HD
HETATM    3  C   UNL     1      63.533   7.712   5.391  1.00  0.00     0.070 A 
HETATM    4  C   UNL     1      62.855   6.634   5.973  1.00  0.00     0.011 A 
HETATM    5  N   UNL     1      64.873   7.446   5.634  1.00  0.00    -0.296 N 
HETATM    6  C   UNL     1      63.863   5.844   6.564  1.00  0.00     0.119 A 
HETATM    7  C   UNL     1      66.061   8.131   5.185  1.00  0.00     0.178 C 
ENDROOT
BRANCH   3   8
HETATM    8  C   UNL     1      63.000   8.878   4.654  1.00  0.00    -0.007 A 
HETATM    9  C   UNL     1      62.572   8.746   3.325  1.00  0.00     0.014 A 
HETATM   10  C   UNL     1      62.022   9.823   2.622  1.00  0.00     0.001 A 
HETATM   11  C   UNL     1      61.922  11.070   3.228  1.00  0.00     0.000 A 
HETATM   12  C   UNL     1      62.350  11.231   4.540  1.00  0.00     0.001 A 
HETATM   13  C   UNL     1      62.859  10.139   5.255  1.00  0.00     0.014 A 
ENDBRANCH   3   8
BRANCH   4  14
HETATM   14  C   UNL     1      61.400   6.304   6.018  1.00  0.00     0.206 C 
BRANCH  14  15
HETATM   15  O   UNL     1      60.858   6.414   7.327  1.00  0.00    -0.396 OA
HETATM   16  H   UNL     1      60.742   5.529   7.705  1.00  0.00     0.209 HD
ENDBRANCH  14  15
ENDBRANCH   4  14
TORSDOF 3
ENDMDL
MODEL 5
REMARK VINA RESULT:      -4.5      2.049      3.177
REMARK  3 active torsions:
REMARK  status: ('A' for Active; 'I' for Inactive)
REMARK    1  A    between atoms: C_3  and  C_7 
REMARK    2  A    between atoms: C_4  and  C_8 
REMARK    3  A    between atoms: C_8  and  O_10 
ROOT
HETATM    1  N   UNL     1      61.796  11.109   2.826  1.00  0.00    -0.309 N 
ATOM      2  HN  UNL     1      61.470  12.070   2.724  1.00  0.00     0.186 HD
HETATM    3  C   UNL     1      62.743   9.217   3.703  1.00  0.00     0.070 A 
HETATM    4  C   UNL     1      62.332   8.936   2.394  1.00  0.00     0.011 A 
HETATM    5  N   UNL     1      62.348  10.530   3.912  1.00  0.00    -0.296 N 
HETATM    6  C   UNL     1      61.774  10.140   1.920  1.00  0.00     0.119 A 
HETATM    7  C   UNL     1      62.392  11.345   5.103  1.00  0.00     0.178 C 
ENDROOT
BRANCH   3   8
HETATM    8  C   UNL     1      63.419   8.347   4.690  1.00  0.00    -0.007 A 
HETATM    9  C   UNL     1      62.688   7.410   5.433  1.00  0.00     0.014 A 
HETATM   10  C   UNL     1      63.313   6.545   6.338  1.00  0.00     0.001 A 
HETATM   11  C   UNL     1      64.685   6.627   6.544  1.00  0.00     0.000 A 
HETATM   12  C   UNL     1      65.432   7.556   5.829  1.00  0.00     0.001 A 
HETATM   13  C   UNL     1      64.808   8.389   4.891  1.00  0.00     0.014 A 
ENDBRANCH   3   8
BRANCH   4  14
HETATM   14  C   UNL     1      62.422   7.682   1.590  1.00  0.00     0.206 C 
BRANCH  14  15
HETATM   15  O   UNL     1      61.677   6.615   2.160  1.00  0.00    -0.396 OA
HETATM   16  H   UNL     1      62.074   5.769   1.901  1.00  0.00     0.209 HD
ENDBRANCH  14  15
ENDBRANCH   4  14
TORSDOF 3
ENDMDL
MODEL 6
REMARK VINA RESULT:      -4.4      1.483      2.139
REMARK  3 active torsions:
REMARK  status: ('A' for Active; 'I' for Inactive)
REMARK    1  A    between atoms: C_3  and  C_7 
REMARK    2  A    between atoms: C_4  and  C_8 
REMARK    3  A    between atoms: C_8  and  O_10 
ROOT
HETATM    1  N   UNL     1      61.584   7.864   3.067  1.00  0.00    -0.309 N 
ATOM      2  HN  UNL     1      60.939   7.436   2.402  1.00  0.00     0.186 HD
HETATM    3  C   UNL     1      63.291   8.136   4.569  1.00  0.00     0.070 A 
HETATM    4  C   UNL     1      62.600   9.350   4.465  1.00  0.00     0.011 A 
HETATM    5  N   UNL     1      62.653   7.300   3.666  1.00  0.00    -0.296 N 
HETATM    6  C   UNL     1      61.566   9.103   3.539  1.00  0.00     0.119 A 
HETATM    7  C   UNL     1      62.976   5.959   3.240  1.00  0.00     0.178 C 
ENDROOT
BRANCH   3   8
HETATM    8  C   UNL     1      64.455   7.780   5.409  1.00  0.00    -0.007 A 
HETATM    9  C   UNL     1      64.298   6.956   6.533  1.00  0.00     0.014 A 
HETATM   10  C   UNL     1      65.391   6.568   7.315  1.00  0.00     0.001 A 
HETATM   11  C   UNL     1      66.665   7.030   7.007  1.00  0.00     0.000 A 
HETATM   12  C   UNL     1      66.847   7.858   5.906  1.00  0.00     0.001 A 
HETATM   13  C   UNL     1      65.756   8.208   5.099  1.00  0.00     0.014 A 
ENDBRANCH   3   8
BRANCH   4  14
HETATM   14  C   UNL     1      62.822  10.662   5.140  1.00  0.00     0.206 C 
BRANCH  14  15
HETATM   15  O   UNL     1      62.070  11.713   4.549  1.00  0.00    -0.396 OA
HETATM   16  H   UNL     1      62.183  12.524   5.068  1.00  0.00     0.209 HD
ENDBRANCH  14  15
ENDBRANCH   4  14
TORSDOF 3
ENDMDL
MODEL 7
REMARK VINA RESULT:      -4.4      2.981      4.991
REMARK  3 active torsions:
REMARK  status: ('A' for Active; 'I' for Inactive)
REMARK    1  A    between atoms: C_3  and  C_7 
REMARK    2  A    between atoms: C_4  and  C_8 
REMARK    3  A    between atoms: C_8  and  O_10 
ROOT
HETATM    1  N   UNL     1      59.162   5.815   5.224  1.00  0.00    -0.309 N 
ATOM      2  HN  UNL     1      58.316   5.270   5.384  1.00  0.00     0.186 HD
HETATM    3  C   UNL     1      60.643   7.318   4.332  1.00  0.00     0.070 A 
HETATM    4  C   UNL     1      61.297   6.604   5.343  1.00  0.00     0.011 A 
HETATM    5  N   UNL     1      59.348   6.821   4.345  1.00  0.00    -0.296 N 
HETATM    6  C   UNL     1      60.335   5.699   5.834  1.00  0.00     0.119 A 
HETATM    7  C   UNL     1      58.176   7.238   3.613  1.00  0.00     0.178 C 
ENDROOT
BRANCH   3   8
HETATM    8  C   UNL     1      61.155   8.382   3.442  1.00  0.00    -0.007 A 
HETATM    9  C   UNL     1      61.275   8.162   2.062  1.00  0.00     0.014 A 
HETATM   10  C   UNL     1      61.713   9.169   1.196  1.00  0.00     0.001 A 
HETATM   11  C   UNL     1      62.075  10.412   1.700  1.00  0.00     0.000 A 
HETATM   12  C   UNL     1      61.976  10.654   3.065  1.00  0.00     0.001 A 
HETATM   13  C   UNL     1      61.495   9.657   3.924  1.00  0.00     0.014 A 
ENDBRANCH   3   8
BRANCH   4  14
HETATM   14  C   UNL     1      62.695   6.699   5.859  1.00  0.00     0.206 C 
BRANCH  14  15
HETATM   15  O   UNL     1      62.824   7.645   6.911  1.00  0.00    -0.396 OA
HETATM   16  H   UNL     1      63.410   8.364   6.630  1.00  0.00     0.209 HD
ENDBRANCH  14  15
ENDBRANCH   4  14
TORSDOF 3
ENDMDL
MODEL 8
REMARK VINA RESULT:      -4.3      2.038      2.116
REMARK  3 active torsions:
REMARK  status: ('A' for Active; 'I' for Inactive)
REMARK    1  A    between atoms: C_3  and  C_7 
REMARK    2  A    between atoms: C_4  and  C_8 
REMARK    3  A    between atoms: C_8  and  O_10 
ROOT
HETATM    1  N   UNL     1      61.438  10.758   2.244  1.00  0.00    -0.309 N 
ATOM      2  HN  UNL     1      60.971  11.358   1.565  1.00  0.00     0.186 HD
HETATM    3  C   UNL     1      62.297   8.901   3.274  1.00  0.00     0.070 A 
HETATM    4  C   UNL     1      62.490  10.001   4.119  1.00  0.00     0.011 A 
HETATM    5  N   UNL     1      61.698   9.438   2.144  1.00  0.00    -0.296 N 
HETATM    6  C   UNL     1      61.932  11.095   3.428  1.00  0.00     0.119 A 
HETATM    7  C   UNL     1      61.359   8.825   0.882  1.00  0.00     0.178 C 
ENDROOT
BRANCH   3   8
HETATM    8  C   UNL     1      62.652   7.480   3.476  1.00  0.00    -0.007 A 
HETATM    9  C   UNL     1      63.903   6.993   3.069  1.00  0.00     0.014 A 
HETATM   10  C   UNL     1      64.279   5.664   3.290  1.00  0.00     0.001 A 
HETATM   11  C   UNL     1      63.391   4.782   3.895  1.00  0.00     0.000 A 
HETATM   12  C   UNL     1      62.141   5.235   4.298  1.00  0.00     0.001 A 
HETATM   13  C   UNL     1      61.785   6.578   4.114  1.00  0.00     0.014 A 
ENDBRANCH   3   8
BRANCH   4  14
HETATM   14  C   UNL     1      63.127  10.099   5.465  1.00  0.00     0.206 C 
BRANCH  14  15
HETATM   15  O   UNL     1      63.235  11.441   5.920  1.00  0.00    -0.396 OA
HETATM   16  H   UNL     1      62.766  11.536   6.763  1.00  0.00     0.209 HD
ENDBRANCH  14  15
ENDBRANCH   4  14
TORSDOF 3
ENDMDL
MODEL 9
REMARK VINA RESULT:      -4.2      2.376      3.174
REMARK  3 active torsions:
REMARK  status: ('A' for Active; 'I' for Inactive)
REMARK    1  A    between atoms: C_3  and  C_7 
REMARK    2  A    between atoms: C_4  and  C_8 
REMARK    3  A    between atoms: C_8  and  O_10 
ROOT
HETATM    1  N   UNL     1      62.051  11.750   3.348  1.00  0.00    -0.309 N 
ATOM      2  HN  UNL     1      62.064  12.740   3.590  1.00  0.00     0.186 HD
HETATM    3  C   UNL     1      62.333   9.479   3.467  1.00  0.00     0.070 A 
HETATM    4  C   UNL     1      61.813   9.792   2.204  1.00  0.00     0.011 A 
HETATM    5  N   UNL     1      62.409  10.702   4.118  1.00  0.00    -0.296 N 
HETATM    6  C   UNL     1      61.678  11.195   2.201  1.00  0.00     0.119 A 
HETATM    7  C   UNL     1      62.758  11.017   5.483  1.00  0.00     0.178 C 
ENDROOT
BRANCH   3   8
HETATM    8  C   UNL     1      62.707   8.168   4.037  1.00  0.00    -0.007 A 
HETATM    9  C   UNL     1      64.055   7.819   4.200  1.00  0.00     0.014 A 
HETATM   10  C   UNL     1      64.432   6.603   4.780  1.00  0.00     0.001 A 
HETATM   11  C   UNL     1      63.462   5.691   5.178  1.00  0.00     0.000 A 
HETATM   12  C   UNL     1      62.118   6.007   5.017  1.00  0.00     0.001 A 
HETATM   13  C   UNL     1      61.744   7.245   4.477  1.00  0.00     0.014 A 
ENDBRANCH   3   8
BRANCH   4  14
HETATM   14  C   UNL     1      61.454   8.915   1.051  1.00  0.00     0.206 C 
BRANCH  14  15
HETATM   15  O   UNL     1      62.562   8.652   0.202  1.00  0.00    -0.396 OA
HETATM   16  H   UNL     1      62.617   9.339  -0.480  1.00  0.00     0.209 HD
ENDBRANCH  14  15
ENDBRANCH   4  14
TORSDOF 3
ENDMDL
