MODEL 1
REMARK VINA RESULT:      -5.4      0.000      0.000
REMARK  1 active torsions:
REMARK  status: ('A' for Active; 'I' for Inactive)
REMARK    1  A    between atoms: C_3  and  C_4 
ROOT
HETATM    1  N   UNL     1      63.280   6.581   2.203  1.00  0.00    -0.359 N 
ATOM      2  HN  UNL     1      63.817   5.785   2.549  1.00  0.00     0.166 HD
HETATM    3  C   UNL     1      62.886   9.971   4.597  1.00  0.00     0.041 A 
HETATM    4  C   UNL     1      63.141   7.689   2.950  1.00  0.00     0.042 A 
HETATM    5  C   UNL     1      62.281   9.944   3.336  1.00  0.00     0.032 A 
HETATM    6  C   UNL     1      62.408   8.810   2.512  1.00  0.00    -0.008 A 
HETATM    7  C   UNL     1      63.618   8.865   5.029  1.00  0.00     0.021 A 
HETATM    8  C   UNL     1      63.736   7.741   4.203  1.00  0.00     0.031 A 
HETATM    9  C   UNL     1      62.694   6.539   0.982  1.00  0.00     0.005 A 
HETATM   10  C   UNL     1      61.816   8.746   1.244  1.00  0.00     0.015 A 
HETATM   11  C   UNL     1      61.960   7.600   0.469  1.00  0.00     0.025 A 
HETATM   12  C   UNL     1      62.869   5.272   0.200  1.00  0.00     0.068 C 
ENDROOT
BRANCH   3  13
HETATM   13  C   UNL     1      62.721  11.183   5.436  1.00  0.00     0.209 C 
HETATM   14  O   UNL     1      63.188  11.351   6.546  1.00  0.00    -0.644 OA
HETATM   15  O   UNL     1      61.978  12.132   4.837  1.00  0.00    -0.644 OA
ENDBRANCH   3  13
TORSDOF 1
ENDMDL
MODEL 2
REMARK VINA RESULT:      -5.2      2.436      3.679
REMARK  1 active torsions:
REMARK  status: ('A' for Active; 'I' for Inactive)
REMARK    1  A    between atoms: C_3  and  C_4 
ROOT
HETATM    1  N   UNL     1      65.473   5.780   3.227  1.00  0.00    -0.359 N 
ATOM      2  HN  UNL     1      65.054   5.224   2.482  1.00  0.00     0.166 HD
HETATM    3  C   UNL     1      63.484   9.178   4.599  1.00  0.00     0.041 A 
HETATM    4  C   UNL     1      64.852   6.876   3.693  1.00  0.00     0.042 A 
HETATM    5  C   UNL     1      64.711   8.820   5.168  1.00  0.00     0.032 A 
HETATM    6  C   UNL     1      65.394   7.674   4.721  1.00  0.00    -0.008 A 
HETATM    7  C   UNL     1      62.943   8.385   3.586  1.00  0.00     0.021 A 
HETATM    8  C   UNL     1      63.631   7.248   3.148  1.00  0.00     0.031 A 
HETATM    9  C   UNL     1      66.665   5.426   3.766  1.00  0.00     0.005 A 
HETATM   10  C   UNL     1      66.624   7.286   5.267  1.00  0.00     0.015 A 
HETATM   11  C   UNL     1      67.268   6.150   4.786  1.00  0.00     0.025 A 
HETATM   12  C   UNL     1      67.319   4.203   3.196  1.00  0.00     0.068 C 
ENDROOT
BRANCH   3  13
HETATM   13  C   UNL     1      62.801  10.398   5.095  1.00  0.00     0.209 C 
HETATM   14  O   UNL     1      63.067  10.997   6.119  1.00  0.00    -0.644 OA
HETATM   15  O   UNL     1      61.817  10.811   4.276  1.00  0.00    -0.644 OA
ENDBRANCH   3  13
TORSDOF 1
ENDMDL
MODEL 3
REMARK VINA RESULT:      -5.2      2.491      3.588
REMARK  1 active torsions:
REMARK  status: ('A' for Active; 'I' for Inactive)
REMARK    1  A    between atoms: C_3  and  C_4 
ROOT
HETATM    1  N   UNL     1      62.680   7.575   2.214  1.00  0.00    -0.359 N 
ATOM      2  HN  UNL     1      62.695   6.803   1.548  1.00  0.00     0.166 HD
HETATM    3  C   UNL     1      65.495   7.674   5.289  1.00  0.00     0.041 A 
HETATM    4  C   UNL     1      63.578   7.636   3.211  1.00  0.00     0.042 A 
HETATM    5  C   UNL     1      64.547   8.698   5.188  1.00  0.00     0.032 A 
HETATM    6  C   UNL     1      63.592   8.684   4.154  1.00  0.00    -0.008 A 
HETATM    7  C   UNL     1      65.486   6.640   4.352  1.00  0.00     0.021 A 
HETATM    8  C   UNL     1      64.531   6.634   3.328  1.00  0.00     0.031 A 
HETATM    9  C   UNL     1      61.753   8.558   2.109  1.00  0.00     0.005 A 
HETATM   10  C   UNL     1      62.629   9.692   4.022  1.00  0.00     0.015 A 
HETATM   11  C   UNL     1      61.699   9.630   2.989  1.00  0.00     0.025 A 
HETATM   12  C   UNL     1      60.767   8.429   0.988  1.00  0.00     0.068 C 
ENDROOT
BRANCH   3  13
HETATM   13  C   UNL     1      66.478   7.724   6.398  1.00  0.00     0.209 C 
HETATM   14  O   UNL     1      67.085   6.775   6.856  1.00  0.00    -0.644 OA
HETATM   15  O   UNL     1      66.656   8.968   6.878  1.00  0.00    -0.644 OA
ENDBRANCH   3  13
TORSDOF 1
ENDMDL
MODEL 4
REMARK VINA RESULT:      -5.0      2.587      4.388
REMARK  1 active torsions:
REMARK  status: ('A' for Active; 'I' for Inactive)
REMARK    1  A    between atoms: C_3  and  C_4 
ROOT
HETATM    1  N   UNL     1      64.448   7.881   6.401  1.00  0.00    -0.359 N 
ATOM      2  HN  UNL     1      64.397   8.403   7.275  1.00  0.00     0.166 HD
HETATM    3  C   UNL     1      62.470   9.341   3.033  1.00  0.00     0.041 A 
HETATM    4  C   UNL     1      63.826   8.330   5.298  1.00  0.00     0.042 A 
HETATM    5  C   UNL     1      63.190   8.145   2.945  1.00  0.00     0.032 A 
HETATM    6  C   UNL     1      63.868   7.639   4.070  1.00  0.00    -0.008 A 
HETATM    7  C   UNL     1      62.433  10.029   4.246  1.00  0.00     0.021 A 
HETATM    8  C   UNL     1      63.109   9.517   5.360  1.00  0.00     0.031 A 
HETATM    9  C   UNL     1      65.144   6.720   6.330  1.00  0.00     0.005 A 
HETATM   10  C   UNL     1      64.598   6.445   4.019  1.00  0.00     0.015 A 
HETATM   11  C   UNL     1      65.244   5.979   5.160  1.00  0.00     0.025 A 
HETATM   12  C   UNL     1      65.804   6.259   7.595  1.00  0.00     0.068 C 
ENDROOT
BRANCH   3  13
HETATM   13  C   UNL     1      61.765   9.834   1.825  1.00  0.00     0.209 C 
HETATM   14  O   UNL     1      61.214   9.143   0.990  1.00  0.00    -0.644 OA
HETATM   15  O   UNL     1      61.781  11.175   1.726  1.00  0.00    -0.644 OA
ENDBRANCH   3  13
TORSDOF 1
ENDMDL
MODEL 5
REMARK VINA RESULT:      -4.9      2.563      3.055
REMARK  1 active torsions:
REMARK  status: ('A' for Active; 'I' for Inactive)
REMARK    1  A    between atoms: C_3  and  C_4 
ROOT
HETATM    1  N   UNL     1      60.349   7.274   2.588  1.00  0.00    -0.359 N 
ATOM      2  HN  UNL     1      59.603   6.623   2.833  1.00  0.00     0.166 HD
HETATM    3  C   UNL     1      63.556   7.780   5.205  1.00  0.00     0.041 A 
HETATM    4  C   UNL     1      61.397   7.453   3.409  1.00  0.00     0.042 A 
HETATM    5  C   UNL     1      63.521   8.504   4.009  1.00  0.00     0.032 A 
HETATM    6  C   UNL     1      62.449   8.343   3.111  1.00  0.00    -0.008 A 
HETATM    7  C   UNL     1      62.518   6.894   5.497  1.00  0.00     0.021 A 
HETATM    8  C   UNL     1      61.456   6.742   4.599  1.00  0.00     0.031 A 
HETATM    9  C   UNL     1      60.301   7.975   1.429  1.00  0.00     0.005 A 
HETATM   10  C   UNL     1      62.381   9.051   1.905  1.00  0.00     0.015 A 
HETATM   11  C   UNL     1      61.296   8.866   1.053  1.00  0.00     0.025 A 
HETATM   12  C   UNL     1      59.100   7.747   0.560  1.00  0.00     0.068 C 
ENDROOT
BRANCH   3  13
HETATM   13  C   UNL     1      64.700   7.986   6.126  1.00  0.00     0.209 C 
HETATM   14  O   UNL     1      65.618   8.766   5.958  1.00  0.00    -0.644 OA
HETATM   15  O   UNL     1      64.635   7.204   7.217  1.00  0.00    -0.644 OA
ENDBRANCH   3  13
TORSDOF 1
ENDMDL
MODEL 6
REMARK VINA RESULT:      -4.8      3.329      4.706
REMARK  1 active torsions:
REMARK  status: ('A' for Active; 'I' for Inactive)
REMARK    1  A    between atoms: C_3  and  C_4 
ROOT
HETATM    1  N   UNL     1      65.650   5.508   6.500  1.00  0.00    -0.359 N 
ATOM      2  HN  UNL     1      65.178   4.728   6.956  1.00  0.00     0.166 HD
HETATM    3  C   UNL     1      63.426   8.832   5.322  1.00  0.00     0.041 A 
HETATM    4  C   UNL     1      64.960   6.595   6.115  1.00  0.00     0.042 A 
HETATM    5  C   UNL     1      64.804   8.806   5.086  1.00  0.00     0.032 A 
HETATM    6  C   UNL     1      65.572   7.695   5.480  1.00  0.00    -0.008 A 
HETATM    7  C   UNL     1      62.820   7.747   5.956  1.00  0.00     0.021 A 
HETATM    8  C   UNL     1      63.592   6.645   6.343  1.00  0.00     0.031 A 
HETATM    9  C   UNL     1      66.985   5.468   6.271  1.00  0.00     0.005 A 
HETATM   10  C   UNL     1      66.953   7.633   5.260  1.00  0.00     0.015 A 
HETATM   11  C   UNL     1      67.670   6.509   5.659  1.00  0.00     0.025 A 
HETATM   12  C   UNL     1      67.700   4.224   6.707  1.00  0.00     0.068 C 
ENDROOT
BRANCH   3  13
HETATM   13  C   UNL     1      62.654  10.020   4.883  1.00  0.00     0.209 C 
HETATM   14  O   UNL     1      62.774  11.149   5.318  1.00  0.00    -0.644 OA
HETATM   15  O   UNL     1      61.767   9.733   3.913  1.00  0.00    -0.644 OA
ENDBRANCH   3  13
TORSDOF 1
ENDMDL
MODEL 7
REMARK VINA RESULT:      -4.7      5.237      7.026
REMARK  1 active torsions:
REMARK  status: ('A' for Active; 'I' for Inactive)
REMARK    1  A    between atoms: C_3  and  C_4 
ROOT
HETATM    1  N   UNL     1      66.568   3.579   7.853  1.00  0.00    -0.359 N 
ATOM      2  HN  UNL     1      66.178   2.680   7.569  1.00  0.00     0.166 HD
HETATM    3  C   UNL     1      65.216   7.064   6.005  1.00  0.00     0.041 A 
HETATM    4  C   UNL     1      66.148   4.718   7.279  1.00  0.00     0.042 A 
HETATM    5  C   UNL     1      66.195   7.146   7.002  1.00  0.00     0.032 A 
HETATM    6  C   UNL     1      66.660   5.981   7.639  1.00  0.00    -0.008 A 
HETATM    7  C   UNL     1      64.703   5.815   5.653  1.00  0.00     0.021 A 
HETATM    8  C   UNL     1      65.174   4.661   6.292  1.00  0.00     0.031 A 
HETATM    9  C   UNL     1      67.520   3.645   8.815  1.00  0.00     0.005 A 
HETATM   10  C   UNL     1      67.638   6.026   8.640  1.00  0.00     0.015 A 
HETATM   11  C   UNL     1      68.074   4.846   9.236  1.00  0.00     0.025 A 
HETATM   12  C   UNL     1      67.963   2.341   9.407  1.00  0.00     0.068 C 
ENDROOT
BRANCH   3  13
HETATM   13  C   UNL     1      64.760   8.315   5.354  1.00  0.00     0.209 C 
HETATM   14  O   UNL     1      64.909   9.441   5.790  1.00  0.00    -0.644 OA
HETATM   15  O   UNL     1      64.139   8.094   4.182  1.00  0.00    -0.644 OA
ENDBRANCH   3  13
TORSDOF 1
ENDMDL
MODEL 8
REMARK VINA RESULT:      -4.6      2.259      3.345
REMARK  1 active torsions:
REMARK  status: ('A' for Active; 'I' for Inactive)
REMARK    1  A    between atoms: C_3  and  C_4 
ROOT
HETATM    1  N   UNL     1      62.287   5.626   4.387  1.00  0.00    -0.359 N 
ATOM      2  HN  UNL     1      61.459   5.043   4.267  1.00  0.00     0.166 HD
HETATM    3  C   UNL     1      62.033   9.718   3.628  1.00  0.00     0.041 A 
HETATM    4  C   UNL     1      62.234   6.948   4.155  1.00  0.00     0.042 A 
HETATM    5  C   UNL     1      63.251   9.167   4.042  1.00  0.00     0.032 A 
HETATM    6  C   UNL     1      63.354   7.789   4.307  1.00  0.00    -0.008 A 
HETATM    7  C   UNL     1      60.921   8.887   3.484  1.00  0.00     0.021 A 
HETATM    8  C   UNL     1      61.035   7.517   3.749  1.00  0.00     0.031 A 
HETATM    9  C   UNL     1      63.463   5.080   4.783  1.00  0.00     0.005 A 
HETATM   10  C   UNL     1      64.557   7.204   4.723  1.00  0.00     0.015 A 
HETATM   11  C   UNL     1      64.614   5.835   4.964  1.00  0.00     0.025 A 
HETATM   12  C   UNL     1      63.467   3.598   5.010  1.00  0.00     0.068 C 
ENDROOT
BRANCH   3  13
HETATM   13  C   UNL     1      61.970  11.174   3.352  1.00  0.00     0.209 C 
HETATM   14  O   UNL     1      61.945  11.690   2.251  1.00  0.00    -0.644 OA
HETATM   15  O   UNL     1      61.938  11.914   4.474  1.00  0.00    -0.644 OA
ENDBRANCH   3  13
TORSDOF 1
ENDMDL
MODEL 9
REMARK VINA RESULT:      -4.5      3.178      3.963
REMARK  1 active torsions:
REMARK  status: ('A' for Active; 'I' for Inactive)
REMARK    1  A    between atoms: C_3  and  C_4 
ROOT
HETATM    1  N   UNL     1      59.830   8.158   3.180  1.00  0.00    -0.359 N 
ATOM      2  HN  UNL     1      59.621   8.906   2.519  1.00  0.00     0.166 HD
HETATM    3  C   UNL     1      63.551   8.076   5.060  1.00  0.00     0.041 A 
HETATM    4  C   UNL     1      61.018   8.109   3.805  1.00  0.00     0.042 A 
HETATM    5  C   UNL     1      62.612   7.079   5.345  1.00  0.00     0.032 A 
HETATM    6  C   UNL     1      61.349   7.093   4.724  1.00  0.00    -0.008 A 
HETATM    7  C   UNL     1      63.222   9.085   4.155  1.00  0.00     0.021 A 
HETATM    8  C   UNL     1      61.964   9.090   3.541  1.00  0.00     0.031 A 
HETATM    9  C   UNL     1      58.914   7.194   3.444  1.00  0.00     0.005 A 
HETATM   10  C   UNL     1      60.385   6.112   4.986  1.00  0.00     0.015 A 
HETATM   11  C   UNL     1      59.153   6.161   4.340  1.00  0.00     0.025 A 
HETATM   12  C   UNL     1      57.613   7.290   2.705  1.00  0.00     0.068 C 
ENDROOT
BRANCH   3  13
HETATM   13  C   UNL     1      64.872   8.019   5.731  1.00  0.00     0.209 C 
HETATM   14  O   UNL     1      65.121   7.430   6.766  1.00  0.00    -0.644 OA
HETATM   15  O   UNL     1      65.821   8.702   5.068  1.00  0.00    -0.644 OA
ENDBRANCH   3  13
TORSDOF 1
ENDMDL
