MODEL 1
REMARK VINA RESULT:      -5.6      0.000      0.000
REMARK  2 active torsions:
REMARK  status: ('A' for Active; 'I' for Inactive)
REMARK    1  A    between atoms: C_9  and  C_13 
REMARK    2  A    between atoms: O_12  and  C_13 
ROOT
HETATM    1  N   UNL     1      62.971   7.159   2.287  1.00  0.00    -0.359 N 
ATOM      2  HN  UNL     1      63.464   6.293   2.503  1.00  0.00     0.166 HD
HETATM    3  C   UNL     1      62.982   8.189   3.153  1.00  0.00     0.042 A 
HETATM    4  C   UNL     1      62.312   9.401   2.895  1.00  0.00    -0.009 A 
HETATM    5  C   UNL     1      62.346  10.445   3.838  1.00  0.00     0.023 A 
HETATM    6  C   UNL     1      63.670   8.065   4.350  1.00  0.00     0.031 A 
HETATM    7  C   UNL     1      62.292   7.295   1.121  1.00  0.00     0.005 A 
HETATM    8  C   UNL     1      61.623   9.520   1.681  1.00  0.00     0.015 A 
HETATM    9  C   UNL     1      63.042  10.301   5.047  1.00  0.00    -0.034 A 
HETATM   10  C   UNL     1      61.612   8.455   0.784  1.00  0.00     0.025 A 
HETATM   11  C   UNL     1      63.708   9.099   5.294  1.00  0.00     0.011 A 
HETATM   12  C   UNL     1      62.304   6.110   0.203  1.00  0.00     0.068 C 
ENDROOT
BRANCH   9  13
HETATM   13  C   UNL     1      63.048  11.412   6.061  1.00  0.00     0.202 C 
BRANCH  13  14
HETATM   14  O   UNL     1      64.375  11.684   6.489  1.00  0.00    -0.396 OA
HETATM   15  H   UNL     1      64.363  12.398   7.146  1.00  0.00     0.209 HD
ENDBRANCH  13  14
ENDBRANCH   9  13
TORSDOF 2
ENDMDL
MODEL 2
REMARK VINA RESULT:      -5.5      0.962      2.177
REMARK  2 active torsions:
REMARK  status: ('A' for Active; 'I' for Inactive)
REMARK    1  A    between atoms: C_9  and  C_13 
REMARK    2  A    between atoms: O_12  and  C_13 
ROOT
HETATM    1  N   UNL     1      62.621   7.698   1.790  1.00  0.00    -0.359 N 
ATOM      2  HN  UNL     1      61.991   7.911   1.018  1.00  0.00     0.166 HD
HETATM    3  C   UNL     1      62.740   8.541   2.831  1.00  0.00     0.042 A 
HETATM    4  C   UNL     1      63.601   8.287   3.917  1.00  0.00    -0.009 A 
HETATM    5  C   UNL     1      63.697   9.207   4.977  1.00  0.00     0.023 A 
HETATM    6  C   UNL     1      61.998   9.712   2.847  1.00  0.00     0.031 A 
HETATM    7  C   UNL     1      63.356   6.558   1.788  1.00  0.00     0.005 A 
HETATM    8  C   UNL     1      64.346   7.100   3.894  1.00  0.00     0.015 A 
HETATM    9  C   UNL     1      62.943  10.389   4.975  1.00  0.00    -0.034 A 
HETATM   10  C   UNL     1      64.222   6.226   2.818  1.00  0.00     0.025 A 
HETATM   11  C   UNL     1      62.088  10.632   3.899  1.00  0.00     0.011 A 
HETATM   12  C   UNL     1      63.192   5.665   0.595  1.00  0.00     0.068 C 
ENDROOT
BRANCH   9  13
HETATM   13  C   UNL     1      63.074  11.380   6.100  1.00  0.00     0.202 C 
BRANCH  13  14
HETATM   14  O   UNL     1      64.433  11.502   6.495  1.00  0.00    -0.396 OA
HETATM   15  H   UNL     1      64.882  12.138   5.916  1.00  0.00     0.209 HD
ENDBRANCH  13  14
ENDBRANCH   9  13
TORSDOF 2
ENDMDL
MODEL 3
REMARK VINA RESULT:      -5.2      2.443      4.126
REMARK  2 active torsions:
REMARK  status: ('A' for Active; 'I' for Inactive)
REMARK    1  A    between atoms: C_9  and  C_13 
REMARK    2  A    between atoms: O_12  and  C_13 
ROOT
HETATM    1  N   UNL     1      64.126   8.093   6.157  1.00  0.00    -0.359 N 
ATOM      2  HN  UNL     1      64.200   8.525   7.078  1.00  0.00     0.166 HD
HETATM    3  C   UNL     1      63.522   8.739   5.144  1.00  0.00     0.042 A 
HETATM    4  C   UNL     1      63.394   8.178   3.858  1.00  0.00    -0.009 A 
HETATM    5  C   UNL     1      62.745   8.891   2.833  1.00  0.00     0.023 A 
HETATM    6  C   UNL     1      62.996  10.003   5.359  1.00  0.00     0.031 A 
HETATM    7  C   UNL     1      64.633   6.856   5.932  1.00  0.00     0.005 A 
HETATM    8  C   UNL     1      63.932   6.901   3.648  1.00  0.00     0.015 A 
HETATM    9  C   UNL     1      62.213  10.167   3.070  1.00  0.00    -0.034 A 
HETATM   10  C   UNL     1      64.558   6.232   4.696  1.00  0.00     0.025 A 
HETATM   11  C   UNL     1      62.348  10.719   4.345  1.00  0.00     0.011 A 
HETATM   12  C   UNL     1      65.281   6.180   7.102  1.00  0.00     0.068 C 
ENDROOT
BRANCH   9  13
HETATM   13  C   UNL     1      61.495  10.909   1.976  1.00  0.00     0.202 C 
BRANCH  13  14
HETATM   14  O   UNL     1      62.051  12.206   1.810  1.00  0.00    -0.396 OA
HETATM   15  H   UNL     1      63.000  12.179   2.010  1.00  0.00     0.209 HD
ENDBRANCH  13  14
ENDBRANCH   9  13
TORSDOF 2
ENDMDL
MODEL 4
REMARK VINA RESULT:      -5.1      1.694      2.891
REMARK  2 active torsions:
REMARK  status: ('A' for Active; 'I' for Inactive)
REMARK    1  A    between atoms: C_9  and  C_13 
REMARK    2  A    between atoms: O_12  and  C_13 
ROOT
HETATM    1  N   UNL     1      63.702   6.629   2.540  1.00  0.00    -0.359 N 
ATOM      2  HN  UNL     1      63.028   6.468   1.791  1.00  0.00     0.166 HD
HETATM    3  C   UNL     1      63.571   7.685   3.362  1.00  0.00     0.042 A 
HETATM    4  C   UNL     1      64.479   7.948   4.407  1.00  0.00    -0.009 A 
HETATM    5  C   UNL     1      64.304   9.072   5.235  1.00  0.00     0.023 A 
HETATM    6  C   UNL     1      62.510   8.560   3.186  1.00  0.00     0.031 A 
HETATM    7  C   UNL     1      64.746   5.784   2.724  1.00  0.00     0.005 A 
HETATM    8  C   UNL     1      65.547   7.056   4.581  1.00  0.00     0.015 A 
HETATM    9  C   UNL     1      63.228   9.949   5.039  1.00  0.00    -0.034 A 
HETATM   10  C   UNL     1      65.682   5.963   3.731  1.00  0.00     0.025 A 
HETATM   11  C   UNL     1      62.329   9.681   4.005  1.00  0.00     0.011 A 
HETATM   12  C   UNL     1      64.846   4.635   1.767  1.00  0.00     0.068 C 
ENDROOT
BRANCH   9  13
HETATM   13  C   UNL     1      63.066  11.165   5.911  1.00  0.00     0.202 C 
BRANCH  13  14
HETATM   14  O   UNL     1      64.322  11.566   6.440  1.00  0.00    -0.396 OA
HETATM   15  H   UNL     1      64.932  11.760   5.711  1.00  0.00     0.209 HD
ENDBRANCH  13  14
ENDBRANCH   9  13
TORSDOF 2
ENDMDL
MODEL 5
REMARK VINA RESULT:      -4.9      1.822      2.874
REMARK  2 active torsions:
REMARK  status: ('A' for Active; 'I' for Inactive)
REMARK    1  A    between atoms: C_9  and  C_13 
REMARK    2  A    between atoms: O_12  and  C_13 
ROOT
HETATM    1  N   UNL     1      62.749   7.729   2.252  1.00  0.00    -0.359 N 
ATOM      2  HN  UNL     1      62.785   6.988   1.552  1.00  0.00     0.166 HD
HETATM    3  C   UNL     1      63.615   7.742   3.281  1.00  0.00     0.042 A 
HETATM    4  C   UNL     1      63.599   8.744   4.271  1.00  0.00    -0.009 A 
HETATM    5  C   UNL     1      64.521   8.707   5.334  1.00  0.00     0.023 A 
HETATM    6  C   UNL     1      64.562   6.735   3.387  1.00  0.00     0.031 A 
HETATM    7  C   UNL     1      61.828   8.720   2.162  1.00  0.00     0.005 A 
HETATM    8  C   UNL     1      62.642   9.761   4.154  1.00  0.00     0.015 A 
HETATM    9  C   UNL     1      65.468   7.678   5.429  1.00  0.00    -0.034 A 
HETATM   10  C   UNL     1      61.746   9.748   3.088  1.00  0.00     0.025 A 
HETATM   11  C   UNL     1      65.482   6.691   4.442  1.00  0.00     0.011 A 
HETATM   12  C   UNL     1      60.882   8.644   1.002  1.00  0.00     0.068 C 
ENDROOT
BRANCH   9  13
HETATM   13  C   UNL     1      66.430   7.631   6.585  1.00  0.00     0.202 C 
BRANCH  13  14
HETATM   14  O   UNL     1      66.829   8.945   6.951  1.00  0.00    -0.396 OA
HETATM   15  H   UNL     1      67.137   9.420   6.163  1.00  0.00     0.209 HD
ENDBRANCH  13  14
ENDBRANCH   9  13
TORSDOF 2
ENDMDL
MODEL 6
REMARK VINA RESULT:      -4.6      2.784      4.365
REMARK  2 active torsions:
REMARK  status: ('A' for Active; 'I' for Inactive)
REMARK    1  A    between atoms: C_9  and  C_13 
REMARK    2  A    between atoms: O_12  and  C_13 
ROOT
HETATM    1  N   UNL     1      65.492   5.952   3.956  1.00  0.00    -0.359 N 
ATOM      2  HN  UNL     1      65.290   5.264   3.231  1.00  0.00     0.166 HD
HETATM    3  C   UNL     1      64.738   7.059   4.079  1.00  0.00     0.042 A 
HETATM    4  C   UNL     1      64.984   8.036   5.064  1.00  0.00    -0.009 A 
HETATM    5  C   UNL     1      64.171   9.182   5.145  1.00  0.00     0.023 A 
HETATM    6  C   UNL     1      63.679   7.263   3.208  1.00  0.00     0.031 A 
HETATM    7  C   UNL     1      66.525   5.768   4.814  1.00  0.00     0.005 A 
HETATM    8  C   UNL     1      66.054   7.821   5.942  1.00  0.00     0.015 A 
HETATM    9  C   UNL     1      63.108   9.376   4.252  1.00  0.00    -0.034 A 
HETATM   10  C   UNL     1      66.833   6.675   5.816  1.00  0.00     0.025 A 
HETATM   11  C   UNL     1      62.866   8.401   3.282  1.00  0.00     0.011 A 
HETATM   12  C   UNL     1      67.338   4.523   4.618  1.00  0.00     0.068 C 
ENDROOT
BRANCH   9  13
HETATM   13  C   UNL     1      62.263  10.618   4.329  1.00  0.00     0.202 C 
BRANCH  13  14
HETATM   14  O   UNL     1      61.063  10.447   3.588  1.00  0.00    -0.396 OA
HETATM   15  H   UNL     1      60.746   9.536   3.692  1.00  0.00     0.209 HD
ENDBRANCH  13  14
ENDBRANCH   9  13
TORSDOF 2
ENDMDL
MODEL 7
REMARK VINA RESULT:      -4.4      3.316      5.243
REMARK  2 active torsions:
REMARK  status: ('A' for Active; 'I' for Inactive)
REMARK    1  A    between atoms: C_9  and  C_13 
REMARK    2  A    between atoms: O_12  and  C_13 
ROOT
HETATM    1  N   UNL     1      65.025   6.060   7.197  1.00  0.00    -0.359 N 
ATOM      2  HN  UNL     1      64.487   5.354   7.699  1.00  0.00     0.166 HD
HETATM    3  C   UNL     1      64.415   6.925   6.368  1.00  0.00     0.042 A 
HETATM    4  C   UNL     1      65.120   7.913   5.652  1.00  0.00    -0.009 A 
HETATM    5  C   UNL     1      64.436   8.789   4.789  1.00  0.00     0.023 A 
HETATM    6  C   UNL     1      63.041   6.852   6.197  1.00  0.00     0.031 A 
HETATM    7  C   UNL     1      66.370   6.143   7.352  1.00  0.00     0.005 A 
HETATM    8  C   UNL     1      66.508   7.983   5.834  1.00  0.00     0.015 A 
HETATM    9  C   UNL     1      63.047   8.697   4.623  1.00  0.00    -0.034 A 
HETATM   10  C   UNL     1      67.140   7.089   6.693  1.00  0.00     0.025 A 
HETATM   11  C   UNL     1      62.353   7.719   5.339  1.00  0.00     0.011 A 
HETATM   12  C   UNL     1      66.994   5.143   8.278  1.00  0.00     0.068 C 
ENDROOT
BRANCH   9  13
HETATM   13  C   UNL     1      62.329   9.619   3.676  1.00  0.00     0.202 C 
BRANCH  13  14
HETATM   14  O   UNL     1      61.941  10.811   4.344  1.00  0.00    -0.396 OA
HETATM   15  H   UNL     1      61.175  10.629   4.912  1.00  0.00     0.209 HD
ENDBRANCH  13  14
ENDBRANCH   9  13
TORSDOF 2
ENDMDL
MODEL 8
REMARK VINA RESULT:      -4.2      2.935      3.923
REMARK  2 active torsions:
REMARK  status: ('A' for Active; 'I' for Inactive)
REMARK    1  A    between atoms: C_9  and  C_13 
REMARK    2  A    between atoms: O_12  and  C_13 
ROOT
HETATM    1  N   UNL     1      66.025   6.429   4.760  1.00  0.00    -0.359 N 
ATOM      2  HN  UNL     1      66.657   6.587   5.545  1.00  0.00     0.166 HD
HETATM    3  C   UNL     1      65.046   7.308   4.481  1.00  0.00     0.042 A 
HETATM    4  C   UNL     1      64.149   7.126   3.410  1.00  0.00    -0.009 A 
HETATM    5  C   UNL     1      63.135   8.071   3.165  1.00  0.00     0.023 A 
HETATM    6  C   UNL     1      64.898   8.437   5.272  1.00  0.00     0.031 A 
HETATM    7  C   UNL     1      66.155   5.328   3.979  1.00  0.00     0.005 A 
HETATM    8  C   UNL     1      64.308   5.984   2.613  1.00  0.00     0.015 A 
HETATM    9  C   UNL     1      62.996   9.204   3.978  1.00  0.00    -0.034 A 
HETATM   10  C   UNL     1      65.322   5.075   2.901  1.00  0.00     0.025 A 
HETATM   11  C   UNL     1      63.891   9.381   5.035  1.00  0.00     0.011 A 
HETATM   12  C   UNL     1      67.255   4.378   4.348  1.00  0.00     0.068 C 
ENDROOT
BRANCH   9  13
HETATM   13  C   UNL     1      61.891  10.193   3.726  1.00  0.00     0.202 C 
BRANCH  13  14
HETATM   14  O   UNL     1      60.635   9.530   3.675  1.00  0.00    -0.396 OA
HETATM   15  H   UNL     1      60.022  10.041   3.123  1.00  0.00     0.209 HD
ENDBRANCH  13  14
ENDBRANCH   9  13
TORSDOF 2
ENDMDL
MODEL 9
REMARK VINA RESULT:      -4.1      2.192      2.627
REMARK  2 active torsions:
REMARK  status: ('A' for Active; 'I' for Inactive)
REMARK    1  A    between atoms: C_9  and  C_13 
REMARK    2  A    between atoms: O_12  and  C_13 
ROOT
HETATM    1  N   UNL     1      60.298   7.284   3.045  1.00  0.00    -0.359 N 
ATOM      2  HN  UNL     1      59.493   6.870   3.513  1.00  0.00     0.166 HD
HETATM    3  C   UNL     1      61.481   7.386   3.678  1.00  0.00     0.042 A 
HETATM    4  C   UNL     1      62.618   7.954   3.070  1.00  0.00    -0.009 A 
HETATM    5  C   UNL     1      63.830   8.046   3.779  1.00  0.00     0.023 A 
HETATM    6  C   UNL     1      61.599   6.925   4.980  1.00  0.00     0.031 A 
HETATM    7  C   UNL     1      60.198   7.742   1.772  1.00  0.00     0.005 A 
HETATM    8  C   UNL     1      62.491   8.414   1.753  1.00  0.00     0.015 A 
HETATM    9  C   UNL     1      63.931   7.580   5.097  1.00  0.00    -0.034 A 
HETATM   10  C   UNL     1      61.268   8.307   1.097  1.00  0.00     0.025 A 
HETATM   11  C   UNL     1      62.801   7.014   5.692  1.00  0.00     0.011 A 
HETATM   12  C   UNL     1      58.853   7.613   1.125  1.00  0.00     0.068 C 
ENDROOT
BRANCH   9  13
HETATM   13  C   UNL     1      65.223   7.710   5.857  1.00  0.00     0.202 C 
BRANCH  13  14
HETATM   14  O   UNL     1      65.563   9.080   6.023  1.00  0.00    -0.396 OA
HETATM   15  H   UNL     1      66.297   9.305   5.430  1.00  0.00     0.209 HD
ENDBRANCH  13  14
ENDBRANCH   9  13
TORSDOF 2
ENDMDL
