MODEL 1
REMARK VINA RESULT:      -5.2      0.000      0.000
REMARK  2 active torsions:
REMARK  status: ('A' for Active; 'I' for Inactive)
REMARK    1  A    between atoms: C_6  and  C_9 
REMARK    2  A    between atoms: O_7  and  C_9 
ROOT
HETATM    1  C   UNL     1      62.998   9.272   4.194  1.00  0.00     0.000 A 
HETATM    2  N   UNL     1      63.200   7.523   2.821  1.00  0.00    -0.365 N 
HETATM    3  C   UNL     1      63.762   7.146   4.009  1.00  0.00     0.089 A 
HETATM    4  C   UNL     1      62.730   8.816   2.904  1.00  0.00     0.043 A 
HETATM    5  C   UNL     1      63.648   8.204   4.880  1.00  0.00     0.031 A 
HETATM    6  C   UNL     1      62.621  10.588   4.559  1.00  0.00    -0.022 A 
HETATM    7  C   UNL     1      61.724  10.894   2.299  1.00  0.00     0.003 A 
HETATM    8  C   UNL     1      62.094   9.599   1.935  1.00  0.00     0.030 A 
HETATM    9  C   UNL     1      61.977  11.379   3.581  1.00  0.00     0.010 A 
HETATM   10  H   UNL     1      63.139   6.952   2.020  1.00  0.00     0.165 HD
ENDROOT
BRANCH   6  11
HETATM   11  C   UNL     1      62.873  11.165   5.929  1.00  0.00     0.203 C 
BRANCH  11  12
HETATM   12  O   UNL     1      64.263  11.382   6.143  1.00  0.00    -0.396 OA
HETATM   13  H   UNL     1      64.732  11.322   5.296  1.00  0.00     0.209 HD
ENDBRANCH  11  12
ENDBRANCH   6  11
TORSDOF 2
ENDMDL
MODEL 2
REMARK VINA RESULT:      -4.9      0.918      2.752
REMARK  2 active torsions:
REMARK  status: ('A' for Active; 'I' for Inactive)
REMARK    1  A    between atoms: C_6  and  C_9 
REMARK    2  A    between atoms: O_7  and  C_9 
ROOT
HETATM    1  C   UNL     1      62.707   9.512   3.539  1.00  0.00     0.000 A 
HETATM    2  N   UNL     1      62.288   8.442   1.624  1.00  0.00    -0.365 N 
HETATM    3  C   UNL     1      61.631   9.638   1.547  1.00  0.00     0.089 A 
HETATM    4  C   UNL     1      62.949   8.336   2.829  1.00  0.00     0.043 A 
HETATM    5  C   UNL     1      61.875  10.325   2.714  1.00  0.00     0.031 A 
HETATM    6  C   UNL     1      63.268   9.673   4.829  1.00  0.00    -0.022 A 
HETATM    7  C   UNL     1      64.284   7.455   4.600  1.00  0.00     0.003 A 
HETATM    8  C   UNL     1      63.733   7.291   3.329  1.00  0.00     0.030 A 
HETATM    9  C   UNL     1      64.061   8.618   5.334  1.00  0.00     0.010 A 
HETATM   10  H   UNL     1      62.291   7.754   0.919  1.00  0.00     0.165 HD
ENDROOT
BRANCH   6  11
HETATM   11  C   UNL     1      63.057  10.908   5.669  1.00  0.00     0.203 C 
BRANCH  11  12
HETATM   12  O   UNL     1      64.286  11.357   6.230  1.00  0.00    -0.396 OA
HETATM   13  H   UNL     1      64.970  10.684   6.087  1.00  0.00     0.209 HD
ENDBRANCH  11  12
ENDBRANCH   6  11
TORSDOF 2
ENDMDL
MODEL 3
REMARK VINA RESULT:      -4.8      1.879      2.548
REMARK  2 active torsions:
REMARK  status: ('A' for Active; 'I' for Inactive)
REMARK    1  A    between atoms: C_6  and  C_9 
REMARK    2  A    between atoms: O_7  and  C_9 
ROOT
HETATM    1  C   UNL     1      62.773   9.037   3.531  1.00  0.00     0.000 A 
HETATM    2  N   UNL     1      63.642   7.098   4.217  1.00  0.00    -0.365 N 
HETATM    3  C   UNL     1      63.723   7.953   5.281  1.00  0.00     0.089 A 
HETATM    4  C   UNL     1      63.071   7.732   3.136  1.00  0.00     0.043 A 
HETATM    5  C   UNL     1      63.188   9.158   4.890  1.00  0.00     0.031 A 
HETATM    6  C   UNL     1      62.176   9.925   2.603  1.00  0.00    -0.022 A 
HETATM    7  C   UNL     1      62.215   8.123   0.942  1.00  0.00     0.003 A 
HETATM    8  C   UNL     1      62.804   7.245   1.852  1.00  0.00     0.030 A 
HETATM    9  C   UNL     1      61.903   9.432   1.307  1.00  0.00     0.010 A 
HETATM   10  H   UNL     1      63.947   6.161   4.223  1.00  0.00     0.165 HD
ENDROOT
BRANCH   6  11
HETATM   11  C   UNL     1      61.821  11.351   2.942  1.00  0.00     0.203 C 
BRANCH  11  12
HETATM   12  O   UNL     1      62.003  12.201   1.815  1.00  0.00    -0.396 OA
HETATM   13  H   UNL     1      62.937  12.194   1.554  1.00  0.00     0.209 HD
ENDBRANCH  11  12
ENDBRANCH   6  11
TORSDOF 2
ENDMDL
MODEL 4
REMARK VINA RESULT:      -4.7      2.301      3.157
REMARK  2 active torsions:
REMARK  status: ('A' for Active; 'I' for Inactive)
REMARK    1  A    between atoms: C_6  and  C_9 
REMARK    2  A    between atoms: O_7  and  C_9 
ROOT
HETATM    1  C   UNL     1      63.058   8.842   3.796  1.00  0.00     0.000 A 
HETATM    2  N   UNL     1      64.135   8.454   5.714  1.00  0.00    -0.365 N 
HETATM    3  C   UNL     1      64.287   7.328   4.952  1.00  0.00     0.089 A 
HETATM    4  C   UNL     1      63.386   9.392   5.036  1.00  0.00     0.043 A 
HETATM    5  C   UNL     1      63.637   7.539   3.759  1.00  0.00     0.031 A 
HETATM    6  C   UNL     1      62.279   9.597   2.886  1.00  0.00    -0.022 A 
HETATM    7  C   UNL     1      62.218  11.411   4.532  1.00  0.00     0.003 A 
HETATM    8  C   UNL     1      62.984  10.671   5.433  1.00  0.00     0.030 A 
HETATM    9  C   UNL     1      61.875  10.890   3.286  1.00  0.00     0.010 A 
HETATM   10  H   UNL     1      64.507   8.578   6.617  1.00  0.00     0.165 HD
ENDROOT
BRANCH   6  11
HETATM   11  C   UNL     1      61.875   9.083   1.526  1.00  0.00     0.203 C 
BRANCH  11  12
HETATM   12  O   UNL     1      60.460   9.103   1.375  1.00  0.00    -0.396 OA
HETATM   13  H   UNL     1      60.080   9.752   1.987  1.00  0.00     0.209 HD
ENDBRANCH  11  12
ENDBRANCH   6  11
TORSDOF 2
ENDMDL
MODEL 5
REMARK VINA RESULT:      -4.7      1.437      2.366
REMARK  2 active torsions:
REMARK  status: ('A' for Active; 'I' for Inactive)
REMARK    1  A    between atoms: C_6  and  C_9 
REMARK    2  A    between atoms: O_7  and  C_9 
ROOT
HETATM    1  C   UNL     1      62.842   8.924   3.308  1.00  0.00     0.000 A 
HETATM    2  N   UNL     1      61.735   9.352   1.417  1.00  0.00    -0.365 N 
HETATM    3  C   UNL     1      62.268   8.101   1.276  1.00  0.00     0.089 A 
HETATM    4  C   UNL     1      62.073   9.880   2.644  1.00  0.00     0.043 A 
HETATM    5  C   UNL     1      62.954   7.805   2.431  1.00  0.00     0.031 A 
HETATM    6  C   UNL     1      63.335   9.208   4.605  1.00  0.00    -0.022 A 
HETATM    7  C   UNL     1      62.239  11.396   4.480  1.00  0.00     0.003 A 
HETATM    8  C   UNL     1      61.752  11.122   3.202  1.00  0.00     0.030 A 
HETATM    9  C   UNL     1      63.010  10.462   5.169  1.00  0.00     0.010 A 
HETATM   10  H   UNL     1      61.188   9.810   0.739  1.00  0.00     0.165 HD
ENDROOT
BRANCH   6  11
HETATM   11  C   UNL     1      64.176   8.237   5.396  1.00  0.00     0.203 C 
BRANCH  11  12
HETATM   12  O   UNL     1      65.357   8.865   5.882  1.00  0.00    -0.396 OA
HETATM   13  H   UNL     1      65.379   9.786   5.580  1.00  0.00     0.209 HD
ENDBRANCH  11  12
ENDBRANCH   6  11
TORSDOF 2
ENDMDL
MODEL 6
REMARK VINA RESULT:      -4.6      1.627      3.086
REMARK  2 active torsions:
REMARK  status: ('A' for Active; 'I' for Inactive)
REMARK    1  A    between atoms: C_6  and  C_9 
REMARK    2  A    between atoms: O_7  and  C_9 
ROOT
HETATM    1  C   UNL     1      62.721   9.537   3.777  1.00  0.00     0.000 A 
HETATM    2  N   UNL     1      61.568  10.940   2.478  1.00  0.00    -0.365 N 
HETATM    3  C   UNL     1      61.780  11.595   3.659  1.00  0.00     0.089 A 
HETATM    4  C   UNL     1      62.127   9.681   2.523  1.00  0.00     0.043 A 
HETATM    5  C   UNL     1      62.495  10.756   4.481  1.00  0.00     0.031 A 
HETATM    6  C   UNL     1      63.374   8.322   4.102  1.00  0.00    -0.022 A 
HETATM    7  C   UNL     1      62.791   7.482   1.874  1.00  0.00     0.003 A 
HETATM    8  C   UNL     1      62.146   8.676   1.551  1.00  0.00     0.030 A 
HETATM    9  C   UNL     1      63.395   7.307   3.118  1.00  0.00     0.010 A 
HETATM   10  H   UNL     1      61.086  11.314   1.705  1.00  0.00     0.165 HD
ENDROOT
BRANCH   6  11
HETATM   11  C   UNL     1      64.041   8.077   5.432  1.00  0.00     0.203 C 
BRANCH  11  12
HETATM   12  O   UNL     1      65.160   8.937   5.607  1.00  0.00    -0.396 OA
HETATM   13  H   UNL     1      64.941   9.623   6.257  1.00  0.00     0.209 HD
ENDBRANCH  11  12
ENDBRANCH   6  11
TORSDOF 2
ENDMDL
MODEL 7
REMARK VINA RESULT:      -4.3     11.955     13.106
REMARK  2 active torsions:
REMARK  status: ('A' for Active; 'I' for Inactive)
REMARK    1  A    between atoms: C_6  and  C_9 
REMARK    2  A    between atoms: O_7  and  C_9 
ROOT
HETATM    1  C   UNL     1      56.914   2.392  12.548  1.00  0.00     0.000 A 
HETATM    2  N   UNL     1      55.758   1.804  14.366  1.00  0.00    -0.365 N 
HETATM    3  C   UNL     1      54.859   2.364  13.502  1.00  0.00     0.089 A 
HETATM    4  C   UNL     1      57.020   1.812  13.813  1.00  0.00     0.043 A 
HETATM    5  C   UNL     1      55.541   2.732  12.367  1.00  0.00     0.031 A 
HETATM    6  C   UNL     1      58.075   2.534  11.749  1.00  0.00    -0.022 A 
HETATM    7  C   UNL     1      59.371   1.492  13.549  1.00  0.00     0.003 A 
HETATM    8  C   UNL     1      58.231   1.351  14.340  1.00  0.00     0.030 A 
HETATM    9  C   UNL     1      59.297   2.066  12.281  1.00  0.00     0.010 A 
HETATM   10  H   UNL     1      55.537   1.445  15.256  1.00  0.00     0.165 HD
ENDROOT
BRANCH   6  11
HETATM   11  C   UNL     1      58.055   3.150  10.372  1.00  0.00     0.203 C 
BRANCH  11  12
HETATM   12  O   UNL     1      58.619   4.456  10.392  1.00  0.00    -0.396 OA
HETATM   13  H   UNL     1      59.195   4.547  11.167  1.00  0.00     0.209 HD
ENDBRANCH  11  12
ENDBRANCH   6  11
TORSDOF 2
ENDMDL
MODEL 8
REMARK VINA RESULT:      -3.8      5.117      6.481
REMARK  2 active torsions:
REMARK  status: ('A' for Active; 'I' for Inactive)
REMARK    1  A    between atoms: C_6  and  C_9 
REMARK    2  A    between atoms: O_7  and  C_9 
ROOT
HETATM    1  C   UNL     1      66.772   5.818   7.617  1.00  0.00     0.000 A 
HETATM    2  N   UNL     1      66.967   3.814   8.584  1.00  0.00    -0.365 N 
HETATM    3  C   UNL     1      68.075   4.526   8.949  1.00  0.00     0.089 A 
HETATM    4  C   UNL     1      66.157   4.575   7.769  1.00  0.00     0.043 A 
HETATM    5  C   UNL     1      67.982   5.771   8.372  1.00  0.00     0.031 A 
HETATM    6  C   UNL     1      66.153   6.806   6.815  1.00  0.00    -0.022 A 
HETATM    7  C   UNL     1      64.331   5.227   6.376  1.00  0.00     0.003 A 
HETATM    8  C   UNL     1      64.938   4.249   7.164  1.00  0.00     0.030 A 
HETATM    9  C   UNL     1      64.921   6.478   6.206  1.00  0.00     0.010 A 
HETATM   10  H   UNL     1      66.773   2.890   8.865  1.00  0.00     0.165 HD
ENDROOT
BRANCH   6  11
HETATM   11  C   UNL     1      66.746   8.175   6.593  1.00  0.00     0.203 C 
BRANCH  11  12
HETATM   12  O   UNL     1      65.744   9.105   6.194  1.00  0.00    -0.396 OA
HETATM   13  H   UNL     1      65.709   9.834   6.833  1.00  0.00     0.209 HD
ENDBRANCH  11  12
ENDBRANCH   6  11
TORSDOF 2
ENDMDL
MODEL 9
REMARK VINA RESULT:      -3.7     11.924     13.001
REMARK  2 active torsions:
REMARK  status: ('A' for Active; 'I' for Inactive)
REMARK    1  A    between atoms: C_6  and  C_9 
REMARK    2  A    between atoms: O_7  and  C_9 
ROOT
HETATM    1  C   UNL     1      57.191   2.204  12.020  1.00  0.00     0.000 A 
HETATM    2  N   UNL     1      58.696   2.126  10.371  1.00  0.00    -0.365 N 
HETATM    3  C   UNL     1      57.505   2.462   9.790  1.00  0.00     0.089 A 
HETATM    4  C   UNL     1      58.534   1.958  11.730  1.00  0.00     0.043 A 
HETATM    5  C   UNL     1      56.557   2.524  10.784  1.00  0.00     0.031 A 
HETATM    6  C   UNL     1      56.739   2.096  13.358  1.00  0.00    -0.022 A 
HETATM    7  C   UNL     1      59.022   1.506  14.022  1.00  0.00     0.003 A 
HETATM    8  C   UNL     1      59.473   1.610  12.706  1.00  0.00     0.030 A 
HETATM    9  C   UNL     1      57.688   1.746  14.344  1.00  0.00     0.010 A 
HETATM   10  H   UNL     1      59.548   2.020   9.890  1.00  0.00     0.165 HD
ENDROOT
BRANCH   6  11
HETATM   11  C   UNL     1      55.307   2.341  13.763  1.00  0.00     0.203 C 
BRANCH  11  12
HETATM   12  O   UNL     1      55.241   3.152  14.931  1.00  0.00    -0.396 OA
HETATM   13  H   UNL     1      54.778   3.978  14.723  1.00  0.00     0.209 HD
ENDBRANCH  11  12
ENDBRANCH   6  11
TORSDOF 2
ENDMDL
