MODEL 1
REMARK VINA RESULT:      -4.5      0.000      0.000
REMARK  2 active torsions:
REMARK  status: ('A' for Active; 'I' for Inactive)
REMARK    1  A    between atoms: C_6  and  C_9 
REMARK    2  A    between atoms: N_8  and  C_9 
ROOT
HETATM    1  N   UNL     1      66.402   6.389   4.662  1.00  0.00    -0.283 NA
HETATM    2  O   UNL     1      65.798   8.793   6.206  1.00  0.00    -0.341 OA
HETATM    3  C   UNL     1      65.264   7.191   4.408  1.00  0.00     0.044 A 
HETATM    4  C   UNL     1      65.011   8.362   5.158  1.00  0.00     0.090 A 
HETATM    5  C   UNL     1      67.403   7.118   5.458  1.00  0.00     0.129 C 
HETATM    6  C   UNL     1      66.744   7.806   6.655  1.00  0.00     0.167 C 
HETATM    7  C   UNL     1      66.949   5.617   3.550  1.00  0.00     0.116 C 
HETATM    8  C   UNL     1      63.918   9.189   4.876  1.00  0.00     0.039 A 
HETATM    9  C   UNL     1      64.308   6.836   3.443  1.00  0.00     0.026 A 
HETATM   10  C   UNL     1      63.018   8.836   3.875  1.00  0.00     0.003 A 
HETATM   11  C   UNL     1      63.201   7.650   3.174  1.00  0.00     0.002 A 
ENDROOT
BRANCH   6  12
HETATM   12  C   UNL     1      66.077   6.847   7.666  1.00  0.00     0.263 C 
BRANCH  12  13
HETATM   13  N   UNL     1      66.532   5.453   7.571  1.00  0.00    -0.077 N 
HETATM   14  H   UNL     1      66.096   4.901   8.310  1.00  0.00     0.274 HD
HETATM   15  H   UNL     1      67.547   5.418   7.673  1.00  0.00     0.274 HD
HETATM   16  H   UNL     1      66.270   5.071   6.662  1.00  0.00     0.274 HD
ENDBRANCH  12  13
ENDBRANCH   6  12
TORSDOF 2
ENDMDL
MODEL 2
REMARK VINA RESULT:      -4.5      1.412      1.955
REMARK  2 active torsions:
REMARK  status: ('A' for Active; 'I' for Inactive)
REMARK    1  A    between atoms: C_6  and  C_9 
REMARK    2  A    between atoms: N_8  and  C_9 
ROOT
HETATM    1  N   UNL     1      64.328   6.948   3.958  1.00  0.00    -0.283 NA
HETATM    2  O   UNL     1      65.222   8.990   5.844  1.00  0.00    -0.341 OA
HETATM    3  C   UNL     1      63.635   8.167   4.146  1.00  0.00     0.044 A 
HETATM    4  C   UNL     1      64.106   9.146   5.049  1.00  0.00     0.090 A 
HETATM    5  C   UNL     1      65.702   7.028   4.480  1.00  0.00     0.129 C 
HETATM    6  C   UNL     1      65.713   7.637   5.882  1.00  0.00     0.167 C 
HETATM    7  C   UNL     1      64.203   6.289   2.662  1.00  0.00     0.116 C 
HETATM    8  C   UNL     1      63.456  10.376   5.198  1.00  0.00     0.039 A 
HETATM    9  C   UNL     1      62.424   8.439   3.488  1.00  0.00     0.026 A 
HETATM   10  C   UNL     1      62.287  10.637   4.490  1.00  0.00     0.003 A 
HETATM   11  C   UNL     1      61.760   9.661   3.653  1.00  0.00     0.002 A 
ENDROOT
BRANCH   6  12
HETATM   12  C   UNL     1      64.948   6.821   6.948  1.00  0.00     0.263 C 
BRANCH  12  13
HETATM   13  N   UNL     1      64.676   5.428   6.565  1.00  0.00    -0.077 N 
HETATM   14  H   UNL     1      63.934   5.406   5.865  1.00  0.00     0.274 HD
HETATM   15  H   UNL     1      64.383   4.900   7.388  1.00  0.00     0.274 HD
HETATM   16  H   UNL     1      65.521   5.010   6.178  1.00  0.00     0.274 HD
ENDBRANCH  12  13
ENDBRANCH   6  12
TORSDOF 2
ENDMDL
MODEL 3
REMARK VINA RESULT:      -4.2      3.975      4.641
REMARK  2 active torsions:
REMARK  status: ('A' for Active; 'I' for Inactive)
REMARK    1  A    between atoms: C_6  and  C_9 
REMARK    2  A    between atoms: N_8  and  C_9 
ROOT
HETATM    1  N   UNL     1      62.262   7.386   2.221  1.00  0.00    -0.283 NA
HETATM    2  O   UNL     1      62.411   8.353   4.973  1.00  0.00    -0.341 OA
HETATM    3  C   UNL     1      62.142   8.756   2.554  1.00  0.00     0.044 A 
HETATM    4  C   UNL     1      62.242   9.196   3.893  1.00  0.00     0.090 A 
HETATM    5  C   UNL     1      62.869   6.619   3.322  1.00  0.00     0.129 C 
HETATM    6  C   UNL     1      62.201   6.966   4.654  1.00  0.00     0.167 C 
HETATM    7  C   UNL     1      62.767   7.052   0.892  1.00  0.00     0.116 C 
HETATM    8  C   UNL     1      62.180  10.554   4.223  1.00  0.00     0.039 A 
HETATM    9  C   UNL     1      61.866   9.732   1.584  1.00  0.00     0.026 A 
HETATM   10  C   UNL     1      61.960  11.503   3.230  1.00  0.00     0.003 A 
HETATM   11  C   UNL     1      61.781  11.090   1.914  1.00  0.00     0.002 A 
ENDROOT
BRANCH   6  12
HETATM   12  C   UNL     1      60.697   6.621   4.732  1.00  0.00     0.263 C 
BRANCH  12  13
HETATM   13  N   UNL     1      60.228   5.706   3.682  1.00  0.00    -0.077 N 
HETATM   14  H   UNL     1      59.674   6.225   3.000  1.00  0.00     0.274 HD
HETATM   15  H   UNL     1      59.654   4.973   4.100  1.00  0.00     0.274 HD
HETATM   16  H   UNL     1      61.031   5.284   3.216  1.00  0.00     0.274 HD
ENDBRANCH  12  13
ENDBRANCH   6  12
TORSDOF 2
ENDMDL
MODEL 4
REMARK VINA RESULT:      -4.1      3.190      4.256
REMARK  2 active torsions:
REMARK  status: ('A' for Active; 'I' for Inactive)
REMARK    1  A    between atoms: C_6  and  C_9 
REMARK    2  A    between atoms: N_8  and  C_9 
ROOT
HETATM    1  N   UNL     1      63.767   7.822   6.055  1.00  0.00    -0.283 NA
HETATM    2  O   UNL     1      62.287   8.855   3.758  1.00  0.00    -0.341 OA
HETATM    3  C   UNL     1      62.519   7.290   5.651  1.00  0.00     0.044 A 
HETATM    4  C   UNL     1      61.838   7.796   4.520  1.00  0.00     0.090 A 
HETATM    5  C   UNL     1      64.383   8.615   4.979  1.00  0.00     0.129 C 
HETATM    6  C   UNL     1      63.368   9.583   4.370  1.00  0.00     0.167 C 
HETATM    7  C   UNL     1      64.684   6.936   6.765  1.00  0.00     0.116 C 
HETATM    8  C   UNL     1      60.632   7.238   4.083  1.00  0.00     0.039 A 
HETATM    9  C   UNL     1      61.875   6.277   6.379  1.00  0.00     0.026 A 
HETATM   10  C   UNL     1      60.047   6.197   4.797  1.00  0.00     0.003 A 
HETATM   11  C   UNL     1      60.657   5.732   5.956  1.00  0.00     0.002 A 
ENDROOT
BRANCH   6  12
HETATM   12  C   UNL     1      62.812  10.639   5.352  1.00  0.00     0.263 C 
BRANCH  12  13
HETATM   13  N   UNL     1      63.825  11.249   6.224  1.00  0.00    -0.077 N 
HETATM   14  H   UNL     1      64.169  12.110   5.797  1.00  0.00     0.274 HD
HETATM   15  H   UNL     1      64.601  10.599   6.351  1.00  0.00     0.274 HD
HETATM   16  H   UNL     1      63.410  11.462   7.131  1.00  0.00     0.274 HD
ENDBRANCH  12  13
ENDBRANCH   6  12
TORSDOF 2
ENDMDL
MODEL 5
REMARK VINA RESULT:      -4.0      2.170      4.271
REMARK  2 active torsions:
REMARK  status: ('A' for Active; 'I' for Inactive)
REMARK    1  A    between atoms: C_6  and  C_9 
REMARK    2  A    between atoms: N_8  and  C_9 
ROOT
HETATM    1  N   UNL     1      65.166   5.355   5.087  1.00  0.00    -0.283 NA
HETATM    2  O   UNL     1      64.388   7.141   7.263  1.00  0.00    -0.341 OA
HETATM    3  C   UNL     1      65.990   5.586   6.213  1.00  0.00     0.044 A 
HETATM    4  C   UNL     1      65.575   6.438   7.262  1.00  0.00     0.090 A 
HETATM    5  C   UNL     1      63.775   5.761   5.349  1.00  0.00     0.129 C 
HETATM    6  C   UNL     1      63.729   7.152   5.983  1.00  0.00     0.167 C 
HETATM    7  C   UNL     1      65.310   4.080   4.391  1.00  0.00     0.116 C 
HETATM    8  C   UNL     1      66.361   6.628   8.404  1.00  0.00     0.039 A 
HETATM    9  C   UNL     1      67.274   5.028   6.319  1.00  0.00     0.026 A 
HETATM   10  C   UNL     1      67.607   6.016   8.502  1.00  0.00     0.003 A 
HETATM   11  C   UNL     1      68.072   5.234   7.451  1.00  0.00     0.002 A 
ENDROOT
BRANCH   6  12
HETATM   12  C   UNL     1      64.297   8.285   5.099  1.00  0.00     0.263 C 
BRANCH  12  13
HETATM   13  N   UNL     1      64.044   9.639   5.611  1.00  0.00    -0.077 N 
HETATM   14  H   UNL     1      63.293  10.072   5.072  1.00  0.00     0.274 HD
HETATM   15  H   UNL     1      64.892  10.200   5.525  1.00  0.00     0.274 HD
HETATM   16  H   UNL     1      63.771   9.586   6.592  1.00  0.00     0.274 HD
ENDBRANCH  12  13
ENDBRANCH   6  12
TORSDOF 2
ENDMDL
MODEL 6
REMARK VINA RESULT:      -4.0      2.044      3.891
REMARK  2 active torsions:
REMARK  status: ('A' for Active; 'I' for Inactive)
REMARK    1  A    between atoms: C_6  and  C_9 
REMARK    2  A    between atoms: N_8  and  C_9 
ROOT
HETATM    1  N   UNL     1      64.046   7.104   3.626  1.00  0.00    -0.283 NA
HETATM    2  O   UNL     1      63.851   7.907   6.427  1.00  0.00    -0.341 OA
HETATM    3  C   UNL     1      65.142   7.030   4.518  1.00  0.00     0.044 A 
HETATM    4  C   UNL     1      65.010   7.404   5.874  1.00  0.00     0.090 A 
HETATM    5  C   UNL     1      62.772   7.216   4.354  1.00  0.00     0.129 C 
HETATM    6  C   UNL     1      62.865   8.281   5.447  1.00  0.00     0.167 C 
HETATM    7  C   UNL     1      64.027   6.180   2.496  1.00  0.00     0.116 C 
HETATM    8  C   UNL     1      66.075   7.280   6.774  1.00  0.00     0.039 A 
HETATM    9  C   UNL     1      66.420   6.635   4.090  1.00  0.00     0.026 A 
HETATM   10  C   UNL     1      67.315   6.833   6.329  1.00  0.00     0.003 A 
HETATM   11  C   UNL     1      67.493   6.532   4.983  1.00  0.00     0.002 A 
ENDROOT
BRANCH   6  12
HETATM   12  C   UNL     1      63.138   9.713   4.934  1.00  0.00     0.263 C 
BRANCH  12  13
HETATM   13  N   UNL     1      63.186  10.736   5.987  1.00  0.00    -0.077 N 
HETATM   14  H   UNL     1      63.634  11.578   5.624  1.00  0.00     0.274 HD
HETATM   15  H   UNL     1      63.719  10.382   6.782  1.00  0.00     0.274 HD
HETATM   16  H   UNL     1      62.238  10.960   6.289  1.00  0.00     0.274 HD
ENDBRANCH  12  13
ENDBRANCH   6  12
TORSDOF 2
ENDMDL
MODEL 7
REMARK VINA RESULT:      -4.0      2.545      4.170
REMARK  2 active torsions:
REMARK  status: ('A' for Active; 'I' for Inactive)
REMARK    1  A    between atoms: C_6  and  C_9 
REMARK    2  A    between atoms: N_8  and  C_9 
ROOT
HETATM    1  N   UNL     1      62.839   9.511   4.273  1.00  0.00    -0.283 NA
HETATM    2  O   UNL     1      62.952   6.602   4.041  1.00  0.00    -0.341 OA
HETATM    3  C   UNL     1      62.616   8.835   3.050  1.00  0.00     0.044 A 
HETATM    4  C   UNL     1      62.655   7.425   2.974  1.00  0.00     0.090 A 
HETATM    5  C   UNL     1      62.709   8.597   5.420  1.00  0.00     0.129 C 
HETATM    6  C   UNL     1      63.492   7.307   5.174  1.00  0.00     0.167 C 
HETATM    7  C   UNL     1      62.205  10.813   4.454  1.00  0.00     0.116 C 
HETATM    8  C   UNL     1      62.381   6.749   1.780  1.00  0.00     0.039 A 
HETATM    9  C   UNL     1      62.401   9.530   1.849  1.00  0.00     0.026 A 
HETATM   10  C   UNL     1      62.118   7.467   0.618  1.00  0.00     0.003 A 
HETATM   11  C   UNL     1      62.149   8.856   0.647  1.00  0.00     0.002 A 
ENDROOT
BRANCH   6  12
HETATM   12  C   UNL     1      65.017   7.497   5.009  1.00  0.00     0.263 C 
BRANCH  12  13
HETATM   13  N   UNL     1      65.593   8.549   5.858  1.00  0.00    -0.077 N 
HETATM   14  H   UNL     1      66.610   8.531   5.781  1.00  0.00     0.274 HD
HETATM   15  H   UNL     1      65.322   8.389   6.829  1.00  0.00     0.274 HD
HETATM   16  H   UNL     1      65.245   9.459   5.555  1.00  0.00     0.274 HD
ENDBRANCH  12  13
ENDBRANCH   6  12
TORSDOF 2
ENDMDL
MODEL 8
REMARK VINA RESULT:      -3.9      2.757      4.815
REMARK  2 active torsions:
REMARK  status: ('A' for Active; 'I' for Inactive)
REMARK    1  A    between atoms: C_6  and  C_9 
REMARK    2  A    between atoms: N_8  and  C_9 
ROOT
HETATM    1  N   UNL     1      62.195   7.307   2.997  1.00  0.00    -0.283 NA
HETATM    2  O   UNL     1      62.850   9.446   4.874  1.00  0.00    -0.341 OA
HETATM    3  C   UNL     1      63.467   7.423   3.606  1.00  0.00     0.044 A 
HETATM    4  C   UNL     1      63.746   8.457   4.528  1.00  0.00     0.090 A 
HETATM    5  C   UNL     1      61.182   8.093   3.721  1.00  0.00     0.129 C 
HETATM    6  C   UNL     1      61.699   9.503   4.011  1.00  0.00     0.167 C 
HETATM    7  C   UNL     1      61.758   5.976   2.588  1.00  0.00     0.116 C 
HETATM    8  C   UNL     1      64.984   8.544   5.175  1.00  0.00     0.039 A 
HETATM    9  C   UNL     1      64.524   6.556   3.284  1.00  0.00     0.026 A 
HETATM   10  C   UNL     1      65.994   7.635   4.874  1.00  0.00     0.003 A 
HETATM   11  C   UNL     1      65.771   6.655   3.914  1.00  0.00     0.002 A 
ENDROOT
BRANCH   6  12
HETATM   12  C   UNL     1      62.013  10.348   2.756  1.00  0.00     0.263 C 
BRANCH  12  13
HETATM   13  N   UNL     1      61.335   9.895   1.534  1.00  0.00    -0.077 N 
HETATM   14  H   UNL     1      61.615  10.484   0.750  1.00  0.00     0.274 HD
HETATM   15  H   UNL     1      60.325   9.958   1.662  1.00  0.00     0.274 HD
HETATM   16  H   UNL     1      61.592   8.927   1.341  1.00  0.00     0.274 HD
ENDBRANCH  12  13
ENDBRANCH   6  12
TORSDOF 2
ENDMDL
MODEL 9
REMARK VINA RESULT:      -3.8      2.149      4.059
REMARK  2 active torsions:
REMARK  status: ('A' for Active; 'I' for Inactive)
REMARK    1  A    between atoms: C_6  and  C_9 
REMARK    2  A    between atoms: N_8  and  C_9 
ROOT
HETATM    1  N   UNL     1      63.538   6.425   5.583  1.00  0.00    -0.283 NA
HETATM    2  O   UNL     1      64.823   9.046   5.497  1.00  0.00    -0.341 OA
HETATM    3  C   UNL     1      64.942   6.582   5.510  1.00  0.00     0.044 A 
HETATM    4  C   UNL     1      65.536   7.865   5.494  1.00  0.00     0.090 A 
HETATM    5  C   UNL     1      62.882   7.668   6.022  1.00  0.00     0.129 C 
HETATM    6  C   UNL     1      63.418   8.867   5.239  1.00  0.00     0.167 C 
HETATM    7  C   UNL     1      63.023   5.209   6.204  1.00  0.00     0.116 C 
HETATM    8  C   UNL     1      66.925   8.027   5.479  1.00  0.00     0.039 A 
HETATM    9  C   UNL     1      65.806   5.481   5.398  1.00  0.00     0.026 A 
HETATM   10  C   UNL     1      67.756   6.913   5.422  1.00  0.00     0.003 A 
HETATM   11  C   UNL     1      67.197   5.642   5.359  1.00  0.00     0.002 A 
ENDROOT
BRANCH   6  12
HETATM   12  C   UNL     1      63.156   8.815   3.717  1.00  0.00     0.263 C 
BRANCH  12  13
HETATM   13  N   UNL     1      62.119   7.856   3.312  1.00  0.00    -0.077 N 
HETATM   14  H   UNL     1      61.682   7.456   4.143  1.00  0.00     0.274 HD
HETATM   15  H   UNL     1      62.542   7.112   2.757  1.00  0.00     0.274 HD
HETATM   16  H   UNL     1      61.412   8.335   2.754  1.00  0.00     0.274 HD
ENDBRANCH  12  13
ENDBRANCH   6  12
TORSDOF 2
ENDMDL
