MODEL 1
REMARK VINA RESULT:      -5.5      0.000      0.000
REMARK  3 active torsions:
REMARK  status: ('A' for Active; 'I' for Inactive)
REMARK    1  A    between atoms: C_1  and  C_3 
REMARK    2  A    between atoms: N_2  and  C_6 
REMARK    3  A    between atoms: C_6  and  C_10 
ROOT
HETATM    1  C   UNL     1      62.482   9.858   3.549  1.00  0.00     0.040 A 
HETATM    2  C   UNL     1      62.813   8.636   2.954  1.00  0.00     0.019 A 
HETATM    3  C   UNL     1      62.688  10.037   4.922  1.00  0.00     0.019 A 
HETATM    4  C   UNL     1      63.750   7.855   5.060  1.00  0.00    -0.033 A 
HETATM    5  C   UNL     1      63.306   9.034   5.678  1.00  0.00     0.010 A 
HETATM    6  C   UNL     1      63.453   7.647   3.704  1.00  0.00     0.010 A 
ENDROOT
BRANCH   4   7
HETATM    7  C   UNL     1      64.626   6.864   5.801  1.00  0.00     0.273 C 
BRANCH   7   8
HETATM    8  N   UNL     1      65.471   7.404   6.875  1.00  0.00    -0.063 N 
HETATM    9  C   UNL     1      66.718   7.974   6.295  1.00  0.00     0.261 C 
HETATM   10  C   UNL     1      67.743   6.920   5.830  1.00  0.00     0.195 C 
HETATM   11  O   UNL     1      68.073   6.005   6.881  1.00  0.00    -0.388 OA
HETATM   12  C   UNL     1      66.898   5.373   7.399  1.00  0.00     0.195 C 
HETATM   13  C   UNL     1      65.875   6.410   7.893  1.00  0.00     0.261 C 
HETATM   14  H   UNL     1      64.898   8.109   7.338  1.00  0.00     0.280 HD
ENDBRANCH   7   8
ENDBRANCH   4   7
BRANCH   1  15
HETATM   15  C   UNL     1      61.937  10.989   2.759  1.00  0.00     0.209 C 
HETATM   16  O   UNL     1      61.606  10.893   1.591  1.00  0.00    -0.644 OA
HETATM   17  O   UNL     1      61.772  12.115   3.483  1.00  0.00    -0.644 OA
ENDBRANCH   1  15
TORSDOF 3
ENDMDL
MODEL 2
REMARK VINA RESULT:      -5.2      0.753      1.486
REMARK  3 active torsions:
REMARK  status: ('A' for Active; 'I' for Inactive)
REMARK    1  A    between atoms: C_1  and  C_3 
REMARK    2  A    between atoms: N_2  and  C_6 
REMARK    3  A    between atoms: C_6  and  C_10 
ROOT
HETATM    1  C   UNL     1      62.528   9.114   2.975  1.00  0.00     0.040 A 
HETATM    2  C   UNL     1      62.639   9.682   4.248  1.00  0.00     0.019 A 
HETATM    3  C   UNL     1      63.177   7.906   2.696  1.00  0.00     0.019 A 
HETATM    4  C   UNL     1      63.869   7.729   5.020  1.00  0.00    -0.033 A 
HETATM    5  C   UNL     1      63.858   7.223   3.711  1.00  0.00     0.010 A 
HETATM    6  C   UNL     1      63.296   8.987   5.265  1.00  0.00     0.010 A 
ENDROOT
BRANCH   4   7
HETATM    7  C   UNL     1      64.391   6.899   6.176  1.00  0.00     0.273 C 
BRANCH   7   8
HETATM    8  N   UNL     1      65.480   7.483   6.971  1.00  0.00    -0.063 N 
HETATM    9  C   UNL     1      66.624   7.824   6.082  1.00  0.00     0.261 C 
HETATM   10  C   UNL     1      67.442   6.607   5.602  1.00  0.00     0.195 C 
HETATM   11  O   UNL     1      67.903   5.815   6.702  1.00  0.00    -0.388 OA
HETATM   12  C   UNL     1      66.810   5.397   7.527  1.00  0.00     0.195 C 
HETATM   13  C   UNL     1      66.000   6.600   8.038  1.00  0.00     0.261 C 
HETATM   14  H   UNL     1      65.074   8.305   7.418  1.00  0.00     0.280 HD
ENDBRANCH   7   8
ENDBRANCH   4   7
BRANCH   1  15
HETATM   15  C   UNL     1      61.715   9.746   1.906  1.00  0.00     0.209 C 
HETATM   16  O   UNL     1      61.036   9.115   1.117  1.00  0.00    -0.644 OA
HETATM   17  O   UNL     1      61.743  11.095   1.943  1.00  0.00    -0.644 OA
ENDBRANCH   1  15
TORSDOF 3
ENDMDL
MODEL 3
REMARK VINA RESULT:      -4.8      1.616      6.444
REMARK  3 active torsions:
REMARK  status: ('A' for Active; 'I' for Inactive)
REMARK    1  A    between atoms: C_1  and  C_3 
REMARK    2  A    between atoms: N_2  and  C_6 
REMARK    3  A    between atoms: C_6  and  C_10 
ROOT
HETATM    1  C   UNL     1      66.077   6.409   7.123  1.00  0.00     0.040 A 
HETATM    2  C   UNL     1      65.038   5.690   6.523  1.00  0.00     0.019 A 
HETATM    3  C   UNL     1      66.482   7.630   6.573  1.00  0.00     0.019 A 
HETATM    4  C   UNL     1      64.673   7.515   4.954  1.00  0.00    -0.033 A 
HETATM    5  C   UNL     1      65.793   8.175   5.482  1.00  0.00     0.010 A 
HETATM    6  C   UNL     1      64.334   6.247   5.452  1.00  0.00     0.010 A 
ENDROOT
BRANCH   4   7
HETATM    7  C   UNL     1      63.773   8.191   3.938  1.00  0.00     0.273 C 
BRANCH   7   8
HETATM    8  N   UNL     1      62.410   8.520   4.378  1.00  0.00    -0.063 N 
HETATM    9  C   UNL     1      61.630   9.066   3.235  1.00  0.00     0.261 C 
HETATM   10  C   UNL     1      62.001  10.511   2.844  1.00  0.00     0.195 C 
HETATM   11  O   UNL     1      61.906  11.400   3.962  1.00  0.00    -0.388 OA
HETATM   12  C   UNL     1      62.720  10.946   5.049  1.00  0.00     0.195 C 
HETATM   13  C   UNL     1      62.345   9.515   5.471  1.00  0.00     0.261 C 
HETATM   14  H   UNL     1      62.025   7.644   4.733  1.00  0.00     0.280 HD
ENDBRANCH   7   8
ENDBRANCH   4   7
BRANCH   1  15
HETATM   15  C   UNL     1      66.754   5.924   8.351  1.00  0.00     0.209 C 
HETATM   16  O   UNL     1      67.565   6.583   8.975  1.00  0.00    -0.644 OA
HETATM   17  O   UNL     1      66.325   4.709   8.752  1.00  0.00    -0.644 OA
ENDBRANCH   1  15
TORSDOF 3
ENDMDL
MODEL 4
REMARK VINA RESULT:      -4.7      1.735      6.617
REMARK  3 active torsions:
REMARK  status: ('A' for Active; 'I' for Inactive)
REMARK    1  A    between atoms: C_1  and  C_3 
REMARK    2  A    between atoms: N_2  and  C_6 
REMARK    3  A    between atoms: C_6  and  C_10 
ROOT
HETATM    1  C   UNL     1      65.660   6.696   7.266  1.00  0.00     0.040 A 
HETATM    2  C   UNL     1      66.278   7.722   6.543  1.00  0.00     0.019 A 
HETATM    3  C   UNL     1      64.343   6.332   6.961  1.00  0.00     0.019 A 
HETATM    4  C   UNL     1      64.340   7.869   5.079  1.00  0.00    -0.033 A 
HETATM    5  C   UNL     1      63.680   6.926   5.881  1.00  0.00     0.010 A 
HETATM    6  C   UNL     1      65.625   8.295   5.450  1.00  0.00     0.010 A 
ENDROOT
BRANCH   4   7
HETATM    7  C   UNL     1      63.734   8.348   3.774  1.00  0.00     0.273 C 
BRANCH   7   8
HETATM    8  N   UNL     1      62.269   8.455   3.725  1.00  0.00    -0.063 N 
HETATM    9  C   UNL     1      61.781   8.076   2.371  1.00  0.00     0.261 C 
HETATM   10  C   UNL     1      62.033   9.141   1.284  1.00  0.00     0.195 C 
HETATM   11  O   UNL     1      61.490  10.412   1.655  1.00  0.00    -0.388 OA
HETATM   12  C   UNL     1      62.012  10.845   2.916  1.00  0.00     0.195 C 
HETATM   13  C   UNL     1      61.745   9.806   4.019  1.00  0.00     0.261 C 
HETATM   14  H   UNL     1      61.931   7.825   4.453  1.00  0.00     0.280 HD
ENDBRANCH   7   8
ENDBRANCH   4   7
BRANCH   1  15
HETATM   15  C   UNL     1      66.371   5.959   8.339  1.00  0.00     0.209 C 
HETATM   16  O   UNL     1      66.203   4.774   8.564  1.00  0.00    -0.644 OA
HETATM   17  O   UNL     1      67.280   6.713   8.992  1.00  0.00    -0.644 OA
ENDBRANCH   1  15
TORSDOF 3
ENDMDL
MODEL 5
REMARK VINA RESULT:      -4.6      1.646      2.542
REMARK  3 active torsions:
REMARK  status: ('A' for Active; 'I' for Inactive)
REMARK    1  A    between atoms: C_1  and  C_3 
REMARK    2  A    between atoms: N_2  and  C_6 
REMARK    3  A    between atoms: C_6  and  C_10 
ROOT
HETATM    1  C   UNL     1      62.962   9.545   4.030  1.00  0.00     0.040 A 
HETATM    2  C   UNL     1      63.822   9.379   5.120  1.00  0.00     0.019 A 
HETATM    3  C   UNL     1      62.834   8.519   3.086  1.00  0.00     0.019 A 
HETATM    4  C   UNL     1      64.260   7.085   4.435  1.00  0.00    -0.033 A 
HETATM    5  C   UNL     1      63.493   7.298   3.280  1.00  0.00     0.010 A 
HETATM    6  C   UNL     1      64.456   8.152   5.326  1.00  0.00     0.010 A 
ENDROOT
BRANCH   4   7
HETATM    7  C   UNL     1      64.784   5.705   4.783  1.00  0.00     0.273 C 
BRANCH   7   8
HETATM    8  N   UNL     1      66.075   5.321   4.196  1.00  0.00    -0.063 N 
HETATM    9  C   UNL     1      66.377   3.902   4.527  1.00  0.00     0.261 C 
HETATM   10  C   UNL     1      66.815   3.669   5.988  1.00  0.00     0.195 C 
HETATM   11  O   UNL     1      67.929   4.495   6.341  1.00  0.00    -0.388 OA
HETATM   12  C   UNL     1      67.635   5.878   6.116  1.00  0.00     0.195 C 
HETATM   13  C   UNL     1      67.222   6.134   4.657  1.00  0.00     0.261 C 
HETATM   14  H   UNL     1      65.969   5.475   3.193  1.00  0.00     0.280 HD
ENDBRANCH   7   8
ENDBRANCH   4   7
BRANCH   1  15
HETATM   15  C   UNL     1      62.154  10.777   3.853  1.00  0.00     0.209 C 
HETATM   16  O   UNL     1      61.971  11.592   4.739  1.00  0.00    -0.644 OA
HETATM   17  O   UNL     1      61.705  10.944   2.591  1.00  0.00    -0.644 OA
ENDBRANCH   1  15
TORSDOF 3
ENDMDL
MODEL 6
REMARK VINA RESULT:      -4.4      3.272      6.793
REMARK  3 active torsions:
REMARK  status: ('A' for Active; 'I' for Inactive)
REMARK    1  A    between atoms: C_1  and  C_3 
REMARK    2  A    between atoms: N_2  and  C_6 
REMARK    3  A    between atoms: C_6  and  C_10 
ROOT
HETATM    1  C   UNL     1      64.452   7.990   5.544  1.00  0.00     0.040 A 
HETATM    2  C   UNL     1      64.071   9.170   4.897  1.00  0.00     0.019 A 
HETATM    3  C   UNL     1      63.533   6.943   5.671  1.00  0.00     0.019 A 
HETATM    4  C   UNL     1      61.927   8.172   4.323  1.00  0.00    -0.033 A 
HETATM    5  C   UNL     1      62.269   7.039   5.076  1.00  0.00     0.010 A 
HETATM    6  C   UNL     1      62.820   9.254   4.281  1.00  0.00     0.010 A 
ENDROOT
BRANCH   4   7
HETATM    7  C   UNL     1      60.668   8.200   3.478  1.00  0.00     0.273 C 
BRANCH   7   8
HETATM    8  N   UNL     1      60.375   6.995   2.690  1.00  0.00    -0.063 N 
HETATM    9  C   UNL     1      60.513   7.296   1.239  1.00  0.00     0.261 C 
HETATM   10  C   UNL     1      59.357   8.130   0.650  1.00  0.00     0.195 C 
HETATM   11  O   UNL     1      58.087   7.520   0.898  1.00  0.00    -0.388 OA
HETATM   12  C   UNL     1      57.888   7.299   2.298  1.00  0.00     0.195 C 
HETATM   13  C   UNL     1      59.018   6.444   2.897  1.00  0.00     0.261 C 
HETATM   14  H   UNL     1      61.046   6.296   3.010  1.00  0.00     0.280 HD
ENDBRANCH   7   8
ENDBRANCH   4   7
BRANCH   1  15
HETATM   15  C   UNL     1      65.822   7.803   6.082  1.00  0.00     0.209 C 
HETATM   16  O   UNL     1      66.473   8.700   6.585  1.00  0.00    -0.644 OA
HETATM   17  O   UNL     1      66.245   6.523   6.030  1.00  0.00    -0.644 OA
ENDBRANCH   1  15
TORSDOF 3
ENDMDL
MODEL 7
REMARK VINA RESULT:      -4.4      2.298      2.797
REMARK  3 active torsions:
REMARK  status: ('A' for Active; 'I' for Inactive)
REMARK    1  A    between atoms: C_1  and  C_3 
REMARK    2  A    between atoms: N_2  and  C_6 
REMARK    3  A    between atoms: C_6  and  C_10 
ROOT
HETATM    1  C   UNL     1      62.621   9.881   3.824  1.00  0.00     0.040 A 
HETATM    2  C   UNL     1      62.425   8.828   2.925  1.00  0.00     0.019 A 
HETATM    3  C   UNL     1      63.444   9.695   4.940  1.00  0.00     0.019 A 
HETATM    4  C   UNL     1      64.043   7.478   4.143  1.00  0.00    -0.033 A 
HETATM    5  C   UNL     1      64.142   8.492   5.108  1.00  0.00     0.010 A 
HETATM    6  C   UNL     1      63.142   7.639   3.079  1.00  0.00     0.010 A 
ENDROOT
BRANCH   4   7
HETATM    7  C   UNL     1      64.963   6.273   4.177  1.00  0.00     0.273 C 
BRANCH   7   8
HETATM    8  N   UNL     1      64.366   4.998   4.597  1.00  0.00    -0.063 N 
HETATM    9  C   UNL     1      65.083   4.476   5.792  1.00  0.00     0.261 C 
HETATM   10  C   UNL     1      66.475   3.883   5.491  1.00  0.00     0.195 C 
HETATM   11  O   UNL     1      66.408   2.867   4.485  1.00  0.00    -0.388 OA
HETATM   12  C   UNL     1      65.802   3.368   3.288  1.00  0.00     0.195 C 
HETATM   13  C   UNL     1      64.401   3.938   3.566  1.00  0.00     0.261 C 
HETATM   14  H   UNL     1      63.387   5.212   4.791  1.00  0.00     0.280 HD
ENDBRANCH   7   8
ENDBRANCH   4   7
BRANCH   1  15
HETATM   15  C   UNL     1      61.994  11.210   3.617  1.00  0.00     0.209 C 
HETATM   16  O   UNL     1      61.833  12.022   4.510  1.00  0.00    -0.644 OA
HETATM   17  O   UNL     1      61.691  11.461   2.326  1.00  0.00    -0.644 OA
ENDBRANCH   1  15
TORSDOF 3
ENDMDL
MODEL 8
REMARK VINA RESULT:      -4.4      2.941      3.425
REMARK  3 active torsions:
REMARK  status: ('A' for Active; 'I' for Inactive)
REMARK    1  A    between atoms: C_1  and  C_3 
REMARK    2  A    between atoms: N_2  and  C_6 
REMARK    3  A    between atoms: C_6  and  C_10 
ROOT
HETATM    1  C   UNL     1      63.313   9.472   4.471  1.00  0.00     0.040 A 
HETATM    2  C   UNL     1      64.422   8.929   5.127  1.00  0.00     0.019 A 
HETATM    3  C   UNL     1      62.778   8.816   3.357  1.00  0.00     0.019 A 
HETATM    4  C   UNL     1      64.326   6.971   3.685  1.00  0.00    -0.033 A 
HETATM    5  C   UNL     1      63.292   7.577   2.955  1.00  0.00     0.010 A 
HETATM    6  C   UNL     1      64.916   7.681   4.742  1.00  0.00     0.010 A 
ENDROOT
BRANCH   4   7
HETATM    7  C   UNL     1      64.736   5.536   3.418  1.00  0.00     0.273 C 
BRANCH   7   8
HETATM    8  N   UNL     1      66.041   5.113   3.943  1.00  0.00    -0.063 N 
HETATM    9  C   UNL     1      66.939   4.736   2.818  1.00  0.00     0.261 C 
HETATM   10  C   UNL     1      66.607   3.378   2.166  1.00  0.00     0.195 C 
HETATM   11  O   UNL     1      66.575   2.323   3.133  1.00  0.00    -0.388 OA
HETATM   12  C   UNL     1      65.650   2.619   4.186  1.00  0.00     0.195 C 
HETATM   13  C   UNL     1      65.984   3.958   4.865  1.00  0.00     0.261 C 
HETATM   14  H   UNL     1      66.390   5.914   4.470  1.00  0.00     0.280 HD
ENDBRANCH   7   8
ENDBRANCH   4   7
BRANCH   1  15
HETATM   15  C   UNL     1      62.664  10.722   4.939  1.00  0.00     0.209 C 
HETATM   16  O   UNL     1      61.828  11.326   4.292  1.00  0.00    -0.644 OA
HETATM   17  O   UNL     1      63.035  11.081   6.186  1.00  0.00    -0.644 OA
ENDBRANCH   1  15
TORSDOF 3
ENDMDL
MODEL 9
REMARK VINA RESULT:      -4.4      4.903      6.754
REMARK  3 active torsions:
REMARK  status: ('A' for Active; 'I' for Inactive)
REMARK    1  A    between atoms: C_1  and  C_3 
REMARK    2  A    between atoms: N_2  and  C_6 
REMARK    3  A    between atoms: C_6  and  C_10 
ROOT
HETATM    1  C   UNL     1      59.198   6.043   7.399  1.00  0.00     0.040 A 
HETATM    2  C   UNL     1      58.299   6.188   6.338  1.00  0.00     0.019 A 
HETATM    3  C   UNL     1      60.570   5.960   7.138  1.00  0.00     0.019 A 
HETATM    4  C   UNL     1      60.159   6.382   4.780  1.00  0.00    -0.033 A 
HETATM    5  C   UNL     1      61.049   6.114   5.831  1.00  0.00     0.010 A 
HETATM    6  C   UNL     1      58.779   6.368   5.038  1.00  0.00     0.010 A 
ENDROOT
BRANCH   4   7
HETATM    7  C   UNL     1      60.665   6.785   3.409  1.00  0.00     0.273 C 
BRANCH   7   8
HETATM    8  N   UNL     1      62.035   7.313   3.339  1.00  0.00    -0.063 N 
HETATM    9  C   UNL     1      62.000   8.800   3.292  1.00  0.00     0.261 C 
HETATM   10  C   UNL     1      61.559   9.383   1.933  1.00  0.00     0.195 C 
HETATM   11  O   UNL     1      62.363   8.884   0.860  1.00  0.00    -0.388 OA
HETATM   12  C   UNL     1      62.344   7.453   0.826  1.00  0.00     0.195 C 
HETATM   13  C   UNL     1      62.808   6.854   2.165  1.00  0.00     0.261 C 
HETATM   14  H   UNL     1      62.501   6.959   4.175  1.00  0.00     0.280 HD
ENDBRANCH   7   8
ENDBRANCH   4   7
BRANCH   1  15
HETATM   15  C   UNL     1      58.739   5.996   8.810  1.00  0.00     0.209 C 
HETATM   16  O   UNL     1      58.826   5.005   9.511  1.00  0.00    -0.644 OA
HETATM   17  O   UNL     1      58.286   7.184   9.262  1.00  0.00    -0.644 OA
ENDBRANCH   1  15
TORSDOF 3
ENDMDL
