MODEL 1
REMARK VINA RESULT:      -5.1      0.000      0.000
REMARK  2 active torsions:
REMARK  status: ('A' for Active; 'I' for Inactive)
REMARK    1  A    between atoms: C_5  and  C_9 
REMARK    2  A    between atoms: O_7  and  C_9 
ROOT
HETATM    1  O   UNL     1      62.396  10.396   3.797  1.00  0.00    -0.340 OA
HETATM    2  N   UNL     1      63.360   7.700   4.378  1.00  0.00    -0.385 N 
HETATM    3  C   UNL     1      62.397   9.393   2.856  1.00  0.00     0.095 A 
HETATM    4  C   UNL     1      62.891   8.098   3.108  1.00  0.00     0.061 A 
HETATM    5  C   UNL     1      63.297  10.120   4.889  1.00  0.00     0.170 C 
HETATM    6  C   UNL     1      63.100   8.696   5.420  1.00  0.00     0.154 C 
HETATM    7  C   UNL     1      61.863   9.716   1.606  1.00  0.00     0.039 A 
HETATM    8  C   UNL     1      62.883   7.161   2.072  1.00  0.00     0.032 A 
HETATM    9  C   UNL     1      61.840   8.765   0.589  1.00  0.00     0.003 A 
HETATM   10  C   UNL     1      62.355   7.488   0.817  1.00  0.00     0.002 A 
HETATM   11  H   UNL     1      63.813   6.843   4.546  1.00  0.00     0.159 HD
ENDROOT
BRANCH   5  12
HETATM   12  C   UNL     1      63.040  11.164   5.983  1.00  0.00     0.198 C 
BRANCH  12  13
HETATM   13  O   UNL     1      64.253  11.693   6.518  1.00  0.00    -0.398 OA
HETATM   14  H   UNL     1      64.500  11.195   7.312  1.00  0.00     0.209 HD
ENDBRANCH  12  13
ENDBRANCH   5  12
TORSDOF 2
ENDMDL
MODEL 2
REMARK VINA RESULT:      -5.1      2.219      3.274
REMARK  2 active torsions:
REMARK  status: ('A' for Active; 'I' for Inactive)
REMARK    1  A    between atoms: C_5  and  C_9 
REMARK    2  A    between atoms: O_7  and  C_9 
ROOT
HETATM    1  O   UNL     1      64.640   9.497   5.417  1.00  0.00    -0.340 OA
HETATM    2  N   UNL     1      62.828   8.287   3.470  1.00  0.00    -0.385 N 
HETATM    3  C   UNL     1      64.929   8.318   4.771  1.00  0.00     0.095 A 
HETATM    4  C   UNL     1      64.052   7.701   3.858  1.00  0.00     0.061 A 
HETATM    5  C   UNL     1      63.231   9.807   5.380  1.00  0.00     0.170 C 
HETATM    6  C   UNL     1      62.670   9.658   3.962  1.00  0.00     0.154 C 
HETATM    7  C   UNL     1      66.169   7.743   5.059  1.00  0.00     0.039 A 
HETATM    8  C   UNL     1      64.424   6.483   3.285  1.00  0.00     0.032 A 
HETATM    9  C   UNL     1      66.537   6.540   4.464  1.00  0.00     0.003 A 
HETATM   10  C   UNL     1      65.664   5.903   3.580  1.00  0.00     0.002 A 
HETATM   11  H   UNL     1      62.152   7.823   2.926  1.00  0.00     0.159 HD
ENDROOT
BRANCH   5  12
HETATM   12  C   UNL     1      63.053  11.238   5.903  1.00  0.00     0.198 C 
BRANCH  12  13
HETATM   13  O   UNL     1      64.234  11.735   6.529  1.00  0.00    -0.398 OA
HETATM   14  H   UNL     1      64.836  10.996   6.715  1.00  0.00     0.209 HD
ENDBRANCH  12  13
ENDBRANCH   5  12
TORSDOF 2
ENDMDL
MODEL 3
REMARK VINA RESULT:      -5.0      2.282      3.381
REMARK  2 active torsions:
REMARK  status: ('A' for Active; 'I' for Inactive)
REMARK    1  A    between atoms: C_5  and  C_9 
REMARK    2  A    between atoms: O_7  and  C_9 
ROOT
HETATM    1  O   UNL     1      64.923   9.117   5.877  1.00  0.00    -0.340 OA
HETATM    2  N   UNL     1      64.113   7.325   3.716  1.00  0.00    -0.385 N 
HETATM    3  C   UNL     1      63.897   9.419   5.013  1.00  0.00     0.095 A 
HETATM    4  C   UNL     1      63.517   8.584   3.943  1.00  0.00     0.061 A 
HETATM    5  C   UNL     1      65.803   8.104   5.347  1.00  0.00     0.170 C 
HETATM    6  C   UNL     1      65.007   6.914   4.800  1.00  0.00     0.154 C 
HETATM    7  C   UNL     1      63.220  10.617   5.249  1.00  0.00     0.039 A 
HETATM    8  C   UNL     1      62.486   9.000   3.097  1.00  0.00     0.032 A 
HETATM    9  C   UNL     1      62.179  11.010   4.412  1.00  0.00     0.003 A 
HETATM   10  C   UNL     1      61.813  10.206   3.330  1.00  0.00     0.002 A 
HETATM   11  H   UNL     1      63.945   6.781   2.913  1.00  0.00     0.159 HD
ENDROOT
BRANCH   5  12
HETATM   12  C   UNL     1      66.752   7.672   6.472  1.00  0.00     0.198 C 
BRANCH  12  13
HETATM   13  O   UNL     1      67.038   8.739   7.374  1.00  0.00    -0.398 OA
HETATM   14  H   UNL     1      66.281   9.344   7.410  1.00  0.00     0.209 HD
ENDBRANCH  12  13
ENDBRANCH   5  12
TORSDOF 2
ENDMDL
MODEL 4
REMARK VINA RESULT:      -4.4      2.138      2.995
REMARK  2 active torsions:
REMARK  status: ('A' for Active; 'I' for Inactive)
REMARK    1  A    between atoms: C_5  and  C_9 
REMARK    2  A    between atoms: O_7  and  C_9 
ROOT
HETATM    1  O   UNL     1      63.089   8.227   5.187  1.00  0.00    -0.340 OA
HETATM    2  N   UNL     1      62.833   6.779   2.663  1.00  0.00    -0.385 N 
HETATM    3  C   UNL     1      62.690   8.839   4.022  1.00  0.00     0.095 A 
HETATM    4  C   UNL     1      62.596   8.165   2.788  1.00  0.00     0.061 A 
HETATM    5  C   UNL     1      63.773   6.981   4.942  1.00  0.00     0.170 C 
HETATM    6  C   UNL     1      62.991   6.108   3.954  1.00  0.00     0.154 C 
HETATM    7  C   UNL     1      62.363  10.194   4.114  1.00  0.00     0.039 A 
HETATM    8  C   UNL     1      62.218   8.887   1.653  1.00  0.00     0.032 A 
HETATM    9  C   UNL     1      61.965  10.896   2.980  1.00  0.00     0.003 A 
HETATM   10  C   UNL     1      61.898  10.247   1.745  1.00  0.00     0.002 A 
HETATM   11  H   UNL     1      62.885   6.313   1.797  1.00  0.00     0.159 HD
ENDROOT
BRANCH   5  12
HETATM   12  C   UNL     1      63.954   6.273   6.291  1.00  0.00     0.198 C 
BRANCH  12  13
HETATM   13  O   UNL     1      64.485   7.142   7.289  1.00  0.00    -0.398 OA
HETATM   14  H   UNL     1      65.438   7.253   7.147  1.00  0.00     0.209 HD
ENDBRANCH  12  13
ENDBRANCH   5  12
TORSDOF 2
ENDMDL
MODEL 5
REMARK VINA RESULT:      -4.3      2.688      3.831
REMARK  2 active torsions:
REMARK  status: ('A' for Active; 'I' for Inactive)
REMARK    1  A    between atoms: C_5  and  C_9 
REMARK    2  A    between atoms: O_7  and  C_9 
ROOT
HETATM    1  O   UNL     1      64.764   9.336   5.249  1.00  0.00    -0.340 OA
HETATM    2  N   UNL     1      63.486   7.585   3.291  1.00  0.00    -0.385 N 
HETATM    3  C   UNL     1      65.359   8.185   4.789  1.00  0.00     0.095 A 
HETATM    4  C   UNL     1      64.742   7.310   3.873  1.00  0.00     0.061 A 
HETATM    5  C   UNL     1      63.338   9.339   5.029  1.00  0.00     0.170 C 
HETATM    6  C   UNL     1      63.001   8.934   3.590  1.00  0.00     0.154 C 
HETATM    7  C   UNL     1      66.641   7.914   5.272  1.00  0.00     0.039 A 
HETATM    8  C   UNL     1      65.415   6.145   3.497  1.00  0.00     0.032 A 
HETATM    9  C   UNL     1      67.310   6.761   4.872  1.00  0.00     0.003 A 
HETATM   10  C   UNL     1      66.697   5.870   3.989  1.00  0.00     0.002 A 
HETATM   11  H   UNL     1      62.988   6.937   2.742  1.00  0.00     0.159 HD
ENDROOT
BRANCH   5  12
HETATM   12  C   UNL     1      62.817  10.746   5.349  1.00  0.00     0.198 C 
BRANCH  12  13
HETATM   13  O   UNL     1      62.048  11.292   4.279  1.00  0.00    -0.398 OA
HETATM   14  H   UNL     1      62.634  11.764   3.667  1.00  0.00     0.209 HD
ENDBRANCH  12  13
ENDBRANCH   5  12
TORSDOF 2
ENDMDL
MODEL 6
REMARK VINA RESULT:      -4.3      2.351      3.559
REMARK  2 active torsions:
REMARK  status: ('A' for Active; 'I' for Inactive)
REMARK    1  A    between atoms: C_5  and  C_9 
REMARK    2  A    between atoms: O_7  and  C_9 
ROOT
HETATM    1  O   UNL     1      62.789   7.516   3.370  1.00  0.00    -0.340 OA
HETATM    2  N   UNL     1      63.013   9.251   5.710  1.00  0.00    -0.385 N 
HETATM    3  C   UNL     1      62.510   8.862   3.322  1.00  0.00     0.095 A 
HETATM    4  C   UNL     1      62.577   9.706   4.447  1.00  0.00     0.061 A 
HETATM    5  C   UNL     1      62.753   7.000   4.717  1.00  0.00     0.170 C 
HETATM    6  C   UNL     1      63.556   7.892   5.671  1.00  0.00     0.154 C 
HETATM    7  C   UNL     1      62.155   9.376   2.072  1.00  0.00     0.039 A 
HETATM    8  C   UNL     1      62.235  11.053   4.301  1.00  0.00     0.032 A 
HETATM    9  C   UNL     1      61.839  10.725   1.935  1.00  0.00     0.003 A 
HETATM   10  C   UNL     1      61.872  11.566   3.050  1.00  0.00     0.002 A 
HETATM   11  H   UNL     1      62.958   9.792   6.531  1.00  0.00     0.159 HD
ENDROOT
BRANCH   5  12
HETATM   12  C   UNL     1      63.311   5.571   4.686  1.00  0.00     0.198 C 
BRANCH  12  13
HETATM   13  O   UNL     1      64.735   5.551   4.615  1.00  0.00    -0.398 OA
HETATM   14  H   UNL     1      65.050   6.377   4.215  1.00  0.00     0.209 HD
ENDBRANCH  12  13
ENDBRANCH   5  12
TORSDOF 2
ENDMDL
MODEL 7
REMARK VINA RESULT:      -4.3      3.043      3.995
REMARK  2 active torsions:
REMARK  status: ('A' for Active; 'I' for Inactive)
REMARK    1  A    between atoms: C_5  and  C_9 
REMARK    2  A    between atoms: O_7  and  C_9 
ROOT
HETATM    1  O   UNL     1      64.642   7.030   3.610  1.00  0.00    -0.340 OA
HETATM    2  N   UNL     1      64.882   8.853   5.880  1.00  0.00    -0.385 N 
HETATM    3  C   UNL     1      63.805   8.107   3.784  1.00  0.00     0.095 A 
HETATM    4  C   UNL     1      63.882   8.975   4.891  1.00  0.00     0.061 A 
HETATM    5  C   UNL     1      65.306   6.652   4.834  1.00  0.00     0.170 C 
HETATM    6  C   UNL     1      65.913   7.874   5.532  1.00  0.00     0.154 C 
HETATM    7  C   UNL     1      62.852   8.318   2.785  1.00  0.00     0.039 A 
HETATM    8  C   UNL     1      62.959  10.018   4.995  1.00  0.00     0.032 A 
HETATM    9  C   UNL     1      61.951   9.375   2.890  1.00  0.00     0.003 A 
HETATM   10  C   UNL     1      61.998  10.224   3.997  1.00  0.00     0.002 A 
HETATM   11  H   UNL     1      64.885   9.373   6.716  1.00  0.00     0.159 HD
ENDROOT
BRANCH   5  12
HETATM   12  C   UNL     1      66.383   5.618   4.482  1.00  0.00     0.198 C 
BRANCH  12  13
HETATM   13  O   UNL     1      67.673   6.210   4.343  1.00  0.00    -0.398 OA
HETATM   14  H   UNL     1      68.347   5.599   4.682  1.00  0.00     0.209 HD
ENDBRANCH  12  13
ENDBRANCH   5  12
TORSDOF 2
ENDMDL
MODEL 8
REMARK VINA RESULT:      -4.3      2.957      4.532
REMARK  2 active torsions:
REMARK  status: ('A' for Active; 'I' for Inactive)
REMARK    1  A    between atoms: C_5  and  C_9 
REMARK    2  A    between atoms: O_7  and  C_9 
ROOT
HETATM    1  O   UNL     1      64.688   9.073   4.713  1.00  0.00    -0.340 OA
HETATM    2  N   UNL     1      63.507   7.178   6.597  1.00  0.00    -0.385 N 
HETATM    3  C   UNL     1      65.432   8.115   5.361  1.00  0.00     0.095 A 
HETATM    4  C   UNL     1      64.886   7.217   6.300  1.00  0.00     0.061 A 
HETATM    5  C   UNL     1      63.431   9.327   5.374  1.00  0.00     0.170 C 
HETATM    6  C   UNL     1      62.706   8.017   5.703  1.00  0.00     0.154 C 
HETATM    7  C   UNL     1      66.789   8.060   5.036  1.00  0.00     0.039 A 
HETATM    8  C   UNL     1      65.735   6.306   6.933  1.00  0.00     0.032 A 
HETATM    9  C   UNL     1      67.620   7.132   5.658  1.00  0.00     0.003 A 
HETATM   10  C   UNL     1      67.097   6.257   6.612  1.00  0.00     0.002 A 
HETATM   11  H   UNL     1      63.124   6.641   7.328  1.00  0.00     0.159 HD
ENDROOT
BRANCH   5  12
HETATM   12  C   UNL     1      62.587  10.215   4.451  1.00  0.00     0.198 C 
BRANCH  12  13
HETATM   13  O   UNL     1      62.450  11.542   4.956  1.00  0.00    -0.398 OA
HETATM   14  H   UNL     1      61.961  12.082   4.316  1.00  0.00     0.209 HD
ENDBRANCH  12  13
ENDBRANCH   5  12
TORSDOF 2
ENDMDL
MODEL 9
REMARK VINA RESULT:      -4.2     12.311     13.636
REMARK  2 active torsions:
REMARK  status: ('A' for Active; 'I' for Inactive)
REMARK    1  A    between atoms: C_5  and  C_9 
REMARK    2  A    between atoms: O_7  and  C_9 
ROOT
HETATM    1  O   UNL     1      55.554   3.133  11.939  1.00  0.00    -0.340 OA
HETATM    2  N   UNL     1      55.646   1.809  14.541  1.00  0.00    -0.385 N 
HETATM    3  C   UNL     1      56.711   2.598  12.455  1.00  0.00     0.095 A 
HETATM    4  C   UNL     1      56.782   1.988  13.723  1.00  0.00     0.061 A 
HETATM    5  C   UNL     1      54.561   3.370  12.958  1.00  0.00     0.170 C 
HETATM    6  C   UNL     1      54.393   2.142  13.860  1.00  0.00     0.154 C 
HETATM    7  C   UNL     1      57.845   2.676  11.643  1.00  0.00     0.039 A 
HETATM    8  C   UNL     1      58.014   1.510  14.172  1.00  0.00     0.032 A 
HETATM    9  C   UNL     1      59.063   2.175  12.094  1.00  0.00     0.003 A 
HETATM   10  C   UNL     1      59.153   1.596  13.361  1.00  0.00     0.002 A 
HETATM   11  H   UNL     1      55.691   1.492  15.472  1.00  0.00     0.159 HD
ENDROOT
BRANCH   5  12
HETATM   12  C   UNL     1      53.245   3.730  12.256  1.00  0.00     0.198 C 
BRANCH  12  13
HETATM   13  O   UNL     1      53.422   4.745  11.269  1.00  0.00    -0.398 OA
HETATM   14  H   UNL     1      54.269   4.611  10.815  1.00  0.00     0.209 HD
ENDBRANCH  12  13
ENDBRANCH   5  12
TORSDOF 2
ENDMDL
