MODEL 1
REMARK VINA RESULT:      -5.2      0.000      0.000
REMARK  3 active torsions:
REMARK  status: ('A' for Active; 'I' for Inactive)
REMARK    1  A    between atoms: C_3  and  C_7 
REMARK    2  A    between atoms: C_5  and  C_8 
REMARK    3  A    between atoms: C_8  and  O_10 
ROOT
HETATM    1  N   UNL     1      62.212   7.253   5.093  1.00  0.00    -0.353 N 
ATOM      2  HN  UNL     1      61.241   7.115   4.815  1.00  0.00     0.166 HD
HETATM    3  C   UNL     1      62.962   8.266   4.709  1.00  0.00     0.085 A 
HETATM    4  S   UNL     1      64.574   8.226   5.313  1.00  0.00    -0.072 SA
HETATM    5  C   UNL     1      64.236   6.771   6.152  1.00  0.00     0.030 A 
HETATM    6  C   UNL     1      62.923   6.398   5.925  1.00  0.00     0.021 A 
HETATM    7  C   UNL     1      62.211   5.206   6.459  1.00  0.00     0.069 C 
ENDROOT
BRANCH   3   8
HETATM    8  C   UNL     1      62.523   9.324   3.785  1.00  0.00    -0.002 A 
HETATM    9  C   UNL     1      62.256  10.637   4.211  1.00  0.00     0.014 A 
HETATM   10  C   UNL     1      61.878  11.623   3.297  1.00  0.00     0.001 A 
HETATM   11  C   UNL     1      61.750  11.313   1.946  1.00  0.00     0.000 A 
HETATM   12  C   UNL     1      61.987  10.011   1.508  1.00  0.00     0.001 A 
HETATM   13  C   UNL     1      62.363   9.023   2.423  1.00  0.00     0.014 A 
ENDBRANCH   3   8
BRANCH   5  14
HETATM   14  C   UNL     1      65.296   6.107   6.955  1.00  0.00     0.212 C 
BRANCH  14  15
HETATM   15  O   UNL     1      65.421   6.818   8.180  1.00  0.00    -0.396 OA
HETATM   16  H   UNL     1      64.684   7.443   8.267  1.00  0.00     0.209 HD
ENDBRANCH  14  15
ENDBRANCH   5  14
TORSDOF 3
ENDMDL
MODEL 2
REMARK VINA RESULT:      -5.1      1.783      2.431
REMARK  3 active torsions:
REMARK  status: ('A' for Active; 'I' for Inactive)
REMARK    1  A    between atoms: C_3  and  C_7 
REMARK    2  A    between atoms: C_5  and  C_8 
REMARK    3  A    between atoms: C_8  and  O_10 
ROOT
HETATM    1  N   UNL     1      65.723   7.975   5.191  1.00  0.00    -0.353 N 
ATOM      2  HN  UNL     1      66.263   8.674   4.682  1.00  0.00     0.166 HD
HETATM    3  C   UNL     1      64.407   7.954   5.264  1.00  0.00     0.085 A 
HETATM    4  S   UNL     1      63.769   6.670   6.216  1.00  0.00    -0.072 SA
HETATM    5  C   UNL     1      65.353   6.101   6.533  1.00  0.00     0.030 A 
HETATM    6  C   UNL     1      66.275   6.917   5.901  1.00  0.00     0.021 A 
HETATM    7  C   UNL     1      67.756   6.788   5.907  1.00  0.00     0.069 C 
ENDROOT
BRANCH   3   8
HETATM    8  C   UNL     1      63.524   8.965   4.660  1.00  0.00    -0.002 A 
HETATM    9  C   UNL     1      63.228  10.184   5.294  1.00  0.00     0.014 A 
HETATM   10  C   UNL     1      62.415  11.136   4.672  1.00  0.00     0.001 A 
HETATM   11  C   UNL     1      61.878  10.881   3.413  1.00  0.00     0.000 A 
HETATM   12  C   UNL     1      62.140   9.667   2.780  1.00  0.00     0.001 A 
HETATM   13  C   UNL     1      62.951   8.715   3.403  1.00  0.00     0.014 A 
ENDBRANCH   3   8
BRANCH   5  14
HETATM   14  C   UNL     1      65.560   4.904   7.390  1.00  0.00     0.212 C 
BRANCH  14  15
HETATM   15  O   UNL     1      66.010   5.355   8.661  1.00  0.00    -0.396 OA
HETATM   16  H   UNL     1      65.256   5.411   9.269  1.00  0.00     0.209 HD
ENDBRANCH  14  15
ENDBRANCH   5  14
TORSDOF 3
ENDMDL
MODEL 3
REMARK VINA RESULT:      -5.0      2.196      2.542
REMARK  3 active torsions:
REMARK  status: ('A' for Active; 'I' for Inactive)
REMARK    1  A    between atoms: C_3  and  C_7 
REMARK    2  A    between atoms: C_5  and  C_8 
REMARK    3  A    between atoms: C_8  and  O_10 
ROOT
HETATM    1  N   UNL     1      64.739   7.755   6.451  1.00  0.00    -0.353 N 
ATOM      2  HN  UNL     1      64.282   8.297   7.184  1.00  0.00     0.166 HD
HETATM    3  C   UNL     1      64.543   7.930   5.159  1.00  0.00     0.085 A 
HETATM    4  S   UNL     1      65.431   6.851   4.154  1.00  0.00    -0.072 SA
HETATM    5  C   UNL     1      66.132   6.121   5.535  1.00  0.00     0.030 A 
HETATM    6  C   UNL     1      65.651   6.734   6.679  1.00  0.00     0.021 A 
HETATM    7  C   UNL     1      65.996   6.420   8.091  1.00  0.00     0.069 C 
ENDROOT
BRANCH   3   8
HETATM    8  C   UNL     1      63.598   8.901   4.584  1.00  0.00    -0.002 A 
HETATM    9  C   UNL     1      63.261  10.102   5.233  1.00  0.00     0.014 A 
HETATM   10  C   UNL     1      62.389  11.017   4.638  1.00  0.00     0.001 A 
HETATM   11  C   UNL     1      61.832  10.743   3.391  1.00  0.00     0.000 A 
HETATM   12  C   UNL     1      62.135   9.546   2.744  1.00  0.00     0.001 A 
HETATM   13  C   UNL     1      63.005   8.630   3.340  1.00  0.00     0.014 A 
ENDBRANCH   3   8
BRANCH   5  14
HETATM   14  C   UNL     1      67.089   4.993   5.381  1.00  0.00     0.212 C 
BRANCH  14  15
HETATM   15  O   UNL     1      67.593   5.033   4.053  1.00  0.00    -0.396 OA
HETATM   16  H   UNL     1      68.137   4.245   3.890  1.00  0.00     0.209 HD
ENDBRANCH  14  15
ENDBRANCH   5  14
TORSDOF 3
ENDMDL
MODEL 4
REMARK VINA RESULT:      -4.9      1.428      2.079
REMARK  3 active torsions:
REMARK  status: ('A' for Active; 'I' for Inactive)
REMARK    1  A    between atoms: C_3  and  C_7 
REMARK    2  A    between atoms: C_5  and  C_8 
REMARK    3  A    between atoms: C_8  and  O_10 
ROOT
HETATM    1  N   UNL     1      63.621   6.594   5.532  1.00  0.00    -0.353 N 
ATOM      2  HN  UNL     1      62.680   6.271   5.309  1.00  0.00     0.166 HD
HETATM    3  C   UNL     1      64.091   7.789   5.235  1.00  0.00     0.085 A 
HETATM    4  S   UNL     1      65.725   8.049   5.711  1.00  0.00    -0.072 SA
HETATM    5  C   UNL     1      65.796   6.469   6.369  1.00  0.00     0.030 A 
HETATM    6  C   UNL     1      64.580   5.835   6.188  1.00  0.00     0.021 A 
HETATM    7  C   UNL     1      64.202   4.459   6.608  1.00  0.00     0.069 C 
ENDROOT
BRANCH   3   8
HETATM    8  C   UNL     1      63.342   8.818   4.495  1.00  0.00    -0.002 A 
HETATM    9  C   UNL     1      62.893   8.623   3.177  1.00  0.00     0.014 A 
HETATM   10  C   UNL     1      62.152   9.609   2.520  1.00  0.00     0.001 A 
HETATM   11  C   UNL     1      61.857  10.807   3.164  1.00  0.00     0.000 A 
HETATM   12  C   UNL     1      62.315  11.029   4.462  1.00  0.00     0.001 A 
HETATM   13  C   UNL     1      63.058  10.044   5.118  1.00  0.00     0.014 A 
ENDBRANCH   3   8
BRANCH   5  14
HETATM   14  C   UNL     1      67.051   5.977   6.998  1.00  0.00     0.212 C 
BRANCH  14  15
HETATM   15  O   UNL     1      68.074   6.925   6.722  1.00  0.00    -0.396 OA
HETATM   16  H   UNL     1      68.846   6.738   7.279  1.00  0.00     0.209 HD
ENDBRANCH  14  15
ENDBRANCH   5  14
TORSDOF 3
ENDMDL
MODEL 5
REMARK VINA RESULT:      -4.8      2.721      5.818
REMARK  3 active torsions:
REMARK  status: ('A' for Active; 'I' for Inactive)
REMARK    1  A    between atoms: C_3  and  C_7 
REMARK    2  A    between atoms: C_5  and  C_8 
REMARK    3  A    between atoms: C_8  and  O_10 
ROOT
HETATM    1  N   UNL     1      64.099   9.504   5.507  1.00  0.00    -0.353 N 
ATOM      2  HN  UNL     1      64.512  10.041   6.269  1.00  0.00     0.166 HD
HETATM    3  C   UNL     1      64.498   8.303   5.138  1.00  0.00     0.085 A 
HETATM    4  S   UNL     1      63.633   7.647   3.802  1.00  0.00    -0.072 SA
HETATM    5  C   UNL     1      62.657   9.052   3.729  1.00  0.00     0.030 A 
HETATM    6  C   UNL     1      63.043   9.938   4.719  1.00  0.00     0.021 A 
HETATM    7  C   UNL     1      62.464  11.276   5.017  1.00  0.00     0.069 C 
ENDROOT
BRANCH   3   8
HETATM    8  C   UNL     1      65.629   7.579   5.741  1.00  0.00    -0.002 A 
HETATM    9  C   UNL     1      65.507   6.842   6.932  1.00  0.00     0.014 A 
HETATM   10  C   UNL     1      66.595   6.137   7.452  1.00  0.00     0.001 A 
HETATM   11  C   UNL     1      67.824   6.165   6.799  1.00  0.00     0.000 A 
HETATM   12  C   UNL     1      67.971   6.911   5.630  1.00  0.00     0.001 A 
HETATM   13  C   UNL     1      66.884   7.618   5.111  1.00  0.00     0.014 A 
ENDBRANCH   3   8
BRANCH   5  14
HETATM   14  C   UNL     1      61.597   9.174   2.692  1.00  0.00     0.212 C 
BRANCH  14  15
HETATM   15  O   UNL     1      60.352   8.876   3.309  1.00  0.00    -0.396 OA
HETATM   16  H   UNL     1      60.436   8.975   4.271  1.00  0.00     0.209 HD
ENDBRANCH  14  15
ENDBRANCH   5  14
TORSDOF 3
ENDMDL
MODEL 6
REMARK VINA RESULT:      -4.6      2.540      5.673
REMARK  3 active torsions:
REMARK  status: ('A' for Active; 'I' for Inactive)
REMARK    1  A    between atoms: C_3  and  C_7 
REMARK    2  A    between atoms: C_5  and  C_8 
REMARK    3  A    between atoms: C_8  and  O_10 
ROOT
HETATM    1  N   UNL     1      63.958   7.525   3.511  1.00  0.00    -0.353 N 
ATOM      2  HN  UNL     1      64.295   6.647   3.116  1.00  0.00     0.166 HD
HETATM    3  C   UNL     1      64.395   8.054   4.636  1.00  0.00     0.085 A 
HETATM    4  S   UNL     1      63.623   9.530   5.073  1.00  0.00    -0.072 SA
HETATM    5  C   UNL     1      62.660   9.459   3.659  1.00  0.00     0.030 A 
HETATM    6  C   UNL     1      62.976   8.321   2.938  1.00  0.00     0.021 A 
HETATM    7  C   UNL     1      62.387   7.869   1.649  1.00  0.00     0.069 C 
ENDROOT
BRANCH   3   8
HETATM    8  C   UNL     1      65.401   7.434   5.513  1.00  0.00    -0.002 A 
HETATM    9  C   UNL     1      65.066   6.826   6.736  1.00  0.00     0.014 A 
HETATM   10  C   UNL     1      66.045   6.214   7.522  1.00  0.00     0.001 A 
HETATM   11  C   UNL     1      67.374   6.207   7.107  1.00  0.00     0.000 A 
HETATM   12  C   UNL     1      67.729   6.826   5.909  1.00  0.00     0.001 A 
HETATM   13  C   UNL     1      66.750   7.441   5.123  1.00  0.00     0.014 A 
ENDBRANCH   3   8
BRANCH   5  14
HETATM   14  C   UNL     1      61.660  10.524   3.381  1.00  0.00     0.212 C 
BRANCH  14  15
HETATM   15  O   UNL     1      62.078  11.699   4.063  1.00  0.00    -0.396 OA
HETATM   16  H   UNL     1      62.731  11.464   4.742  1.00  0.00     0.209 HD
ENDBRANCH  14  15
ENDBRANCH   5  14
TORSDOF 3
ENDMDL
MODEL 7
REMARK VINA RESULT:      -4.2      4.332      5.016
REMARK  3 active torsions:
REMARK  status: ('A' for Active; 'I' for Inactive)
REMARK    1  A    between atoms: C_3  and  C_7 
REMARK    2  A    between atoms: C_5  and  C_8 
REMARK    3  A    between atoms: C_8  and  O_10 
ROOT
HETATM    1  N   UNL     1      60.253   8.733   3.326  1.00  0.00    -0.353 N 
ATOM      2  HN  UNL     1      59.818   9.455   2.752  1.00  0.00     0.166 HD
HETATM    3  C   UNL     1      59.693   7.578   3.624  1.00  0.00     0.085 A 
HETATM    4  S   UNL     1      60.651   6.564   4.633  1.00  0.00    -0.072 SA
HETATM    5  C   UNL     1      61.896   7.740   4.653  1.00  0.00     0.030 A 
HETATM    6  C   UNL     1      61.514   8.834   3.897  1.00  0.00     0.021 A 
HETATM    7  C   UNL     1      62.289  10.077   3.641  1.00  0.00     0.069 C 
ENDROOT
BRANCH   3   8
HETATM    8  C   UNL     1      58.337   7.179   3.215  1.00  0.00    -0.002 A 
HETATM    9  C   UNL     1      57.325   6.876   4.143  1.00  0.00     0.014 A 
HETATM   10  C   UNL     1      56.039   6.539   3.715  1.00  0.00     0.001 A 
HETATM   11  C   UNL     1      55.745   6.488   2.355  1.00  0.00     0.000 A 
HETATM   12  C   UNL     1      56.741   6.760   1.419  1.00  0.00     0.001 A 
HETATM   13  C   UNL     1      58.029   7.095   1.847  1.00  0.00     0.014 A 
ENDBRANCH   3   8
BRANCH   5  14
HETATM   14  C   UNL     1      63.144   7.495   5.424  1.00  0.00     0.212 C 
BRANCH  14  15
HETATM   15  O   UNL     1      62.870   7.773   6.791  1.00  0.00    -0.396 OA
HETATM   16  H   UNL     1      61.912   7.740   6.941  1.00  0.00     0.209 HD
ENDBRANCH  14  15
ENDBRANCH   5  14
TORSDOF 3
ENDMDL
MODEL 8
REMARK VINA RESULT:      -4.1      2.137      2.162
REMARK  3 active torsions:
REMARK  status: ('A' for Active; 'I' for Inactive)
REMARK    1  A    between atoms: C_3  and  C_7 
REMARK    2  A    between atoms: C_5  and  C_8 
REMARK    3  A    between atoms: C_8  and  O_10 
ROOT
HETATM    1  N   UNL     1      62.901   6.952   5.084  1.00  0.00    -0.353 N 
ATOM      2  HN  UNL     1      62.347   7.398   5.815  1.00  0.00     0.166 HD
HETATM    3  C   UNL     1      63.168   7.495   3.913  1.00  0.00     0.085 A 
HETATM    4  S   UNL     1      64.105   6.499   2.866  1.00  0.00    -0.072 SA
HETATM    5  C   UNL     1      64.169   5.278   4.065  1.00  0.00     0.030 A 
HETATM    6  C   UNL     1      63.475   5.692   5.188  1.00  0.00     0.021 A 
HETATM    7  C   UNL     1      63.279   4.948   6.461  1.00  0.00     0.069 C 
ENDROOT
BRANCH   3   8
HETATM    8  C   UNL     1      62.667   8.805   3.468  1.00  0.00    -0.002 A 
HETATM    9  C   UNL     1      62.503   9.889   4.347  1.00  0.00     0.014 A 
HETATM   10  C   UNL     1      62.060  11.129   3.880  1.00  0.00     0.001 A 
HETATM   11  C   UNL     1      61.763  11.303   2.531  1.00  0.00     0.000 A 
HETATM   12  C   UNL     1      61.895  10.232   1.648  1.00  0.00     0.001 A 
HETATM   13  C   UNL     1      62.336   8.991   2.116  1.00  0.00     0.014 A 
ENDBRANCH   3   8
BRANCH   5  14
HETATM   14  C   UNL     1      64.885   4.003   3.797  1.00  0.00     0.212 C 
BRANCH  14  15
HETATM   15  O   UNL     1      66.246   4.318   3.534  1.00  0.00    -0.396 OA
HETATM   16  H   UNL     1      66.796   3.534   3.689  1.00  0.00     0.209 HD
ENDBRANCH  14  15
ENDBRANCH   5  14
TORSDOF 3
ENDMDL
MODEL 9
REMARK VINA RESULT:      -4.0      2.434      6.112
REMARK  3 active torsions:
REMARK  status: ('A' for Active; 'I' for Inactive)
REMARK    1  A    between atoms: C_3  and  C_7 
REMARK    2  A    between atoms: C_5  and  C_8 
REMARK    3  A    between atoms: C_8  and  O_10 
ROOT
HETATM    1  N   UNL     1      63.580   6.290   6.290  1.00  0.00    -0.353 N 
ATOM      2  HN  UNL     1      63.325   5.422   6.762  1.00  0.00     0.166 HD
HETATM    3  C   UNL     1      64.780   6.832   6.321  1.00  0.00     0.085 A 
HETATM    4  S   UNL     1      64.913   8.314   5.454  1.00  0.00    -0.072 SA
HETATM    5  C   UNL     1      63.265   8.208   4.998  1.00  0.00     0.030 A 
HETATM    6  C   UNL     1      62.708   7.058   5.530  1.00  0.00     0.021 A 
HETATM    7  C   UNL     1      61.310   6.573   5.383  1.00  0.00     0.069 C 
ENDROOT
BRANCH   3   8
HETATM    8  C   UNL     1      65.920   6.291   7.080  1.00  0.00    -0.002 A 
HETATM    9  C   UNL     1      66.282   6.778   8.348  1.00  0.00     0.014 A 
HETATM   10  C   UNL     1      67.346   6.213   9.054  1.00  0.00     0.001 A 
HETATM   11  C   UNL     1      68.072   5.161   8.502  1.00  0.00     0.000 A 
HETATM   12  C   UNL     1      67.744   4.681   7.235  1.00  0.00     0.001 A 
HETATM   13  C   UNL     1      66.681   5.248   6.527  1.00  0.00     0.014 A 
ENDBRANCH   3   8
BRANCH   5  14
HETATM   14  C   UNL     1      62.650   9.274   4.164  1.00  0.00     0.212 C 
BRANCH  14  15
HETATM   15  O   UNL     1      62.857   8.930   2.800  1.00  0.00    -0.396 OA
HETATM   16  H   UNL     1      62.016   8.990   2.320  1.00  0.00     0.209 HD
ENDBRANCH  14  15
ENDBRANCH   5  14
TORSDOF 3
ENDMDL
