MODEL 1
REMARK VINA RESULT:      -4.2      0.000      0.000
REMARK  1 active torsions:
REMARK  status: ('A' for Active; 'I' for Inactive)
REMARK    1  A    between atoms: C_1  and  C_4 
ROOT
HETATM    1  O   UNL     1      62.699   8.373   1.418  1.00  0.00    -0.391 OA
HETATM    2  C   UNL     1      62.066   9.877   3.794  1.00  0.00     0.091 C 
HETATM    3  C   UNL     1      62.808   7.735   2.689  1.00  0.00     0.168 C 
HETATM    4  C   UNL     1      61.635   9.321   1.381  1.00  0.00     0.168 C 
HETATM    5  C   UNL     1      63.109   8.752   3.779  1.00  0.00     0.041 C 
HETATM    6  C   UNL     1      61.880  10.439   2.381  1.00  0.00     0.041 C 
ENDROOT
BRANCH   2   7
HETATM    7  C   UNL     1      62.470  10.974   4.754  1.00  0.00     0.177 C 
HETATM    8  O   UNL     1      63.100  10.852   5.790  1.00  0.00    -0.648 OA
HETATM    9  O   UNL     1      62.010  12.184   4.379  1.00  0.00    -0.648 OA
ENDBRANCH   2   7
TORSDOF 1
ENDMDL
MODEL 2
REMARK VINA RESULT:      -4.0      1.343      3.554
REMARK  1 active torsions:
REMARK  status: ('A' for Active; 'I' for Inactive)
REMARK    1  A    between atoms: C_1  and  C_4 
ROOT
HETATM    1  O   UNL     1      64.064  10.032   5.694  1.00  0.00    -0.391 OA
HETATM    2  C   UNL     1      62.079   9.943   3.606  1.00  0.00     0.091 C 
HETATM    3  C   UNL     1      62.958  10.930   5.754  1.00  0.00     0.168 C 
HETATM    4  C   UNL     1      63.705   8.775   5.125  1.00  0.00     0.168 C 
HETATM    5  C   UNL     1      62.432  11.232   4.358  1.00  0.00     0.041 C 
HETATM    6  C   UNL     1      63.243   8.952   3.687  1.00  0.00     0.041 C 
ENDROOT
BRANCH   2   7
HETATM    7  C   UNL     1      61.731  10.239   2.164  1.00  0.00     0.177 C 
HETATM    8  O   UNL     1      61.316   9.454   1.330  1.00  0.00    -0.648 OA
HETATM    9  O   UNL     1      61.973  11.522   1.826  1.00  0.00    -0.648 OA
ENDBRANCH   2   7
TORSDOF 1
ENDMDL
MODEL 3
REMARK VINA RESULT:      -3.9      1.594      2.297
REMARK  1 active torsions:
REMARK  status: ('A' for Active; 'I' for Inactive)
REMARK    1  A    between atoms: C_1  and  C_4 
ROOT
HETATM    1  O   UNL     1      62.204  10.754   1.720  1.00  0.00    -0.391 OA
HETATM    2  C   UNL     1      62.320   9.419   4.271  1.00  0.00     0.091 C 
HETATM    3  C   UNL     1      62.041   9.338   1.766  1.00  0.00     0.168 C 
HETATM    4  C   UNL     1      61.657  11.397   2.869  1.00  0.00     0.168 C 
HETATM    5  C   UNL     1      62.770   8.751   2.966  1.00  0.00     0.041 C 
HETATM    6  C   UNL     1      62.377  10.943   4.129  1.00  0.00     0.041 C 
ENDROOT
BRANCH   2   7
HETATM    7  C   UNL     1      63.174   8.961   5.433  1.00  0.00     0.177 C 
HETATM    8  O   UNL     1      62.871   8.158   6.298  1.00  0.00    -0.648 OA
HETATM    9  O   UNL     1      64.369   9.584   5.474  1.00  0.00    -0.648 OA
ENDBRANCH   2   7
TORSDOF 1
ENDMDL
MODEL 4
REMARK VINA RESULT:      -3.9      0.874      2.028
REMARK  1 active torsions:
REMARK  status: ('A' for Active; 'I' for Inactive)
REMARK    1  A    between atoms: C_1  and  C_4 
ROOT
HETATM    1  O   UNL     1      61.123   7.898   1.768  1.00  0.00    -0.391 OA
HETATM    2  C   UNL     1      62.521   9.683   3.546  1.00  0.00     0.091 C 
HETATM    3  C   UNL     1      61.828   9.008   1.217  1.00  0.00     0.168 C 
HETATM    4  C   UNL     1      61.771   7.367   2.922  1.00  0.00     0.168 C 
HETATM    5  C   UNL     1      61.905  10.149   2.221  1.00  0.00     0.041 C 
HETATM    6  C   UNL     1      61.826   8.407   4.029  1.00  0.00     0.041 C 
ENDROOT
BRANCH   2   7
HETATM    7  C   UNL     1      62.429  10.769   4.595  1.00  0.00     0.177 C 
HETATM    8  O   UNL     1      61.931  11.874   4.471  1.00  0.00    -0.648 OA
HETATM    9  O   UNL     1      63.023  10.420   5.754  1.00  0.00    -0.648 OA
ENDBRANCH   2   7
TORSDOF 1
ENDMDL
MODEL 5
REMARK VINA RESULT:      -3.7      1.723      2.289
REMARK  1 active torsions:
REMARK  status: ('A' for Active; 'I' for Inactive)
REMARK    1  A    between atoms: C_1  and  C_4 
ROOT
HETATM    1  O   UNL     1      62.489   7.015   4.111  1.00  0.00    -0.391 OA
HETATM    2  C   UNL     1      61.741   9.791   3.910  1.00  0.00     0.091 C 
HETATM    3  C   UNL     1      62.926   7.923   5.120  1.00  0.00     0.168 C 
HETATM    4  C   UNL     1      61.201   7.356   3.603  1.00  0.00     0.168 C 
HETATM    5  C   UNL     1      63.052   9.332   4.560  1.00  0.00     0.041 C 
HETATM    6  C   UNL     1      61.234   8.722   2.938  1.00  0.00     0.041 C 
ENDROOT
BRANCH   2   7
HETATM    7  C   UNL     1      61.926  11.113   3.199  1.00  0.00     0.177 C 
HETATM    8  O   UNL     1      62.110  11.290   2.008  1.00  0.00    -0.648 OA
HETATM    9  O   UNL     1      61.917  12.162   4.047  1.00  0.00    -0.648 OA
ENDBRANCH   2   7
TORSDOF 1
ENDMDL
MODEL 6
REMARK VINA RESULT:      -3.7      2.223      3.294
REMARK  1 active torsions:
REMARK  status: ('A' for Active; 'I' for Inactive)
REMARK    1  A    between atoms: C_1  and  C_4 
ROOT
HETATM    1  O   UNL     1      61.517   8.979   3.364  1.00  0.00    -0.391 OA
HETATM    2  C   UNL     1      64.096   8.919   4.649  1.00  0.00     0.091 C 
HETATM    3  C   UNL     1      62.017  10.172   3.964  1.00  0.00     0.168 C 
HETATM    4  C   UNL     1      62.557   8.182   2.803  1.00  0.00     0.168 C 
HETATM    5  C   UNL     1      62.962   9.843   5.110  1.00  0.00     0.041 C 
HETATM    6  C   UNL     1      63.521   7.722   3.886  1.00  0.00     0.041 C 
ENDROOT
BRANCH   2   7
HETATM    7  C   UNL     1      64.924   8.453   5.826  1.00  0.00     0.177 C 
HETATM    8  O   UNL     1      66.006   8.883   6.182  1.00  0.00    -0.648 OA
HETATM    9  O   UNL     1      64.358   7.417   6.477  1.00  0.00    -0.648 OA
ENDBRANCH   2   7
TORSDOF 1
ENDMDL
MODEL 7
REMARK VINA RESULT:      -3.6      1.578      2.470
REMARK  1 active torsions:
REMARK  status: ('A' for Active; 'I' for Inactive)
REMARK    1  A    between atoms: C_1  and  C_4 
ROOT
HETATM    1  O   UNL     1      62.146   6.781   4.049  1.00  0.00    -0.391 OA
HETATM    2  C   UNL     1      62.724   9.603   4.132  1.00  0.00     0.091 C 
HETATM    3  C   UNL     1      61.536   7.639   3.087  1.00  0.00     0.168 C 
HETATM    4  C   UNL     1      63.457   7.214   4.403  1.00  0.00     0.168 C 
HETATM    5  C   UNL     1      61.381   9.047   3.643  1.00  0.00     0.041 C 
HETATM    6  C   UNL     1      63.409   8.588   5.052  1.00  0.00     0.041 C 
ENDROOT
BRANCH   2   7
HETATM    7  C   UNL     1      62.533  10.923   4.845  1.00  0.00     0.177 C 
HETATM    8  O   UNL     1      61.890  11.883   4.459  1.00  0.00    -0.648 OA
HETATM    9  O   UNL     1      63.214  10.986   6.007  1.00  0.00    -0.648 OA
ENDBRANCH   2   7
TORSDOF 1
ENDMDL
MODEL 8
REMARK VINA RESULT:      -3.6      6.212      7.519
REMARK  1 active torsions:
REMARK  status: ('A' for Active; 'I' for Inactive)
REMARK    1  A    between atoms: C_1  and  C_4 
ROOT
HETATM    1  O   UNL     1      67.543   4.362   8.837  1.00  0.00    -0.391 OA
HETATM    2  C   UNL     1      67.006   6.695   7.233  1.00  0.00     0.091 C 
HETATM    3  C   UNL     1      67.561   4.242   7.417  1.00  0.00     0.168 C 
HETATM    4  C   UNL     1      68.014   5.634   9.276  1.00  0.00     0.168 C 
HETATM    5  C   UNL     1      66.646   5.276   6.776  1.00  0.00     0.041 C 
HETATM    6  C   UNL     1      67.113   6.745   8.760  1.00  0.00     0.041 C 
ENDROOT
BRANCH   2   7
HETATM    7  C   UNL     1      65.984   7.696   6.738  1.00  0.00     0.177 C 
HETATM    8  O   UNL     1      66.193   8.831   6.348  1.00  0.00    -0.648 OA
HETATM    9  O   UNL     1      64.723   7.223   6.807  1.00  0.00    -0.648 OA
ENDBRANCH   2   7
TORSDOF 1
ENDMDL
MODEL 9
REMARK VINA RESULT:      -3.4      5.309      6.510
REMARK  1 active torsions:
REMARK  status: ('A' for Active; 'I' for Inactive)
REMARK    1  A    between atoms: C_1  and  C_4 
ROOT
HETATM    1  O   UNL     1      66.261   4.466   7.991  1.00  0.00    -0.391 OA
HETATM    2  C   UNL     1      65.599   7.086   6.991  1.00  0.00     0.091 C 
HETATM    3  C   UNL     1      66.432   5.595   8.845  1.00  0.00     0.168 C 
HETATM    4  C   UNL     1      65.145   4.618   7.116  1.00  0.00     0.168 C 
HETATM    5  C   UNL     1      66.701   6.852   8.031  1.00  0.00     0.041 C 
HETATM    6  C   UNL     1      65.351   5.805   6.189  1.00  0.00     0.041 C 
ENDROOT
BRANCH   2   7
HETATM    7  C   UNL     1      65.963   8.229   6.068  1.00  0.00     0.177 C 
HETATM    8  O   UNL     1      65.231   9.118   5.672  1.00  0.00    -0.648 OA
HETATM    9  O   UNL     1      67.242   8.165   5.646  1.00  0.00    -0.648 OA
ENDBRANCH   2   7
TORSDOF 1
ENDMDL
