MODEL 1
REMARK VINA RESULT:      -5.2      0.000      0.000
REMARK  4 active torsions:
REMARK  status: ('A' for Active; 'I' for Inactive)
REMARK    1  A    between atoms: N_1  and  C_3 
REMARK    2  A    between atoms: C_3  and  C_4 
REMARK    3  A    between atoms: C_5  and  C_15 
REMARK    4  A    between atoms: O_12  and  C_15 
ROOT
HETATM    1  C   UNL     1      62.040   9.072   2.880  1.00  0.00    -0.033 A 
HETATM    2  C   UNL     1      62.876  10.675   5.038  1.00  0.00    -0.035 A 
HETATM    3  C   UNL     1      62.870   8.544   3.878  1.00  0.00     0.009 A 
HETATM    4  C   UNL     1      61.712  10.432   2.920  1.00  0.00     0.009 A 
HETATM    5  C   UNL     1      62.121  11.223   3.994  1.00  0.00     0.010 A 
HETATM    6  C   UNL     1      63.283   9.338   4.951  1.00  0.00     0.010 A 
ENDROOT
BRANCH   1   7
HETATM    7  C   UNL     1      61.432   8.158   1.826  1.00  0.00     0.273 C 
BRANCH   7   8
HETATM    8  N   UNL     1      59.964   8.224   1.836  1.00  0.00    -0.063 N 
HETATM    9  C   UNL     1      59.341   7.928   0.528  1.00  0.00     0.261 C 
HETATM   10  C   UNL     1      59.190   6.434   0.200  1.00  0.00     0.195 C 
HETATM   11  O   UNL     1      58.519   5.733   1.251  1.00  0.00    -0.388 OA
HETATM   12  C   UNL     1      59.231   5.885   2.483  1.00  0.00     0.195 C 
HETATM   13  C   UNL     1      59.364   7.366   2.873  1.00  0.00     0.261 C 
HETATM   14  H   UNL     1      59.764   9.200   2.058  1.00  0.00     0.280 HD
ENDBRANCH   7   8
ENDBRANCH   1   7
BRANCH   2  15
HETATM   15  C   UNL     1      63.186  11.476   6.273  1.00  0.00     0.202 C 
BRANCH  15  16
HETATM   16  O   UNL     1      64.591  11.497   6.510  1.00  0.00    -0.396 OA
HETATM   17  H   UNL     1      64.765  11.275   7.439  1.00  0.00     0.209 HD
ENDBRANCH  15  16
ENDBRANCH   2  15
TORSDOF 4
ENDMDL
MODEL 2
REMARK VINA RESULT:      -5.2      3.850      6.338
REMARK  4 active torsions:
REMARK  status: ('A' for Active; 'I' for Inactive)
REMARK    1  A    between atoms: N_1  and  C_3 
REMARK    2  A    between atoms: C_3  and  C_4 
REMARK    3  A    between atoms: C_5  and  C_15 
REMARK    4  A    between atoms: O_12  and  C_15 
ROOT
HETATM    1  C   UNL     1      63.721   8.286   4.669  1.00  0.00    -0.033 A 
HETATM    2  C   UNL     1      62.290  10.478   3.631  1.00  0.00    -0.035 A 
HETATM    3  C   UNL     1      63.170   8.230   3.381  1.00  0.00     0.009 A 
HETATM    4  C   UNL     1      63.468   9.407   5.467  1.00  0.00     0.009 A 
HETATM    5  C   UNL     1      62.764  10.496   4.949  1.00  0.00     0.010 A 
HETATM    6  C   UNL     1      62.462   9.318   2.864  1.00  0.00     0.010 A 
ENDROOT
BRANCH   1   7
HETATM    7  C   UNL     1      64.656   7.185   5.150  1.00  0.00     0.273 C 
BRANCH   7   8
HETATM    8  N   UNL     1      65.423   7.608   6.330  1.00  0.00    -0.063 N 
HETATM    9  C   UNL     1      65.455   6.605   7.416  1.00  0.00     0.261 C 
HETATM   10  C   UNL     1      66.494   5.486   7.241  1.00  0.00     0.195 C 
HETATM   11  O   UNL     1      67.801   6.017   7.005  1.00  0.00    -0.388 OA
HETATM   12  C   UNL     1      67.794   6.852   5.843  1.00  0.00     0.195 C 
HETATM   13  C   UNL     1      66.800   8.015   5.996  1.00  0.00     0.261 C 
HETATM   14  H   UNL     1      64.914   8.420   6.677  1.00  0.00     0.280 HD
ENDBRANCH   7   8
ENDBRANCH   1   7
BRANCH   2  15
HETATM   15  C   UNL     1      61.673  11.703   3.014  1.00  0.00     0.202 C 
BRANCH  15  16
HETATM   16  O   UNL     1      62.177  11.901   1.696  1.00  0.00    -0.396 OA
HETATM   17  H   UNL     1      62.361  12.844   1.559  1.00  0.00     0.209 HD
ENDBRANCH  15  16
ENDBRANCH   2  15
TORSDOF 4
ENDMDL
MODEL 3
REMARK VINA RESULT:      -4.8      4.643      7.003
REMARK  4 active torsions:
REMARK  status: ('A' for Active; 'I' for Inactive)
REMARK    1  A    between atoms: N_1  and  C_3 
REMARK    2  A    between atoms: C_3  and  C_4 
REMARK    3  A    between atoms: C_5  and  C_15 
REMARK    4  A    between atoms: O_12  and  C_15 
ROOT
HETATM    1  C   UNL     1      65.152   7.558   4.950  1.00  0.00    -0.033 A 
HETATM    2  C   UNL     1      62.888   8.614   3.651  1.00  0.00    -0.035 A 
HETATM    3  C   UNL     1      64.580   8.763   5.383  1.00  0.00     0.009 A 
HETATM    4  C   UNL     1      64.641   6.939   3.804  1.00  0.00     0.009 A 
HETATM    5  C   UNL     1      63.514   7.460   3.165  1.00  0.00     0.010 A 
HETATM    6  C   UNL     1      63.456   9.286   4.741  1.00  0.00     0.010 A 
ENDROOT
BRANCH   1   7
HETATM    7  C   UNL     1      66.247   6.892   5.771  1.00  0.00     0.273 C 
BRANCH   7   8
HETATM    8  N   UNL     1      65.769   6.525   7.111  1.00  0.00    -0.063 N 
HETATM    9  C   UNL     1      65.361   5.108   7.235  1.00  0.00     0.261 C 
HETATM   10  C   UNL     1      66.513   4.116   7.463  1.00  0.00     0.195 C 
HETATM   11  O   UNL     1      67.330   4.506   8.570  1.00  0.00    -0.388 OA
HETATM   12  C   UNL     1      67.861   5.818   8.356  1.00  0.00     0.195 C 
HETATM   13  C   UNL     1      66.740   6.853   8.170  1.00  0.00     0.261 C 
HETATM   14  H   UNL     1      64.934   7.097   7.239  1.00  0.00     0.280 HD
ENDBRANCH   7   8
ENDBRANCH   1   7
BRANCH   2  15
HETATM   15  C   UNL     1      61.586   9.092   3.067  1.00  0.00     0.202 C 
BRANCH  15  16
HETATM   16  O   UNL     1      61.191  10.317   3.677  1.00  0.00    -0.396 OA
HETATM   17  H   UNL     1      61.310  11.046   3.047  1.00  0.00     0.209 HD
ENDBRANCH  15  16
ENDBRANCH   2  15
TORSDOF 4
ENDMDL
MODEL 4
REMARK VINA RESULT:      -4.5      2.373      2.824
REMARK  4 active torsions:
REMARK  status: ('A' for Active; 'I' for Inactive)
REMARK    1  A    between atoms: N_1  and  C_3 
REMARK    2  A    between atoms: C_3  and  C_4 
REMARK    3  A    between atoms: C_5  and  C_15 
REMARK    4  A    between atoms: O_12  and  C_15 
ROOT
HETATM    1  C   UNL     1      62.457   8.366   3.044  1.00  0.00    -0.033 A 
HETATM    2  C   UNL     1      62.911  10.391   4.946  1.00  0.00    -0.035 A 
HETATM    3  C   UNL     1      63.434   8.205   4.035  1.00  0.00     0.009 A 
HETATM    4  C   UNL     1      61.779   9.587   2.953  1.00  0.00     0.009 A 
HETATM    5  C   UNL     1      62.000  10.587   3.902  1.00  0.00     0.010 A 
HETATM    6  C   UNL     1      63.659   9.207   4.982  1.00  0.00     0.010 A 
ENDROOT
BRANCH   1   7
HETATM    7  C   UNL     1      62.079   7.199   2.143  1.00  0.00     0.273 C 
BRANCH   7   8
HETATM    8  N   UNL     1      62.906   6.016   2.418  1.00  0.00    -0.063 N 
HETATM    9  C   UNL     1      62.138   4.844   2.892  1.00  0.00     0.261 C 
HETATM   10  C   UNL     1      61.464   4.016   1.787  1.00  0.00     0.195 C 
HETATM   11  O   UNL     1      62.400   3.632   0.775  1.00  0.00    -0.388 OA
HETATM   12  C   UNL     1      63.012   4.791   0.201  1.00  0.00     0.195 C 
HETATM   13  C   UNL     1      63.740   5.626   1.267  1.00  0.00     0.261 C 
HETATM   14  H   UNL     1      63.515   6.313   3.181  1.00  0.00     0.280 HD
ENDBRANCH   7   8
ENDBRANCH   1   7
BRANCH   2  15
HETATM   15  C   UNL     1      63.040  11.395   6.060  1.00  0.00     0.202 C 
BRANCH  15  16
HETATM   16  O   UNL     1      64.409  11.565   6.418  1.00  0.00    -0.396 OA
HETATM   17  H   UNL     1      64.958  10.966   5.888  1.00  0.00     0.209 HD
ENDBRANCH  15  16
ENDBRANCH   2  15
TORSDOF 4
ENDMDL
MODEL 5
REMARK VINA RESULT:      -4.3      5.126      6.516
REMARK  4 active torsions:
REMARK  status: ('A' for Active; 'I' for Inactive)
REMARK    1  A    between atoms: N_1  and  C_3 
REMARK    2  A    between atoms: C_3  and  C_4 
REMARK    3  A    between atoms: C_5  and  C_15 
REMARK    4  A    between atoms: O_12  and  C_15 
ROOT
HETATM    1  C   UNL     1      66.277   7.050   6.047  1.00  0.00    -0.033 A 
HETATM    2  C   UNL     1      67.519   5.289   7.859  1.00  0.00    -0.035 A 
HETATM    3  C   UNL     1      66.657   5.764   5.641  1.00  0.00     0.009 A 
HETATM    4  C   UNL     1      66.610   7.480   7.337  1.00  0.00     0.009 A 
HETATM    5  C   UNL     1      67.219   6.604   8.236  1.00  0.00     0.010 A 
HETATM    6  C   UNL     1      67.271   4.888   6.540  1.00  0.00     0.010 A 
ENDROOT
BRANCH   1   7
HETATM    7  C   UNL     1      65.433   7.925   5.131  1.00  0.00     0.273 C 
BRANCH   7   8
HETATM    8  N   UNL     1      64.207   8.381   5.800  1.00  0.00    -0.063 N 
HETATM    9  C   UNL     1      63.554   9.531   5.137  1.00  0.00     0.261 C 
HETATM   10  C   UNL     1      62.668   9.173   3.933  1.00  0.00     0.195 C 
HETATM   11  O   UNL     1      61.705   8.170   4.272  1.00  0.00    -0.388 OA
HETATM   12  C   UNL     1      62.362   6.993   4.751  1.00  0.00     0.195 C 
HETATM   13  C   UNL     1      63.224   7.298   5.987  1.00  0.00     0.261 C 
HETATM   14  H   UNL     1      64.529   8.696   6.715  1.00  0.00     0.280 HD
ENDBRANCH   7   8
ENDBRANCH   1   7
BRANCH   2  15
HETATM   15  C   UNL     1      68.028   4.293   8.864  1.00  0.00     0.202 C 
BRANCH  15  16
HETATM   16  O   UNL     1      67.150   3.173   8.941  1.00  0.00    -0.396 OA
HETATM   17  H   UNL     1      67.437   2.585   9.657  1.00  0.00     0.209 HD
ENDBRANCH  15  16
ENDBRANCH   2  15
TORSDOF 4
ENDMDL
MODEL 6
REMARK VINA RESULT:      -4.2      1.799      2.710
REMARK  4 active torsions:
REMARK  status: ('A' for Active; 'I' for Inactive)
REMARK    1  A    between atoms: N_1  and  C_3 
REMARK    2  A    between atoms: C_3  and  C_4 
REMARK    3  A    between atoms: C_5  and  C_15 
REMARK    4  A    between atoms: O_12  and  C_15 
ROOT
HETATM    1  C   UNL     1      62.728   8.302   3.230  1.00  0.00    -0.033 A 
HETATM    2  C   UNL     1      64.900   7.961   4.988  1.00  0.00    -0.035 A 
HETATM    3  C   UNL     1      63.616   7.230   3.064  1.00  0.00     0.009 A 
HETATM    4  C   UNL     1      62.991   9.254   4.221  1.00  0.00     0.009 A 
HETATM    5  C   UNL     1      64.065   9.079   5.097  1.00  0.00     0.010 A 
HETATM    6  C   UNL     1      64.692   7.059   3.937  1.00  0.00     0.010 A 
ENDROOT
BRANCH   1   7
HETATM    7  C   UNL     1      61.450   8.373   2.406  1.00  0.00     0.273 C 
BRANCH   7   8
HETATM    8  N   UNL     1      60.717   7.099   2.437  1.00  0.00    -0.063 N 
HETATM    9  C   UNL     1      59.909   6.901   3.659  1.00  0.00     0.261 C 
HETATM   10  C   UNL     1      58.538   7.596   3.655  1.00  0.00     0.195 C 
HETATM   11  O   UNL     1      57.783   7.257   2.488  1.00  0.00    -0.388 OA
HETATM   12  C   UNL     1      58.507   7.615   1.307  1.00  0.00     0.195 C 
HETATM   13  C   UNL     1      59.868   6.903   1.248  1.00  0.00     0.261 C 
HETATM   14  H   UNL     1      61.453   6.392   2.437  1.00  0.00     0.280 HD
ENDBRANCH   7   8
ENDBRANCH   1   7
BRANCH   2  15
HETATM   15  C   UNL     1      65.959   7.683   6.020  1.00  0.00     0.202 C 
BRANCH  15  16
HETATM   16  O   UNL     1      66.410   8.900   6.607  1.00  0.00    -0.396 OA
HETATM   17  H   UNL     1      67.144   8.714   7.214  1.00  0.00     0.209 HD
ENDBRANCH  15  16
ENDBRANCH   2  15
TORSDOF 4
ENDMDL
MODEL 7
REMARK VINA RESULT:      -4.1      5.074      7.169
REMARK  4 active torsions:
REMARK  status: ('A' for Active; 'I' for Inactive)
REMARK    1  A    between atoms: N_1  and  C_3 
REMARK    2  A    between atoms: C_3  and  C_4 
REMARK    3  A    between atoms: C_5  and  C_15 
REMARK    4  A    between atoms: O_12  and  C_15 
ROOT
HETATM    1  C   UNL     1      64.426   7.027   6.244  1.00  0.00    -0.033 A 
HETATM    2  C   UNL     1      62.866   8.452   4.383  1.00  0.00    -0.035 A 
HETATM    3  C   UNL     1      63.087   6.676   6.021  1.00  0.00     0.009 A 
HETATM    4  C   UNL     1      64.947   8.155   5.600  1.00  0.00     0.009 A 
HETATM    5  C   UNL     1      64.175   8.856   4.672  1.00  0.00     0.010 A 
HETATM    6  C   UNL     1      62.313   7.381   5.096  1.00  0.00     0.010 A 
ENDROOT
BRANCH   1   7
HETATM    7  C   UNL     1      65.319   6.139   7.098  1.00  0.00     0.273 C 
BRANCH   7   8
HETATM    8  N   UNL     1      66.647   5.967   6.491  1.00  0.00    -0.063 N 
HETATM    9  C   UNL     1      67.748   5.876   7.475  1.00  0.00     0.261 C 
HETATM   10  C   UNL     1      67.946   4.488   8.105  1.00  0.00     0.195 C 
HETATM   11  O   UNL     1      68.074   3.472   7.106  1.00  0.00    -0.388 OA
HETATM   12  C   UNL     1      66.917   3.457   6.263  1.00  0.00     0.195 C 
HETATM   13  C   UNL     1      66.709   4.815   5.574  1.00  0.00     0.261 C 
HETATM   14  H   UNL     1      66.785   6.824   5.955  1.00  0.00     0.280 HD
ENDBRANCH   7   8
ENDBRANCH   1   7
BRANCH   2  15
HETATM   15  C   UNL     1      62.083   9.101   3.274  1.00  0.00     0.202 C 
BRANCH  15  16
HETATM   16  O   UNL     1      61.274  10.155   3.790  1.00  0.00    -0.396 OA
HETATM   17  H   UNL     1      60.446   9.786   4.138  1.00  0.00     0.209 HD
ENDBRANCH  15  16
ENDBRANCH   2  15
TORSDOF 4
ENDMDL
MODEL 8
REMARK VINA RESULT:      -4.0      3.396      4.432
REMARK  4 active torsions:
REMARK  status: ('A' for Active; 'I' for Inactive)
REMARK    1  A    between atoms: N_1  and  C_3 
REMARK    2  A    between atoms: C_3  and  C_4 
REMARK    3  A    between atoms: C_5  and  C_15 
REMARK    4  A    between atoms: O_12  and  C_15 
ROOT
HETATM    1  C   UNL     1      64.295   7.432   4.796  1.00  0.00    -0.033 A 
HETATM    2  C   UNL     1      65.809   6.798   7.083  1.00  0.00    -0.035 A 
HETATM    3  C   UNL     1      65.389   8.226   5.168  1.00  0.00     0.009 A 
HETATM    4  C   UNL     1      63.908   6.378   5.630  1.00  0.00     0.009 A 
HETATM    5  C   UNL     1      64.664   6.061   6.760  1.00  0.00     0.010 A 
HETATM    6  C   UNL     1      66.143   7.911   6.301  1.00  0.00     0.010 A 
ENDROOT
BRANCH   1   7
HETATM    7  C   UNL     1      63.604   7.659   3.459  1.00  0.00     0.273 C 
BRANCH   7   8
HETATM    8  N   UNL     1      62.312   8.339   3.629  1.00  0.00    -0.063 N 
HETATM    9  C   UNL     1      62.231   9.652   2.953  1.00  0.00     0.261 C 
HETATM   10  C   UNL     1      61.911   9.593   1.451  1.00  0.00     0.195 C 
HETATM   11  O   UNL     1      60.735   8.820   1.195  1.00  0.00    -0.388 OA
HETATM   12  C   UNL     1      60.895   7.492   1.704  1.00  0.00     0.195 C 
HETATM   13  C   UNL     1      61.171   7.502   3.217  1.00  0.00     0.261 C 
HETATM   14  H   UNL     1      62.252   8.506   4.633  1.00  0.00     0.280 HD
ENDBRANCH   7   8
ENDBRANCH   1   7
BRANCH   2  15
HETATM   15  C   UNL     1      66.716   6.368   8.204  1.00  0.00     0.202 C 
BRANCH  15  16
HETATM   16  O   UNL     1      66.170   5.236   8.875  1.00  0.00    -0.396 OA
HETATM   17  H   UNL     1      66.839   4.859   9.469  1.00  0.00     0.209 HD
ENDBRANCH  15  16
ENDBRANCH   2  15
TORSDOF 4
ENDMDL
MODEL 9
REMARK VINA RESULT:      -4.0      4.216      5.616
REMARK  4 active torsions:
REMARK  status: ('A' for Active; 'I' for Inactive)
REMARK    1  A    between atoms: N_1  and  C_3 
REMARK    2  A    between atoms: C_3  and  C_4 
REMARK    3  A    between atoms: C_5  and  C_15 
REMARK    4  A    between atoms: O_12  and  C_15 
ROOT
HETATM    1  C   UNL     1      63.156   7.356   5.049  1.00  0.00    -0.033 A 
HETATM    2  C   UNL     1      62.380   9.797   3.880  1.00  0.00    -0.035 A 
HETATM    3  C   UNL     1      63.828   8.544   5.370  1.00  0.00     0.009 A 
HETATM    4  C   UNL     1      62.158   7.385   4.069  1.00  0.00     0.009 A 
HETATM    5  C   UNL     1      61.770   8.597   3.495  1.00  0.00     0.010 A 
HETATM    6  C   UNL     1      63.442   9.756   4.793  1.00  0.00     0.010 A 
ENDROOT
BRANCH   1   7
HETATM    7  C   UNL     1      63.445   6.079   5.825  1.00  0.00     0.273 C 
BRANCH   7   8
HETATM    8  N   UNL     1      64.889   5.821   5.920  1.00  0.00    -0.063 N 
HETATM    9  C   UNL     1      65.283   5.049   7.118  1.00  0.00     0.261 C 
HETATM   10  C   UNL     1      65.100   3.527   7.002  1.00  0.00     0.195 C 
HETATM   11  O   UNL     1      65.742   3.010   5.833  1.00  0.00    -0.388 OA
HETATM   12  C   UNL     1      65.225   3.646   4.661  1.00  0.00     0.195 C 
HETATM   13  C   UNL     1      65.430   5.169   4.714  1.00  0.00     0.261 C 
HETATM   14  H   UNL     1      65.299   6.751   6.005  1.00  0.00     0.280 HD
ENDBRANCH   7   8
ENDBRANCH   1   7
BRANCH   2  15
HETATM   15  C   UNL     1      61.863  11.121   3.388  1.00  0.00     0.202 C 
BRANCH  15  16
HETATM   16  O   UNL     1      62.113  12.140   4.353  1.00  0.00    -0.396 OA
HETATM   17  H   UNL     1      61.356  12.746   4.387  1.00  0.00     0.209 HD
ENDBRANCH  15  16
ENDBRANCH   2  15
TORSDOF 4
ENDMDL
