MODEL 1
REMARK VINA RESULT:      -4.5      0.000      0.000
REMARK  2 active torsions:
REMARK  status: ('A' for Active; 'I' for Inactive)
REMARK    1  A    between atoms: C_6  and  C_9 
REMARK    2  A    between atoms: C_9  and  O_10 
ROOT
HETATM    1  N   UNL     1      66.417   6.385   4.677  1.00  0.00    -0.283 NA
HETATM    2  O   UNL     1      65.817   8.799   6.212  1.00  0.00    -0.341 OA
HETATM    3  C   UNL     1      65.280   7.188   4.421  1.00  0.00     0.044 A 
HETATM    4  C   UNL     1      65.026   8.363   5.171  1.00  0.00     0.090 A 
HETATM    5  C   UNL     1      67.421   7.113   5.473  1.00  0.00     0.130 C 
HETATM    6  C   UNL     1      66.755   7.811   6.662  1.00  0.00     0.166 C 
HETATM    7  C   UNL     1      66.966   5.624   3.557  1.00  0.00     0.116 C 
HETATM    8  C   UNL     1      63.931   9.185   4.892  1.00  0.00     0.039 A 
HETATM    9  C   UNL     1      64.322   6.834   3.459  1.00  0.00     0.026 A 
HETATM   10  C   UNL     1      63.026   8.831   3.896  1.00  0.00     0.003 A 
HETATM   11  C   UNL     1      63.212   7.645   3.193  1.00  0.00     0.002 A 
ENDROOT
BRANCH   6  12
HETATM   12  C   UNL     1      66.099   6.850   7.662  1.00  0.00     0.197 C 
BRANCH  12  13
HETATM   13  O   UNL     1      66.575   5.515   7.508  1.00  0.00    -0.398 OA
HETATM   14  H   UNL     1      66.558   5.273   6.569  1.00  0.00     0.209 HD
ENDBRANCH  12  13
ENDBRANCH   6  12
TORSDOF 2
ENDMDL
MODEL 2
REMARK VINA RESULT:      -4.4      2.737      3.318
REMARK  2 active torsions:
REMARK  status: ('A' for Active; 'I' for Inactive)
REMARK    1  A    between atoms: C_6  and  C_9 
REMARK    2  A    between atoms: C_9  and  O_10 
ROOT
HETATM    1  N   UNL     1      63.332   7.028   3.604  1.00  0.00    -0.283 NA
HETATM    2  O   UNL     1      63.063   8.944   5.794  1.00  0.00    -0.341 OA
HETATM    3  C   UNL     1      62.835   8.339   3.413  1.00  0.00     0.044 A 
HETATM    4  C   UNL     1      62.733   9.251   4.492  1.00  0.00     0.090 A 
HETATM    5  C   UNL     1      64.055   6.909   4.882  1.00  0.00     0.130 C 
HETATM    6  C   UNL     1      63.242   7.538   6.016  1.00  0.00     0.166 C 
HETATM    7  C   UNL     1      63.996   6.390   2.468  1.00  0.00     0.116 C 
HETATM    8  C   UNL     1      62.288  10.562   4.301  1.00  0.00     0.039 A 
HETATM    9  C   UNL     1      62.366   8.781   2.167  1.00  0.00     0.026 A 
HETATM   10  C   UNL     1      61.877  10.985   3.040  1.00  0.00     0.003 A 
HETATM   11  C   UNL     1      61.898  10.088   1.978  1.00  0.00     0.002 A 
ENDROOT
BRANCH   6  12
HETATM   12  C   UNL     1      61.895   6.850   6.275  1.00  0.00     0.197 C 
BRANCH  12  13
HETATM   13  O   UNL     1      61.903   5.489   5.852  1.00  0.00    -0.398 OA
HETATM   14  H   UNL     1      62.717   5.309   5.356  1.00  0.00     0.209 HD
ENDBRANCH  12  13
ENDBRANCH   6  12
TORSDOF 2
ENDMDL
MODEL 3
REMARK VINA RESULT:      -4.4      1.886      4.323
REMARK  2 active torsions:
REMARK  status: ('A' for Active; 'I' for Inactive)
REMARK    1  A    between atoms: C_6  and  C_9 
REMARK    2  A    between atoms: C_9  and  O_10 
ROOT
HETATM    1  N   UNL     1      65.480   5.294   5.270  1.00  0.00    -0.283 NA
HETATM    2  O   UNL     1      64.649   7.204   7.320  1.00  0.00    -0.341 OA
HETATM    3  C   UNL     1      66.191   5.469   6.481  1.00  0.00     0.044 A 
HETATM    4  C   UNL     1      65.753   6.391   7.464  1.00  0.00     0.090 A 
HETATM    5  C   UNL     1      64.118   5.846   5.362  1.00  0.00     0.130 C 
HETATM    6  C   UNL     1      64.151   7.248   5.976  1.00  0.00     0.166 C 
HETATM    7  C   UNL     1      65.562   3.983   4.629  1.00  0.00     0.116 C 
HETATM    8  C   UNL     1      66.423   6.535   8.682  1.00  0.00     0.039 A 
HETATM    9  C   UNL     1      67.389   4.789   6.745  1.00  0.00     0.026 A 
HETATM   10  C   UNL     1      67.582   5.806   8.933  1.00  0.00     0.003 A 
HETATM   11  C   UNL     1      68.075   4.948   7.956  1.00  0.00     0.002 A 
ENDROOT
BRANCH   6  12
HETATM   12  C   UNL     1      64.924   8.277   5.140  1.00  0.00     0.197 C 
BRANCH  12  13
HETATM   13  O   UNL     1      65.068   9.519   5.826  1.00  0.00    -0.398 OA
HETATM   14  H   UNL     1      65.359   9.354   6.736  1.00  0.00     0.209 HD
ENDBRANCH  12  13
ENDBRANCH   6  12
TORSDOF 2
ENDMDL
MODEL 4
REMARK VINA RESULT:      -4.4      2.899      3.991
REMARK  2 active torsions:
REMARK  status: ('A' for Active; 'I' for Inactive)
REMARK    1  A    between atoms: C_6  and  C_9 
REMARK    2  A    between atoms: C_9  and  O_10 
ROOT
HETATM    1  N   UNL     1      63.956   7.759   6.221  1.00  0.00    -0.283 NA
HETATM    2  O   UNL     1      62.720   9.138   3.961  1.00  0.00    -0.341 OA
HETATM    3  C   UNL     1      62.706   7.372   5.684  1.00  0.00     0.044 A 
HETATM    4  C   UNL     1      62.140   8.050   4.576  1.00  0.00     0.090 A 
HETATM    5  C   UNL     1      64.704   8.611   5.281  1.00  0.00     0.130 C 
HETATM    6  C   UNL     1      63.797   9.708   4.717  1.00  0.00     0.166 C 
HETATM    7  C   UNL     1      64.757   6.723   6.871  1.00  0.00     0.116 C 
HETATM    8  C   UNL     1      60.928   7.643   4.011  1.00  0.00     0.039 A 
HETATM    9  C   UNL     1      61.939   6.344   6.253  1.00  0.00     0.026 A 
HETATM   10  C   UNL     1      60.217   6.585   4.569  1.00  0.00     0.003 A 
HETATM   11  C   UNL     1      60.713   5.949   5.702  1.00  0.00     0.002 A 
ENDROOT
BRANCH   6  12
HETATM   12  C   UNL     1      63.266  10.684   5.776  1.00  0.00     0.197 C 
BRANCH  12  13
HETATM   13  O   UNL     1      64.318  11.415   6.401  1.00  0.00    -0.398 OA
HETATM   14  H   UNL     1      64.379  11.159   7.334  1.00  0.00     0.209 HD
ENDBRANCH  12  13
ENDBRANCH   6  12
TORSDOF 2
ENDMDL
MODEL 5
REMARK VINA RESULT:      -4.2      4.181      5.043
REMARK  2 active torsions:
REMARK  status: ('A' for Active; 'I' for Inactive)
REMARK    1  A    between atoms: C_6  and  C_9 
REMARK    2  A    between atoms: C_9  and  O_10 
ROOT
HETATM    1  N   UNL     1      62.015   7.545   1.832  1.00  0.00    -0.283 NA
HETATM    2  O   UNL     1      62.129   8.142   4.690  1.00  0.00    -0.341 OA
HETATM    3  C   UNL     1      61.985   8.867   2.336  1.00  0.00     0.044 A 
HETATM    4  C   UNL     1      62.060   9.125   3.727  1.00  0.00     0.090 A 
HETATM    5  C   UNL     1      62.516   6.596   2.841  1.00  0.00     0.130 C 
HETATM    6  C   UNL     1      61.826   6.834   4.186  1.00  0.00     0.166 C 
HETATM    7  C   UNL     1      62.562   7.351   0.490  1.00  0.00     0.116 C 
HETATM    8  C   UNL     1      62.078  10.429   4.228  1.00  0.00     0.039 A 
HETATM    9  C   UNL     1      61.821   9.978   1.496  1.00  0.00     0.026 A 
HETATM   10  C   UNL     1      61.966  11.513   3.363  1.00  0.00     0.003 A 
HETATM   11  C   UNL     1      61.817  11.286   1.999  1.00  0.00     0.002 A 
ENDROOT
BRANCH   6  12
HETATM   12  C   UNL     1      60.310   6.596   4.161  1.00  0.00     0.197 C 
BRANCH  12  13
HETATM   13  O   UNL     1      59.902   5.893   2.989  1.00  0.00    -0.398 OA
HETATM   14  H   UNL     1      58.987   6.130   2.772  1.00  0.00     0.209 HD
ENDBRANCH  12  13
ENDBRANCH   6  12
TORSDOF 2
ENDMDL
MODEL 6
REMARK VINA RESULT:      -4.0      3.168      5.434
REMARK  2 active torsions:
REMARK  status: ('A' for Active; 'I' for Inactive)
REMARK    1  A    between atoms: C_6  and  C_9 
REMARK    2  A    between atoms: C_9  and  O_10 
ROOT
HETATM    1  N   UNL     1      62.088   9.662   3.792  1.00  0.00    -0.283 NA
HETATM    2  O   UNL     1      62.630   7.257   2.222  1.00  0.00    -0.341 OA
HETATM    3  C   UNL     1      63.189   8.811   4.055  1.00  0.00     0.044 A 
HETATM    4  C   UNL     1      63.435   7.662   3.265  1.00  0.00     0.090 A 
HETATM    5  C   UNL     1      61.542   9.430   2.444  1.00  0.00     0.130 C 
HETATM    6  C   UNL     1      61.364   7.931   2.190  1.00  0.00     0.166 C 
HETATM    7  C   UNL     1      62.227  11.070   4.159  1.00  0.00     0.116 C 
HETATM    8  C   UNL     1      64.546   6.845   3.490  1.00  0.00     0.039 A 
HETATM    9  C   UNL     1      64.052   9.028   5.140  1.00  0.00     0.026 A 
HETATM   10  C   UNL     1      65.413   7.117   4.544  1.00  0.00     0.003 A 
HETATM   11  C   UNL     1      65.154   8.197   5.381  1.00  0.00     0.002 A 
ENDROOT
BRANCH   6  12
HETATM   12  C   UNL     1      60.359   7.253   3.130  1.00  0.00     0.197 C 
BRANCH  12  13
HETATM   13  O   UNL     1      59.399   8.177   3.638  1.00  0.00    -0.398 OA
HETATM   14  H   UNL     1      59.241   8.872   2.981  1.00  0.00     0.209 HD
ENDBRANCH  12  13
ENDBRANCH   6  12
TORSDOF 2
ENDMDL
MODEL 7
REMARK VINA RESULT:      -4.0      2.754      4.905
REMARK  2 active torsions:
REMARK  status: ('A' for Active; 'I' for Inactive)
REMARK    1  A    between atoms: C_6  and  C_9 
REMARK    2  A    between atoms: C_9  and  O_10 
ROOT
HETATM    1  N   UNL     1      62.059   7.528   2.952  1.00  0.00    -0.283 NA
HETATM    2  O   UNL     1      62.755   9.619   4.870  1.00  0.00    -0.341 OA
HETATM    3  C   UNL     1      63.322   7.589   3.588  1.00  0.00     0.044 A 
HETATM    4  C   UNL     1      63.623   8.605   4.527  1.00  0.00     0.090 A 
HETATM    5  C   UNL     1      61.060   8.345   3.661  1.00  0.00     0.130 C 
HETATM    6  C   UNL     1      61.633   9.728   3.983  1.00  0.00     0.166 C 
HETATM    7  C   UNL     1      61.582   6.211   2.535  1.00  0.00     0.116 C 
HETATM    8  C   UNL     1      64.851   8.644   5.194  1.00  0.00     0.039 A 
HETATM    9  C   UNL     1      64.353   6.689   3.280  1.00  0.00     0.026 A 
HETATM   10  C   UNL     1      65.835   7.704   4.903  1.00  0.00     0.003 A 
HETATM   11  C   UNL     1      65.592   6.739   3.931  1.00  0.00     0.002 A 
ENDROOT
BRANCH   6  12
HETATM   12  C   UNL     1      61.994  10.558   2.744  1.00  0.00     0.197 C 
BRANCH  12  13
HETATM   13  O   UNL     1      61.272  10.133   1.591  1.00  0.00    -0.398 OA
HETATM   14  H   UNL     1      60.403   9.798   1.859  1.00  0.00     0.209 HD
ENDBRANCH  12  13
ENDBRANCH   6  12
TORSDOF 2
ENDMDL
MODEL 8
REMARK VINA RESULT:      -4.0     12.207     13.424
REMARK  2 active torsions:
REMARK  status: ('A' for Active; 'I' for Inactive)
REMARK    1  A    between atoms: C_6  and  C_9 
REMARK    2  A    between atoms: C_9  and  O_10 
ROOT
HETATM    1  N   UNL     1      55.731   2.736  11.385  1.00  0.00    -0.283 NA
HETATM    2  O   UNL     1      55.496   1.729  14.118  1.00  0.00    -0.341 OA
HETATM    3  C   UNL     1      56.853   2.335  12.148  1.00  0.00     0.044 A 
HETATM    4  C   UNL     1      56.705   1.834  13.465  1.00  0.00     0.090 A 
HETATM    5  C   UNL     1      54.479   2.206  11.950  1.00  0.00     0.130 C 
HETATM    6  C   UNL     1      54.436   2.439  13.463  1.00  0.00     0.166 C 
HETATM    7  C   UNL     1      55.836   2.626   9.931  1.00  0.00     0.116 C 
HETATM    8  C   UNL     1      57.804   1.393  14.207  1.00  0.00     0.039 A 
HETATM    9  C   UNL     1      58.164   2.467  11.668  1.00  0.00     0.026 A 
HETATM   10  C   UNL     1      59.088   1.490  13.681  1.00  0.00     0.003 A 
HETATM   11  C   UNL     1      59.269   2.045  12.419  1.00  0.00     0.002 A 
ENDROOT
BRANCH   6  12
HETATM   12  C   UNL     1      54.439   3.920  13.866  1.00  0.00     0.197 C 
BRANCH  12  13
HETATM   13  O   UNL     1      53.808   4.740  12.885  1.00  0.00    -0.398 OA
HETATM   14  H   UNL     1      54.363   4.778  12.091  1.00  0.00     0.209 HD
ENDBRANCH  12  13
ENDBRANCH   6  12
TORSDOF 2
ENDMDL
MODEL 9
REMARK VINA RESULT:      -3.9      1.784      3.967
REMARK  2 active torsions:
REMARK  status: ('A' for Active; 'I' for Inactive)
REMARK    1  A    between atoms: C_6  and  C_9 
REMARK    2  A    between atoms: C_9  and  O_10 
ROOT
HETATM    1  N   UNL     1      64.433   6.682   4.065  1.00  0.00    -0.283 NA
HETATM    2  O   UNL     1      63.732   7.291   6.836  1.00  0.00    -0.341 OA
HETATM    3  C   UNL     1      65.377   6.638   5.118  1.00  0.00     0.044 A 
HETATM    4  C   UNL     1      65.003   6.921   6.454  1.00  0.00     0.090 A 
HETATM    5  C   UNL     1      63.053   6.651   4.580  1.00  0.00     0.130 C 
HETATM    6  C   UNL     1      62.890   7.648   5.731  1.00  0.00     0.166 C 
HETATM    7  C   UNL     1      64.671   5.814   2.913  1.00  0.00     0.116 C 
HETATM    8  C   UNL     1      65.920   6.833   7.505  1.00  0.00     0.039 A 
HETATM    9  C   UNL     1      66.735   6.371   4.886  1.00  0.00     0.026 A 
HETATM   10  C   UNL     1      67.251   6.515   7.247  1.00  0.00     0.003 A 
HETATM   11  C   UNL     1      67.661   6.304   5.935  1.00  0.00     0.002 A 
ENDROOT
BRANCH   6  12
HETATM   12  C   UNL     1      63.113   9.111   5.325  1.00  0.00     0.197 C 
BRANCH  12  13
HETATM   13  O   UNL     1      63.055   9.286   3.911  1.00  0.00    -0.398 OA
HETATM   14  H   UNL     1      62.528  10.072   3.703  1.00  0.00     0.209 HD
ENDBRANCH  12  13
ENDBRANCH   6  12
TORSDOF 2
ENDMDL
