MODEL 1
REMARK VINA RESULT:      -3.2      0.000      0.000
REMARK  1 active torsions:
REMARK  status: ('A' for Active; 'I' for Inactive)
REMARK    1  A    between atoms: C_2  and  O_5 
ROOT
HETATM    1  O   UNL     1      62.330  11.660   3.310  1.00  0.00    -0.391 OA
HETATM    2  C   UNL     1      61.901   8.933   2.512  1.00  0.00     0.122 C 
HETATM    3  C   UNL     1      62.549   9.299   3.843  1.00  0.00     0.058 C 
HETATM    4  C   UNL     1      62.043  10.066   1.500  1.00  0.00     0.058 C 
HETATM    5  C   UNL     1      62.095  10.674   4.315  1.00  0.00     0.170 C 
HETATM    6  C   UNL     1      61.614  11.395   2.103  1.00  0.00     0.170 C 
ENDROOT
BRANCH   2   7
HETATM    7  O   UNL     1      60.527   8.598   2.699  1.00  0.00    -0.395 OA
HETATM    8  H   UNL     1      60.323   7.783   2.214  1.00  0.00     0.210 HD
ENDBRANCH   2   7
TORSDOF 1
ENDMDL
MODEL 2
REMARK VINA RESULT:      -3.1      1.648      2.246
REMARK  1 active torsions:
REMARK  status: ('A' for Active; 'I' for Inactive)
REMARK    1  A    between atoms: C_2  and  O_5 
ROOT
HETATM    1  O   UNL     1      63.677  10.148   5.501  1.00  0.00    -0.391 OA
HETATM    2  C   UNL     1      61.962   9.684   3.242  1.00  0.00     0.122 C 
HETATM    3  C   UNL     1      63.083   8.723   3.624  1.00  0.00     0.058 C 
HETATM    4  C   UNL     1      62.224  11.082   3.793  1.00  0.00     0.058 C 
HETATM    5  C   UNL     1      63.392   8.804   5.113  1.00  0.00     0.170 C 
HETATM    6  C   UNL     1      62.578  11.030   5.272  1.00  0.00     0.170 C 
ENDROOT
BRANCH   2   7
HETATM    7  O   UNL     1      60.703   9.194   3.700  1.00  0.00    -0.395 OA
HETATM    8  H   UNL     1      60.597   8.269   3.425  1.00  0.00     0.210 HD
ENDBRANCH   2   7
TORSDOF 1
ENDMDL
MODEL 3
REMARK VINA RESULT:      -3.0      1.266      3.177
REMARK  1 active torsions:
REMARK  status: ('A' for Active; 'I' for Inactive)
REMARK    1  A    between atoms: C_2  and  O_5 
ROOT
HETATM    1  O   UNL     1      60.780   7.585   2.183  1.00  0.00    -0.391 OA
HETATM    2  C   UNL     1      62.176   9.979   2.943  1.00  0.00     0.122 C 
HETATM    3  C   UNL     1      62.024   9.552   1.487  1.00  0.00     0.058 C 
HETATM    4  C   UNL     1      62.030   8.786   3.883  1.00  0.00     0.058 C 
HETATM    5  C   UNL     1      60.778   8.700   1.291  1.00  0.00     0.170 C 
HETATM    6  C   UNL     1      60.783   7.979   3.555  1.00  0.00     0.170 C 
ENDROOT
BRANCH   2   7
HETATM    7  O   UNL     1      61.228  10.993   3.270  1.00  0.00    -0.395 OA
HETATM    8  H   UNL     1      61.451  11.810   2.797  1.00  0.00     0.210 HD
ENDBRANCH   2   7
TORSDOF 1
ENDMDL
MODEL 4
REMARK VINA RESULT:      -2.9      1.390      1.989
REMARK  1 active torsions:
REMARK  status: ('A' for Active; 'I' for Inactive)
REMARK    1  A    between atoms: C_2  and  O_5 
ROOT
HETATM    1  O   UNL     1      63.023   9.306   3.763  1.00  0.00    -0.391 OA
HETATM    2  C   UNL     1      61.584   9.251   1.276  1.00  0.00     0.122 C 
HETATM    3  C   UNL     1      62.531   8.131   1.694  1.00  0.00     0.058 C 
HETATM    4  C   UNL     1      61.923  10.554   1.994  1.00  0.00     0.058 C 
HETATM    5  C   UNL     1      62.646   8.045   3.210  1.00  0.00     0.170 C 
HETATM    6  C   UNL     1      62.069  10.333   3.492  1.00  0.00     0.170 C 
ENDROOT
BRANCH   2   7
HETATM    7  O   UNL     1      60.229   8.881   1.525  1.00  0.00    -0.395 OA
HETATM    8  H   UNL     1      60.096   7.953   1.276  1.00  0.00     0.210 HD
ENDBRANCH   2   7
TORSDOF 1
ENDMDL
MODEL 5
REMARK VINA RESULT:      -2.9      5.602      6.550
REMARK  1 active torsions:
REMARK  status: ('A' for Active; 'I' for Inactive)
REMARK    1  A    between atoms: C_2  and  O_5 
ROOT
HETATM    1  O   UNL     1      67.799   6.471   6.537  1.00  0.00    -0.391 OA
HETATM    2  C   UNL     1      65.444   7.814   5.585  1.00  0.00     0.122 C 
HETATM    3  C   UNL     1      65.426   6.914   6.816  1.00  0.00     0.058 C 
HETATM    4  C   UNL     1      66.613   7.469   4.668  1.00  0.00     0.058 C 
HETATM    5  C   UNL     1      66.797   6.860   7.477  1.00  0.00     0.170 C 
HETATM    6  C   UNL     1      67.916   7.387   5.449  1.00  0.00     0.170 C 
ENDROOT
BRANCH   2   7
HETATM    7  O   UNL     1      65.497   9.188   5.969  1.00  0.00    -0.395 OA
HETATM    8  H   UNL     1      66.150   9.300   6.678  1.00  0.00     0.210 HD
ENDBRANCH   2   7
TORSDOF 1
ENDMDL
MODEL 6
REMARK VINA RESULT:      -2.9      3.741      5.101
REMARK  1 active torsions:
REMARK  status: ('A' for Active; 'I' for Inactive)
REMARK    1  A    between atoms: C_2  and  O_5 
ROOT
HETATM    1  O   UNL     1      63.680   6.436   6.462  1.00  0.00    -0.391 OA
HETATM    2  C   UNL     1      64.537   8.720   4.944  1.00  0.00     0.122 C 
HETATM    3  C   UNL     1      63.091   8.235   4.939  1.00  0.00     0.058 C 
HETATM    4  C   UNL     1      65.492   7.598   5.338  1.00  0.00     0.058 C 
HETATM    5  C   UNL     1      62.754   7.497   6.227  1.00  0.00     0.170 C 
HETATM    6  C   UNL     1      65.022   6.899   6.605  1.00  0.00     0.170 C 
ENDROOT
BRANCH   2   7
HETATM    7  O   UNL     1      64.688   9.837   5.819  1.00  0.00    -0.395 OA
HETATM    8  H   UNL     1      63.881  10.375   5.800  1.00  0.00     0.210 HD
ENDBRANCH   2   7
TORSDOF 1
ENDMDL
MODEL 7
REMARK VINA RESULT:      -2.8      1.202      2.195
REMARK  1 active torsions:
REMARK  status: ('A' for Active; 'I' for Inactive)
REMARK    1  A    between atoms: C_2  and  O_5 
ROOT
HETATM    1  O   UNL     1      61.661  11.356   3.236  1.00  0.00    -0.391 OA
HETATM    2  C   UNL     1      61.813   8.551   2.632  1.00  0.00     0.122 C 
HETATM    3  C   UNL     1      61.396   9.586   1.593  1.00  0.00     0.058 C 
HETATM    4  C   UNL     1      61.582   9.069   4.049  1.00  0.00     0.058 C 
HETATM    5  C   UNL     1      61.991  10.952   1.907  1.00  0.00     0.170 C 
HETATM    6  C   UNL     1      62.170  10.461   4.225  1.00  0.00     0.170 C 
ENDROOT
BRANCH   2   7
HETATM    7  O   UNL     1      63.179   8.182   2.451  1.00  0.00    -0.395 OA
HETATM    8  H   UNL     1      63.732   8.979   2.446  1.00  0.00     0.210 HD
ENDBRANCH   2   7
TORSDOF 1
ENDMDL
MODEL 8
REMARK VINA RESULT:      -2.8      4.455      5.321
REMARK  1 active torsions:
REMARK  status: ('A' for Active; 'I' for Inactive)
REMARK    1  A    between atoms: C_2  and  O_5 
ROOT
HETATM    1  O   UNL     1      63.821   7.334   6.980  1.00  0.00    -0.391 OA
HETATM    2  C   UNL     1      65.870   8.023   5.086  1.00  0.00     0.122 C 
HETATM    3  C   UNL     1      66.194   7.513   6.486  1.00  0.00     0.058 C 
HETATM    4  C   UNL     1      64.471   8.630   5.032  1.00  0.00     0.058 C 
HETATM    5  C   UNL     1      65.069   6.641   7.028  1.00  0.00     0.170 C 
HETATM    6  C   UNL     1      63.444   7.694   5.651  1.00  0.00     0.170 C 
ENDROOT
BRANCH   2   7
HETATM    7  O   UNL     1      65.998   6.973   4.128  1.00  0.00    -0.395 OA
HETATM    8  H   UNL     1      66.729   6.389   4.384  1.00  0.00     0.210 HD
ENDBRANCH   2   7
TORSDOF 1
ENDMDL
MODEL 9
REMARK VINA RESULT:      -2.8      4.532      5.574
REMARK  1 active torsions:
REMARK  status: ('A' for Active; 'I' for Inactive)
REMARK    1  A    between atoms: C_2  and  O_5 
ROOT
HETATM    1  O   UNL     1      65.691   8.995   6.104  1.00  0.00    -0.391 OA
HETATM    2  C   UNL     1      64.436   6.415   6.259  1.00  0.00     0.122 C 
HETATM    3  C   UNL     1      63.714   7.640   5.706  1.00  0.00     0.058 C 
HETATM    4  C   UNL     1      65.582   6.821   7.180  1.00  0.00     0.058 C 
HETATM    5  C   UNL     1      64.701   8.648   5.135  1.00  0.00     0.170 C 
HETATM    6  C   UNL     1      66.465   7.872   6.524  1.00  0.00     0.170 C 
ENDROOT
BRANCH   2   7
HETATM    7  O   UNL     1      64.915   5.594   5.195  1.00  0.00    -0.395 OA
HETATM    8  H   UNL     1      65.789   5.241   5.426  1.00  0.00     0.210 HD
ENDBRANCH   2   7
TORSDOF 1
ENDMDL
