MODEL 1
REMARK VINA RESULT:      -5.3      0.000      0.000
REMARK  3 active torsions:
REMARK  status: ('A' for Active; 'I' for Inactive)
REMARK    1  A    between atoms: C_3  and  C_7 
REMARK    2  A    between atoms: C_5  and  C_8 
REMARK    3  A    between atoms: C_8  and  N_9 
ROOT
HETATM    1  N   UNL     1      65.725   7.908   5.088  1.00  0.00    -0.353 N 
ATOM      2  HN  UNL     1      66.272   8.585   4.557  1.00  0.00     0.166 HD
HETATM    3  C   UNL     1      64.410   7.921   5.188  1.00  0.00     0.085 A 
HETATM    4  S   UNL     1      63.755   6.653   6.149  1.00  0.00    -0.072 SA
HETATM    5  C   UNL     1      65.333   6.063   6.468  1.00  0.00     0.032 A 
HETATM    6  C   UNL     1      66.263   6.846   5.803  1.00  0.00     0.021 A 
HETATM    7  C   UNL     1      67.743   6.695   5.804  1.00  0.00     0.069 C 
ENDROOT
BRANCH   3   8
HETATM    8  C   UNL     1      63.540   8.955   4.603  1.00  0.00    -0.002 A 
HETATM    9  C   UNL     1      62.923   8.805   3.349  1.00  0.00     0.014 A 
HETATM   10  C   UNL     1      62.083   9.800   2.842  1.00  0.00     0.001 A 
HETATM   11  C   UNL     1      61.852  10.961   3.573  1.00  0.00     0.000 A 
HETATM   12  C   UNL     1      62.467  11.135   4.811  1.00  0.00     0.001 A 
HETATM   13  C   UNL     1      63.310  10.141   5.317  1.00  0.00     0.014 A 
ENDBRANCH   3   8
BRANCH   5  14
HETATM   14  C   UNL     1      65.524   4.880   7.363  1.00  0.00     0.279 C 
BRANCH  14  15
HETATM   15  N   UNL     1      66.167   5.224   8.637  1.00  0.00    -0.075 N 
HETATM   16  C   UNL     1      67.471   4.592   8.792  1.00  0.00     0.267 C 
HETATM   17  H   UNL     1      65.562   4.921   9.401  1.00  0.00     0.277 HD
HETATM   18  H   UNL     1      66.308   6.235   8.650  1.00  0.00     0.277 HD
ENDBRANCH  14  15
ENDBRANCH   5  14
TORSDOF 3
ENDMDL
MODEL 2
REMARK VINA RESULT:      -5.3      1.862      2.739
REMARK  3 active torsions:
REMARK  status: ('A' for Active; 'I' for Inactive)
REMARK    1  A    between atoms: C_3  and  C_7 
REMARK    2  A    between atoms: C_5  and  C_8 
REMARK    3  A    between atoms: C_8  and  N_9 
ROOT
HETATM    1  N   UNL     1      62.189   7.130   5.027  1.00  0.00    -0.353 N 
ATOM      2  HN  UNL     1      61.252   6.944   4.667  1.00  0.00     0.166 HD
HETATM    3  C   UNL     1      62.910   8.191   4.721  1.00  0.00     0.085 A 
HETATM    4  S   UNL     1      64.455   8.244   5.478  1.00  0.00    -0.072 SA
HETATM    5  C   UNL     1      64.145   6.743   6.245  1.00  0.00     0.032 A 
HETATM    6  C   UNL     1      62.876   6.302   5.904  1.00  0.00     0.021 A 
HETATM    7  C   UNL     1      62.203   5.049   6.340  1.00  0.00     0.069 C 
ENDROOT
BRANCH   3   8
HETATM    8  C   UNL     1      62.498   9.231   3.765  1.00  0.00    -0.002 A 
HETATM    9  C   UNL     1      62.238  10.557   4.153  1.00  0.00     0.014 A 
HETATM   10  C   UNL     1      61.875  11.520   3.207  1.00  0.00     0.001 A 
HETATM   11  C   UNL     1      61.760  11.175   1.864  1.00  0.00     0.000 A 
HETATM   12  C   UNL     1      61.998   9.863   1.463  1.00  0.00     0.001 A 
HETATM   13  C   UNL     1      62.358   8.898   2.409  1.00  0.00     0.014 A 
ENDBRANCH   3   8
BRANCH   5  14
HETATM   14  C   UNL     1      65.190   6.114   7.110  1.00  0.00     0.279 C 
BRANCH  14  15
HETATM   15  N   UNL     1      66.057   7.098   7.768  1.00  0.00    -0.075 N 
HETATM   16  C   UNL     1      66.933   6.491   8.764  1.00  0.00     0.267 C 
HETATM   17  H   UNL     1      65.471   7.795   8.228  1.00  0.00     0.277 HD
HETATM   18  H   UNL     1      66.647   7.520   7.051  1.00  0.00     0.277 HD
ENDBRANCH  14  15
ENDBRANCH   5  14
TORSDOF 3
ENDMDL
MODEL 3
REMARK VINA RESULT:      -5.2      1.396      2.208
REMARK  3 active torsions:
REMARK  status: ('A' for Active; 'I' for Inactive)
REMARK    1  A    between atoms: C_3  and  C_7 
REMARK    2  A    between atoms: C_5  and  C_8 
REMARK    3  A    between atoms: C_8  and  N_9 
ROOT
HETATM    1  N   UNL     1      63.497   6.768   5.529  1.00  0.00    -0.353 N 
ATOM      2  HN  UNL     1      62.531   6.471   5.388  1.00  0.00     0.166 HD
HETATM    3  C   UNL     1      63.981   7.939   5.163  1.00  0.00     0.085 A 
HETATM    4  S   UNL     1      65.647   8.168   5.530  1.00  0.00    -0.072 SA
HETATM    5  C   UNL     1      65.729   6.592   6.200  1.00  0.00     0.032 A 
HETATM    6  C   UNL     1      64.481   5.995   6.132  1.00  0.00     0.021 A 
HETATM    7  C   UNL     1      64.100   4.633   6.594  1.00  0.00     0.069 C 
ENDROOT
BRANCH   3   8
HETATM    8  C   UNL     1      63.216   8.967   4.438  1.00  0.00    -0.002 A 
HETATM    9  C   UNL     1      62.858  10.196   5.019  1.00  0.00     0.014 A 
HETATM   10  C   UNL     1      62.155  11.155   4.285  1.00  0.00     0.001 A 
HETATM   11  C   UNL     1      61.791  10.900   2.966  1.00  0.00     0.000 A 
HETATM   12  C   UNL     1      62.123   9.682   2.378  1.00  0.00     0.001 A 
HETATM   13  C   UNL     1      62.824   8.720   3.113  1.00  0.00     0.014 A 
ENDBRANCH   3   8
BRANCH   5  14
HETATM   14  C   UNL     1      67.027   6.068   6.725  1.00  0.00     0.279 C 
BRANCH  14  15
HETATM   15  N   UNL     1      67.521   6.819   7.885  1.00  0.00    -0.075 N 
HETATM   16  C   UNL     1      66.805   6.486   9.111  1.00  0.00     0.267 C 
HETATM   17  H   UNL     1      67.409   7.817   7.701  1.00  0.00     0.277 HD
HETATM   18  H   UNL     1      68.502   6.571   8.021  1.00  0.00     0.277 HD
ENDBRANCH  14  15
ENDBRANCH   5  14
TORSDOF 3
ENDMDL
MODEL 4
REMARK VINA RESULT:      -5.1      1.280      2.013
REMARK  3 active torsions:
REMARK  status: ('A' for Active; 'I' for Inactive)
REMARK    1  A    between atoms: C_3  and  C_7 
REMARK    2  A    between atoms: C_5  and  C_8 
REMARK    3  A    between atoms: C_8  and  N_9 
ROOT
HETATM    1  N   UNL     1      65.100   8.123   6.218  1.00  0.00    -0.353 N 
ATOM      2  HN  UNL     1      65.354   9.046   6.570  1.00  0.00     0.166 HD
HETATM    3  C   UNL     1      64.210   7.901   5.271  1.00  0.00     0.085 A 
HETATM    4  S   UNL     1      63.987   6.241   4.877  1.00  0.00    -0.072 SA
HETATM    5  C   UNL     1      65.139   5.791   6.064  1.00  0.00     0.032 A 
HETATM    6  C   UNL     1      65.647   6.929   6.670  1.00  0.00     0.021 A 
HETATM    7  C   UNL     1      66.664   7.003   7.754  1.00  0.00     0.069 C 
ENDROOT
BRANCH   3   8
HETATM    8  C   UNL     1      63.400   8.948   4.627  1.00  0.00    -0.002 A 
HETATM    9  C   UNL     1      63.114  10.176   5.250  1.00  0.00     0.014 A 
HETATM   10  C   UNL     1      62.364  11.153   4.591  1.00  0.00     0.001 A 
HETATM   11  C   UNL     1      61.882  10.920   3.307  1.00  0.00     0.000 A 
HETATM   12  C   UNL     1      62.141   9.704   2.680  1.00  0.00     0.001 A 
HETATM   13  C   UNL     1      62.889   8.723   3.339  1.00  0.00     0.014 A 
ENDBRANCH   3   8
BRANCH   5  14
HETATM   14  C   UNL     1      65.437   4.347   6.310  1.00  0.00     0.279 C 
BRANCH  14  15
HETATM   15  N   UNL     1      64.751   3.814   7.493  1.00  0.00    -0.075 N 
HETATM   16  C   UNL     1      63.463   3.213   7.168  1.00  0.00     0.267 C 
HETATM   17  H   UNL     1      64.599   4.576   8.155  1.00  0.00     0.277 HD
HETATM   18  H   UNL     1      65.342   3.085   7.893  1.00  0.00     0.277 HD
ENDBRANCH  14  15
ENDBRANCH   5  14
TORSDOF 3
ENDMDL
MODEL 5
REMARK VINA RESULT:      -4.9      1.964      6.291
REMARK  3 active torsions:
REMARK  status: ('A' for Active; 'I' for Inactive)
REMARK    1  A    between atoms: C_3  and  C_7 
REMARK    2  A    between atoms: C_5  and  C_8 
REMARK    3  A    between atoms: C_8  and  N_9 
ROOT
HETATM    1  N   UNL     1      64.269   9.136   5.553  1.00  0.00    -0.353 N 
ATOM      2  HN  UNL     1      64.798   9.487   6.353  1.00  0.00     0.166 HD
HETATM    3  C   UNL     1      64.506   7.991   4.943  1.00  0.00     0.085 A 
HETATM    4  S   UNL     1      63.452   7.656   3.625  1.00  0.00    -0.072 SA
HETATM    5  C   UNL     1      62.644   9.146   3.875  1.00  0.00     0.032 A 
HETATM    6  C   UNL     1      63.202   9.799   4.962  1.00  0.00     0.021 A 
HETATM    7  C   UNL     1      62.813  11.119   5.526  1.00  0.00     0.069 C 
ENDROOT
BRANCH   3   8
HETATM    8  C   UNL     1      65.611   7.080   5.282  1.00  0.00    -0.002 A 
HETATM    9  C   UNL     1      66.347   6.386   4.305  1.00  0.00     0.014 A 
HETATM   10  C   UNL     1      67.406   5.550   4.669  1.00  0.00     0.001 A 
HETATM   11  C   UNL     1      67.743   5.388   6.010  1.00  0.00     0.000 A 
HETATM   12  C   UNL     1      67.014   6.054   6.992  1.00  0.00     0.001 A 
HETATM   13  C   UNL     1      65.952   6.888   6.630  1.00  0.00     0.014 A 
ENDBRANCH   3   8
BRANCH   5  14
HETATM   14  C   UNL     1      61.531   9.557   2.964  1.00  0.00     0.279 C 
BRANCH  14  15
HETATM   15  N   UNL     1      61.986  10.388   1.843  1.00  0.00    -0.075 N 
HETATM   16  C   UNL     1      61.756  11.809   2.073  1.00  0.00     0.267 C 
HETATM   17  H   UNL     1      61.483  10.106   1.001  1.00  0.00     0.277 HD
HETATM   18  H   UNL     1      62.992  10.248   1.741  1.00  0.00     0.277 HD
ENDBRANCH  14  15
ENDBRANCH   5  14
TORSDOF 3
ENDMDL
MODEL 6
REMARK VINA RESULT:      -4.5      2.278      6.273
REMARK  3 active torsions:
REMARK  status: ('A' for Active; 'I' for Inactive)
REMARK    1  A    between atoms: C_3  and  C_7 
REMARK    2  A    between atoms: C_5  and  C_8 
REMARK    3  A    between atoms: C_8  and  N_9 
ROOT
HETATM    1  N   UNL     1      63.663   9.363   4.794  1.00  0.00    -0.353 N 
ATOM      2  HN  UNL     1      64.254  10.119   5.141  1.00  0.00     0.166 HD
HETATM    3  C   UNL     1      63.939   8.080   4.915  1.00  0.00     0.085 A 
HETATM    4  S   UNL     1      62.758   7.029   4.235  1.00  0.00    -0.072 SA
HETATM    5  C   UNL     1      61.831   8.378   3.728  1.00  0.00     0.032 A 
HETATM    6  C   UNL     1      62.457   9.547   4.129  1.00  0.00     0.021 A 
HETATM    7  C   UNL     1      62.004  10.945   3.898  1.00  0.00     0.069 C 
ENDROOT
BRANCH   3   8
HETATM    8  C   UNL     1      65.175   7.547   5.512  1.00  0.00    -0.002 A 
HETATM    9  C   UNL     1      66.442   7.744   4.934  1.00  0.00     0.014 A 
HETATM   10  C   UNL     1      67.592   7.243   5.549  1.00  0.00     0.001 A 
HETATM   11  C   UNL     1      67.498   6.533   6.742  1.00  0.00     0.000 A 
HETATM   12  C   UNL     1      66.250   6.313   7.320  1.00  0.00     0.001 A 
HETATM   13  C   UNL     1      65.097   6.811   6.704  1.00  0.00     0.014 A 
ENDBRANCH   3   8
BRANCH   5  14
HETATM   14  C   UNL     1      60.565   8.171   2.960  1.00  0.00     0.279 C 
BRANCH  14  15
HETATM   15  N   UNL     1      60.619   8.732   1.605  1.00  0.00    -0.075 N 
HETATM   16  C   UNL     1      59.605   8.164   0.725  1.00  0.00     0.267 C 
HETATM   17  H   UNL     1      61.540   8.544   1.209  1.00  0.00     0.277 HD
HETATM   18  H   UNL     1      60.441   9.735   1.677  1.00  0.00     0.277 HD
ENDBRANCH  14  15
ENDBRANCH   5  14
TORSDOF 3
ENDMDL
MODEL 7
REMARK VINA RESULT:      -4.3      1.458      1.790
REMARK  3 active torsions:
REMARK  status: ('A' for Active; 'I' for Inactive)
REMARK    1  A    between atoms: C_3  and  C_7 
REMARK    2  A    between atoms: C_5  and  C_8 
REMARK    3  A    between atoms: C_8  and  N_9 
ROOT
HETATM    1  N   UNL     1      63.603   5.856   4.554  1.00  0.00    -0.353 N 
ATOM      2  HN  UNL     1      63.107   5.553   3.715  1.00  0.00     0.166 HD
HETATM    3  C   UNL     1      63.670   7.103   4.976  1.00  0.00     0.085 A 
HETATM    4  S   UNL     1      64.575   7.318   6.424  1.00  0.00    -0.072 SA
HETATM    5  C   UNL     1      64.916   5.639   6.475  1.00  0.00     0.032 A 
HETATM    6  C   UNL     1      64.299   5.008   5.406  1.00  0.00     0.021 A 
HETATM    7  C   UNL     1      64.333   3.561   5.063  1.00  0.00     0.069 C 
ENDROOT
BRANCH   3   8
HETATM    8  C   UNL     1      63.094   8.255   4.264  1.00  0.00    -0.002 A 
HETATM    9  C   UNL     1      62.738   8.206   2.905  1.00  0.00     0.014 A 
HETATM   10  C   UNL     1      62.169   9.316   2.274  1.00  0.00     0.001 A 
HETATM   11  C   UNL     1      61.952  10.492   2.986  1.00  0.00     0.000 A 
HETATM   12  C   UNL     1      62.313  10.565   4.329  1.00  0.00     0.001 A 
HETATM   13  C   UNL     1      62.886   9.456   4.960  1.00  0.00     0.014 A 
ENDBRANCH   3   8
BRANCH   5  14
HETATM   14  C   UNL     1      65.780   5.083   7.561  1.00  0.00     0.279 C 
BRANCH  14  15
HETATM   15  N   UNL     1      66.118   6.074   8.589  1.00  0.00    -0.075 N 
HETATM   16  C   UNL     1      67.526   6.031   8.964  1.00  0.00     0.267 C 
HETATM   17  H   UNL     1      65.552   5.893   9.418  1.00  0.00     0.277 HD
HETATM   18  H   UNL     1      65.928   6.999   8.201  1.00  0.00     0.277 HD
ENDBRANCH  14  15
ENDBRANCH   5  14
TORSDOF 3
ENDMDL
MODEL 8
REMARK VINA RESULT:      -4.2      2.136      6.433
REMARK  3 active torsions:
REMARK  status: ('A' for Active; 'I' for Inactive)
REMARK    1  A    between atoms: C_3  and  C_7 
REMARK    2  A    between atoms: C_5  and  C_8 
REMARK    3  A    between atoms: C_8  and  N_9 
ROOT
HETATM    1  N   UNL     1      63.434   6.306   6.002  1.00  0.00    -0.353 N 
ATOM      2  HN  UNL     1      63.257   5.407   6.451  1.00  0.00     0.166 HD
HETATM    3  C   UNL     1      64.591   6.938   6.021  1.00  0.00     0.085 A 
HETATM    4  S   UNL     1      64.598   8.437   5.175  1.00  0.00    -0.072 SA
HETATM    5  C   UNL     1      62.943   8.235   4.778  1.00  0.00     0.032 A 
HETATM    6  C   UNL     1      62.488   7.029   5.286  1.00  0.00     0.021 A 
HETATM    7  C   UNL     1      61.119   6.457   5.180  1.00  0.00     0.069 C 
ENDROOT
BRANCH   3   8
HETATM    8  C   UNL     1      65.783   6.473   6.749  1.00  0.00    -0.002 A 
HETATM    9  C   UNL     1      65.935   6.639   8.137  1.00  0.00     0.014 A 
HETATM   10  C   UNL     1      67.072   6.158   8.793  1.00  0.00     0.001 A 
HETATM   11  C   UNL     1      68.075   5.513   8.076  1.00  0.00     0.000 A 
HETATM   12  C   UNL     1      67.949   5.353   6.698  1.00  0.00     0.001 A 
HETATM   13  C   UNL     1      66.813   5.837   6.040  1.00  0.00     0.014 A 
ENDBRANCH   3   8
BRANCH   5  14
HETATM   14  C   UNL     1      62.222   9.296   4.009  1.00  0.00     0.279 C 
BRANCH  14  15
HETATM   15  N   UNL     1      61.997   8.932   2.605  1.00  0.00    -0.075 N 
HETATM   16  C   UNL     1      61.901  10.098   1.735  1.00  0.00     0.267 C 
HETATM   17  H   UNL     1      61.127   8.402   2.540  1.00  0.00     0.277 HD
HETATM   18  H   UNL     1      62.796   8.378   2.296  1.00  0.00     0.277 HD
ENDBRANCH  14  15
ENDBRANCH   5  14
TORSDOF 3
ENDMDL
MODEL 9
REMARK VINA RESULT:      -4.2      4.723      6.519
REMARK  3 active torsions:
REMARK  status: ('A' for Active; 'I' for Inactive)
REMARK    1  A    between atoms: C_3  and  C_7 
REMARK    2  A    between atoms: C_5  and  C_8 
REMARK    3  A    between atoms: C_8  and  N_9 
ROOT
HETATM    1  N   UNL     1      59.964   8.273   2.068  1.00  0.00    -0.353 N 
ATOM      2  HN  UNL     1      59.480   8.639   1.248  1.00  0.00     0.166 HD
HETATM    3  C   UNL     1      59.417   7.481   2.969  1.00  0.00     0.085 A 
HETATM    4  S   UNL     1      60.473   7.018   4.247  1.00  0.00    -0.072 SA
HETATM    5  C   UNL     1      61.734   7.955   3.561  1.00  0.00     0.032 A 
HETATM    6  C   UNL     1      61.289   8.541   2.387  1.00  0.00     0.021 A 
HETATM    7  C   UNL     1      62.050   9.435   1.473  1.00  0.00     0.069 C 
ENDROOT
BRANCH   3   8
HETATM    8  C   UNL     1      58.006   7.060   2.961  1.00  0.00    -0.002 A 
HETATM    9  C   UNL     1      57.263   6.923   1.775  1.00  0.00     0.014 A 
HETATM   10  C   UNL     1      55.933   6.495   1.812  1.00  0.00     0.001 A 
HETATM   11  C   UNL     1      55.323   6.203   3.028  1.00  0.00     0.000 A 
HETATM   12  C   UNL     1      56.039   6.349   4.214  1.00  0.00     0.001 A 
HETATM   13  C   UNL     1      57.368   6.781   4.180  1.00  0.00     0.014 A 
ENDBRANCH   3   8
BRANCH   5  14
HETATM   14  C   UNL     1      63.058   8.046   4.249  1.00  0.00     0.279 C 
BRANCH  14  15
HETATM   15  N   UNL     1      63.010   8.839   5.482  1.00  0.00    -0.075 N 
HETATM   16  C   UNL     1      62.889  10.269   5.222  1.00  0.00     0.267 C 
HETATM   17  H   UNL     1      63.866   8.673   6.012  1.00  0.00     0.277 HD
HETATM   18  H   UNL     1      62.183   8.548   6.006  1.00  0.00     0.277 HD
ENDBRANCH  14  15
ENDBRANCH   5  14
TORSDOF 3
ENDMDL
