MODEL 1
REMARK VINA RESULT:      -5.2      0.000      0.000
REMARK  3 active torsions:
REMARK  status: ('A' for Active; 'I' for Inactive)
REMARK    1  A    between atoms: N_1  and  C_3 
REMARK    2  A    between atoms: C_3  and  C_4 
REMARK    3  A    between atoms: C_5  and  N_6 
ROOT
HETATM    1  C   UNL     1      63.023   8.700   4.770  1.00  0.00    -0.032 A 
HETATM    2  C   UNL     1      62.044  10.648   2.960  1.00  0.00     0.025 A 
HETATM    3  C   UNL     1      62.237   9.326   2.552  1.00  0.00     0.029 A 
HETATM    4  C   UNL     1      62.323  10.982   4.285  1.00  0.00     0.029 A 
HETATM    5  C   UNL     1      62.736   8.366   3.440  1.00  0.00     0.011 A 
HETATM    6  C   UNL     1      62.830  10.028   5.176  1.00  0.00     0.011 A 
ENDROOT
BRANCH   1   7
HETATM    7  C   UNL     1      63.391   7.638   5.778  1.00  0.00     0.273 C 
BRANCH   7   8
HETATM    8  N   UNL     1      64.675   6.956   5.653  1.00  0.00    -0.063 N 
HETATM    9  C   UNL     1      64.985   5.953   6.676  1.00  0.00     0.261 C 
HETATM   10  C   UNL     1      65.823   6.477   7.851  1.00  0.00     0.195 C 
HETATM   11  O   UNL     1      67.011   7.130   7.388  1.00  0.00    -0.388 OA
HETATM   12  C   UNL     1      66.665   8.240   6.553  1.00  0.00     0.195 C 
HETATM   13  C   UNL     1      65.833   7.796   5.339  1.00  0.00     0.261 C 
HETATM   14  H   UNL     1      64.490   6.423   4.802  1.00  0.00     0.280 HD
ENDBRANCH   7   8
ENDBRANCH   1   7
BRANCH   2  15
HETATM   15  N   UNL     1      61.345  11.543   2.142  1.00  0.00    -0.399 N 
HETATM   16  H   UNL     1      60.507  11.262   1.708  1.00  0.00     0.156 HD
HETATM   17  H   UNL     1      61.691  12.454   2.000  1.00  0.00     0.156 HD
ENDBRANCH   2  15
TORSDOF 3
ENDMDL
MODEL 2
REMARK VINA RESULT:      -5.1      0.875      2.018
REMARK  3 active torsions:
REMARK  status: ('A' for Active; 'I' for Inactive)
REMARK    1  A    between atoms: N_1  and  C_3 
REMARK    2  A    between atoms: C_3  and  C_4 
REMARK    3  A    between atoms: C_5  and  N_6 
ROOT
HETATM    1  C   UNL     1      63.221   8.384   4.633  1.00  0.00    -0.032 A 
HETATM    2  C   UNL     1      62.003  10.482   3.169  1.00  0.00     0.025 A 
HETATM    3  C   UNL     1      62.404  10.672   4.494  1.00  0.00     0.029 A 
HETATM    4  C   UNL     1      62.237   9.241   2.577  1.00  0.00     0.029 A 
HETATM    5  C   UNL     1      62.991   9.632   5.224  1.00  0.00     0.011 A 
HETATM    6  C   UNL     1      62.816   8.194   3.304  1.00  0.00     0.011 A 
ENDROOT
BRANCH   1   7
HETATM    7  C   UNL     1      64.011   7.315   5.352  1.00  0.00     0.273 C 
BRANCH   7   8
HETATM    8  N   UNL     1      65.189   7.699   6.119  1.00  0.00    -0.063 N 
HETATM    9  C   UNL     1      66.374   8.087   5.348  1.00  0.00     0.261 C 
HETATM   10  C   UNL     1      67.382   6.954   5.112  1.00  0.00     0.195 C 
HETATM   11  O   UNL     1      67.750   6.323   6.345  1.00  0.00    -0.388 OA
HETATM   12  C   UNL     1      66.590   5.769   6.975  1.00  0.00     0.195 C 
HETATM   13  C   UNL     1      65.532   6.847   7.261  1.00  0.00     0.261 C 
HETATM   14  H   UNL     1      64.839   8.566   6.527  1.00  0.00     0.280 HD
ENDBRANCH   7   8
ENDBRANCH   1   7
BRANCH   2  15
HETATM   15  N   UNL     1      61.624  11.576   2.384  1.00  0.00    -0.399 N 
HETATM   16  H   UNL     1      61.345  12.417   2.812  1.00  0.00     0.156 HD
HETATM   17  H   UNL     1      61.637  11.505   1.401  1.00  0.00     0.156 HD
ENDBRANCH   2  15
TORSDOF 3
ENDMDL
MODEL 3
REMARK VINA RESULT:      -4.6      2.532      5.676
REMARK  3 active torsions:
REMARK  status: ('A' for Active; 'I' for Inactive)
REMARK    1  A    between atoms: N_1  and  C_3 
REMARK    2  A    between atoms: C_3  and  C_4 
REMARK    3  A    between atoms: C_5  and  N_6 
ROOT
HETATM    1  C   UNL     1      64.819   7.569   5.064  1.00  0.00    -0.032 A 
HETATM    2  C   UNL     1      66.542   7.102   7.264  1.00  0.00     0.025 A 
HETATM    3  C   UNL     1      66.938   7.925   6.207  1.00  0.00     0.029 A 
HETATM    4  C   UNL     1      65.269   6.533   7.221  1.00  0.00     0.029 A 
HETATM    5  C   UNL     1      66.095   8.144   5.111  1.00  0.00     0.011 A 
HETATM    6  C   UNL     1      64.424   6.741   6.124  1.00  0.00     0.011 A 
ENDROOT
BRANCH   1   7
HETATM    7  C   UNL     1      63.838   7.938   3.976  1.00  0.00     0.273 C 
BRANCH   7   8
HETATM    8  N   UNL     1      62.576   8.569   4.344  1.00  0.00    -0.063 N 
HETATM    9  C   UNL     1      61.713   8.999   3.240  1.00  0.00     0.261 C 
HETATM   10  C   UNL     1      61.877  10.470   2.835  1.00  0.00     0.195 C 
HETATM   11  O   UNL     1      61.740  11.337   3.967  1.00  0.00    -0.388 OA
HETATM   12  C   UNL     1      62.739  11.026   4.945  1.00  0.00     0.195 C 
HETATM   13  C   UNL     1      62.632   9.567   5.416  1.00  0.00     0.261 C 
HETATM   14  H   UNL     1      62.107   7.761   4.754  1.00  0.00     0.280 HD
ENDBRANCH   7   8
ENDBRANCH   1   7
BRANCH   2  15
HETATM   15  N   UNL     1      67.290   7.064   8.446  1.00  0.00    -0.399 N 
HETATM   16  H   UNL     1      66.844   6.885   9.305  1.00  0.00     0.156 HD
HETATM   17  H   UNL     1      68.263   7.214   8.418  1.00  0.00     0.156 HD
ENDBRANCH   2  15
TORSDOF 3
ENDMDL
MODEL 4
REMARK VINA RESULT:      -4.6      1.468      2.094
REMARK  3 active torsions:
REMARK  status: ('A' for Active; 'I' for Inactive)
REMARK    1  A    between atoms: N_1  and  C_3 
REMARK    2  A    between atoms: C_3  and  C_4 
REMARK    3  A    between atoms: C_5  and  N_6 
ROOT
HETATM    1  C   UNL     1      64.458   8.392   4.690  1.00  0.00    -0.032 A 
HETATM    2  C   UNL     1      61.975   8.939   3.440  1.00  0.00     0.025 A 
HETATM    3  C   UNL     1      62.738   7.832   3.061  1.00  0.00     0.029 A 
HETATM    4  C   UNL     1      62.453   9.756   4.465  1.00  0.00     0.029 A 
HETATM    5  C   UNL     1      63.973   7.569   3.666  1.00  0.00     0.011 A 
HETATM    6  C   UNL     1      63.691   9.503   5.068  1.00  0.00     0.011 A 
ENDROOT
BRANCH   1   7
HETATM    7  C   UNL     1      65.698   8.018   5.468  1.00  0.00     0.273 C 
BRANCH   7   8
HETATM    8  N   UNL     1      65.554   7.463   6.809  1.00  0.00    -0.063 N 
HETATM    9  C   UNL     1      66.787   7.303   7.586  1.00  0.00     0.261 C 
HETATM   10  C   UNL     1      67.419   5.906   7.501  1.00  0.00     0.195 C 
HETATM   11  O   UNL     1      66.465   4.886   7.825  1.00  0.00    -0.388 OA
HETATM   12  C   UNL     1      65.364   4.938   6.911  1.00  0.00     0.195 C 
HETATM   13  C   UNL     1      64.665   6.307   6.946  1.00  0.00     0.261 C 
HETATM   14  H   UNL     1      65.058   8.238   7.250  1.00  0.00     0.280 HD
ENDBRANCH   7   8
ENDBRANCH   1   7
BRANCH   2  15
HETATM   15  N   UNL     1      60.655   9.071   2.994  1.00  0.00    -0.399 N 
HETATM   16  H   UNL     1      59.999   9.566   3.535  1.00  0.00     0.156 HD
HETATM   17  H   UNL     1      60.383   8.670   2.136  1.00  0.00     0.156 HD
ENDBRANCH   2  15
TORSDOF 3
ENDMDL
MODEL 5
REMARK VINA RESULT:      -4.3      2.648      5.712
REMARK  3 active torsions:
REMARK  status: ('A' for Active; 'I' for Inactive)
REMARK    1  A    between atoms: N_1  and  C_3 
REMARK    2  A    between atoms: C_3  and  C_4 
REMARK    3  A    between atoms: C_5  and  N_6 
ROOT
HETATM    1  C   UNL     1      63.818   7.696   4.416  1.00  0.00    -0.032 A 
HETATM    2  C   UNL     1      65.209   6.830   6.728  1.00  0.00     0.025 A 
HETATM    3  C   UNL     1      64.053   6.171   6.299  1.00  0.00     0.029 A 
HETATM    4  C   UNL     1      65.674   7.910   5.978  1.00  0.00     0.029 A 
HETATM    5  C   UNL     1      63.355   6.607   5.167  1.00  0.00     0.011 A 
HETATM    6  C   UNL     1      64.976   8.356   4.849  1.00  0.00     0.011 A 
ENDROOT
BRANCH   1   7
HETATM    7  C   UNL     1      63.175   8.063   3.099  1.00  0.00     0.273 C 
BRANCH   7   8
HETATM    8  N   UNL     1      61.941   8.840   3.105  1.00  0.00    -0.063 N 
HETATM    9  C   UNL     1      61.597   9.530   1.858  1.00  0.00     0.261 C 
HETATM   10  C   UNL     1      62.055  10.993   1.790  1.00  0.00     0.195 C 
HETATM   11  O   UNL     1      61.603  11.731   2.932  1.00  0.00    -0.388 OA
HETATM   12  C   UNL     1      62.131  11.150   4.130  1.00  0.00     0.195 C 
HETATM   13  C   UNL     1      61.703   9.681   4.281  1.00  0.00     0.261 C 
HETATM   14  H   UNL     1      61.270   8.075   3.182  1.00  0.00     0.280 HD
ENDBRANCH   7   8
ENDBRANCH   1   7
BRANCH   2  15
HETATM   15  N   UNL     1      66.016   6.262   7.719  1.00  0.00    -0.399 N 
HETATM   16  H   UNL     1      66.081   5.283   7.801  1.00  0.00     0.156 HD
HETATM   17  H   UNL     1      66.522   6.842   8.335  1.00  0.00     0.156 HD
ENDBRANCH   2  15
TORSDOF 3
ENDMDL
MODEL 6
REMARK VINA RESULT:      -4.2      2.204      2.954
REMARK  3 active torsions:
REMARK  status: ('A' for Active; 'I' for Inactive)
REMARK    1  A    between atoms: N_1  and  C_3 
REMARK    2  A    between atoms: C_3  and  C_4 
REMARK    3  A    between atoms: C_5  and  N_6 
ROOT
HETATM    1  C   UNL     1      62.923   8.563   3.600  1.00  0.00    -0.032 A 
HETATM    2  C   UNL     1      61.836  10.915   2.453  1.00  0.00     0.025 A 
HETATM    3  C   UNL     1      62.168  10.868   3.809  1.00  0.00     0.029 A 
HETATM    4  C   UNL     1      62.074   9.784   1.672  1.00  0.00     0.029 A 
HETATM    5  C   UNL     1      62.690   9.702   4.382  1.00  0.00     0.011 A 
HETATM    6  C   UNL     1      62.588   8.612   2.240  1.00  0.00     0.011 A 
ENDROOT
BRANCH   1   7
HETATM    7  C   UNL     1      63.647   7.364   4.167  1.00  0.00     0.273 C 
BRANCH   7   8
HETATM    8  N   UNL     1      62.868   6.251   4.697  1.00  0.00    -0.063 N 
HETATM    9  C   UNL     1      63.032   5.960   6.124  1.00  0.00     0.261 C 
HETATM   10  C   UNL     1      64.068   4.872   6.440  1.00  0.00     0.195 C 
HETATM   11  O   UNL     1      63.809   3.677   5.694  1.00  0.00    -0.388 OA
HETATM   12  C   UNL     1      63.863   3.956   4.290  1.00  0.00     0.195 C 
HETATM   13  C   UNL     1      62.840   5.030   3.888  1.00  0.00     0.261 C 
HETATM   14  H   UNL     1      61.935   6.653   4.610  1.00  0.00     0.280 HD
ENDBRANCH   7   8
ENDBRANCH   1   7
BRANCH   2  15
HETATM   15  N   UNL     1      61.526  12.137   1.846  1.00  0.00    -0.399 N 
HETATM   16  H   UNL     1      61.495  12.960   2.384  1.00  0.00     0.156 HD
HETATM   17  H   UNL     1      61.340  12.173   0.879  1.00  0.00     0.156 HD
ENDBRANCH   2  15
TORSDOF 3
ENDMDL
MODEL 7
REMARK VINA RESULT:      -4.2      2.410      3.627
REMARK  3 active torsions:
REMARK  status: ('A' for Active; 'I' for Inactive)
REMARK    1  A    between atoms: N_1  and  C_3 
REMARK    2  A    between atoms: C_3  and  C_4 
REMARK    3  A    between atoms: C_5  and  N_6 
ROOT
HETATM    1  C   UNL     1      66.341   7.319   5.106  1.00  0.00    -0.032 A 
HETATM    2  C   UNL     1      63.864   7.695   3.782  1.00  0.00     0.025 A 
HETATM    3  C   UNL     1      64.297   8.594   4.760  1.00  0.00     0.029 A 
HETATM    4  C   UNL     1      64.692   6.620   3.456  1.00  0.00     0.029 A 
HETATM    5  C   UNL     1      65.512   8.401   5.427  1.00  0.00     0.011 A 
HETATM    6  C   UNL     1      65.905   6.417   4.125  1.00  0.00     0.011 A 
ENDROOT
BRANCH   1   7
HETATM    7  C   UNL     1      67.729   7.201   5.691  1.00  0.00     0.273 C 
BRANCH   7   8
HETATM    8  N   UNL     1      67.910   6.487   6.950  1.00  0.00    -0.063 N 
HETATM    9  C   UNL     1      67.986   5.026   6.868  1.00  0.00     0.261 C 
HETATM   10  C   UNL     1      66.652   4.302   7.102  1.00  0.00     0.195 C 
HETATM   11  O   UNL     1      66.045   4.721   8.330  1.00  0.00    -0.388 OA
HETATM   12  C   UNL     1      65.791   6.131   8.294  1.00  0.00     0.195 C 
HETATM   13  C   UNL     1      67.085   6.932   8.077  1.00  0.00     0.261 C 
HETATM   14  H   UNL     1      68.857   6.794   7.173  1.00  0.00     0.280 HD
ENDBRANCH   7   8
ENDBRANCH   1   7
BRANCH   2  15
HETATM   15  N   UNL     1      62.767   8.008   2.972  1.00  0.00    -0.399 N 
HETATM   16  H   UNL     1      62.143   7.300   2.692  1.00  0.00     0.156 HD
HETATM   17  H   UNL     1      62.619   8.938   2.682  1.00  0.00     0.156 HD
ENDBRANCH   2  15
TORSDOF 3
ENDMDL
MODEL 8
REMARK VINA RESULT:      -4.0      2.874      5.865
REMARK  3 active torsions:
REMARK  status: ('A' for Active; 'I' for Inactive)
REMARK    1  A    between atoms: N_1  and  C_3 
REMARK    2  A    between atoms: C_3  and  C_4 
REMARK    3  A    between atoms: C_5  and  N_6 
ROOT
HETATM    1  C   UNL     1      64.784   7.468   5.150  1.00  0.00    -0.032 A 
HETATM    2  C   UNL     1      66.519   7.244   7.379  1.00  0.00     0.025 A 
HETATM    3  C   UNL     1      65.308   6.548   7.341  1.00  0.00     0.029 A 
HETATM    4  C   UNL     1      66.864   8.035   6.282  1.00  0.00     0.029 A 
HETATM    5  C   UNL     1      64.442   6.670   6.248  1.00  0.00     0.011 A 
HETATM    6  C   UNL     1      65.998   8.168   5.190  1.00  0.00     0.011 A 
ENDROOT
BRANCH   1   7
HETATM    7  C   UNL     1      63.943   7.467   3.894  1.00  0.00     0.273 C 
BRANCH   7   8
HETATM    8  N   UNL     1      62.612   8.061   3.933  1.00  0.00    -0.063 N 
HETATM    9  C   UNL     1      61.497   7.193   3.541  1.00  0.00     0.261 C 
HETATM   10  C   UNL     1      61.080   7.313   2.069  1.00  0.00     0.195 C 
HETATM   11  O   UNL     1      60.823   8.678   1.714  1.00  0.00    -0.388 OA
HETATM   12  C   UNL     1      62.003   9.464   1.912  1.00  0.00     0.195 C 
HETATM   13  C   UNL     1      62.480   9.408   3.373  1.00  0.00     0.261 C 
HETATM   14  H   UNL     1      62.518   8.179   4.942  1.00  0.00     0.280 HD
ENDBRANCH   7   8
ENDBRANCH   1   7
BRANCH   2  15
HETATM   15  N   UNL     1      67.471   6.950   8.361  1.00  0.00    -0.399 N 
HETATM   16  H   UNL     1      67.296   6.239   9.018  1.00  0.00     0.156 HD
HETATM   17  H   UNL     1      68.316   7.454   8.394  1.00  0.00     0.156 HD
ENDBRANCH   2  15
TORSDOF 3
ENDMDL
MODEL 9
REMARK VINA RESULT:      -4.0      3.982      5.065
REMARK  3 active torsions:
REMARK  status: ('A' for Active; 'I' for Inactive)
REMARK    1  A    between atoms: N_1  and  C_3 
REMARK    2  A    between atoms: C_3  and  C_4 
REMARK    3  A    between atoms: C_5  and  N_6 
ROOT
HETATM    1  C   UNL     1      62.262   8.085   3.142  1.00  0.00    -0.032 A 
HETATM    2  C   UNL     1      61.972  10.771   2.286  1.00  0.00     0.025 A 
HETATM    3  C   UNL     1      62.018   9.726   1.360  1.00  0.00     0.029 A 
HETATM    4  C   UNL     1      62.049  10.459   3.644  1.00  0.00     0.029 A 
HETATM    5  C   UNL     1      62.178   8.400   1.780  1.00  0.00     0.011 A 
HETATM    6  C   UNL     1      62.217   9.135   4.070  1.00  0.00     0.011 A 
ENDROOT
BRANCH   1   7
HETATM    7  C   UNL     1      62.256   6.649   3.612  1.00  0.00     0.273 C 
BRANCH   7   8
HETATM    8  N   UNL     1      60.981   5.958   3.764  1.00  0.00    -0.063 N 
HETATM    9  C   UNL     1      60.536   5.149   2.625  1.00  0.00     0.261 C 
HETATM   10  C   UNL     1      59.582   5.871   1.662  1.00  0.00     0.195 C 
HETATM   11  O   UNL     1      58.468   6.435   2.364  1.00  0.00    -0.388 OA
HETATM   12  C   UNL     1      58.930   7.383   3.334  1.00  0.00     0.195 C 
HETATM   13  C   UNL     1      59.884   6.732   4.349  1.00  0.00     0.261 C 
HETATM   14  H   UNL     1      61.249   5.285   4.483  1.00  0.00     0.280 HD
ENDBRANCH   7   8
ENDBRANCH   1   7
BRANCH   2  15
HETATM   15  N   UNL     1      61.594  12.056   1.881  1.00  0.00    -0.399 N 
HETATM   16  H   UNL     1      60.656  12.341   1.960  1.00  0.00     0.156 HD
HETATM   17  H   UNL     1      62.268  12.675   1.516  1.00  0.00     0.156 HD
ENDBRANCH   2  15
TORSDOF 3
ENDMDL
