MODEL 1
REMARK VINA RESULT:      -3.3      0.000      0.000
REMARK  2 active torsions:
REMARK  status: ('A' for Active; 'I' for Inactive)
REMARK    1  A    between atoms: O_2  and  C_6 
REMARK    2  A    between atoms: C_3  and  C_6 
ROOT
HETATM    1  O   UNL     1      60.496   7.534   2.097  1.00  0.00    -0.391 OA
HETATM    2  C   UNL     1      62.425   9.688   2.328  1.00  0.00     0.013 C 
HETATM    3  C   UNL     1      60.561   8.521   1.068  1.00  0.00     0.168 C 
HETATM    4  C   UNL     1      60.794   8.064   3.387  1.00  0.00     0.168 C 
HETATM    5  C   UNL     1      62.209   8.633   3.423  1.00  0.00     0.033 C 
HETATM    6  C   UNL     1      61.963   9.114   0.978  1.00  0.00     0.033 C 
ENDROOT
BRANCH   2   7
HETATM    7  C   UNL     1      61.716  11.003   2.677  1.00  0.00     0.168 C 
BRANCH   7   8
HETATM    8  O   UNL     1      62.106  12.035   1.780  1.00  0.00    -0.400 OA
HETATM    9  H   UNL     1      63.024  12.292   1.963  1.00  0.00     0.209 HD
ENDBRANCH   7   8
ENDBRANCH   2   7
TORSDOF 2
ENDMDL
MODEL 2
REMARK VINA RESULT:      -3.3      1.218      3.374
REMARK  2 active torsions:
REMARK  status: ('A' for Active; 'I' for Inactive)
REMARK    1  A    between atoms: O_2  and  C_6 
REMARK    2  A    between atoms: C_3  and  C_6 
ROOT
HETATM    1  O   UNL     1      62.288  11.552   3.443  1.00  0.00    -0.391 OA
HETATM    2  C   UNL     1      62.149   8.865   2.358  1.00  0.00     0.013 C 
HETATM    3  C   UNL     1      62.177  10.446   4.339  1.00  0.00     0.168 C 
HETATM    4  C   UNL     1      61.599  11.334   2.213  1.00  0.00     0.168 C 
HETATM    5  C   UNL     1      62.173  10.124   1.480  1.00  0.00     0.033 C 
HETATM    6  C   UNL     1      62.781   9.190   3.721  1.00  0.00     0.033 C 
ENDROOT
BRANCH   2   7
HETATM    7  C   UNL     1      60.725   8.309   2.492  1.00  0.00     0.168 C 
BRANCH   7   8
HETATM    8  O   UNL     1      59.984   8.537   1.301  1.00  0.00    -0.400 OA
HETATM    9  H   UNL     1      60.315   7.955   0.598  1.00  0.00     0.209 HD
ENDBRANCH   7   8
ENDBRANCH   2   7
TORSDOF 2
ENDMDL
MODEL 3
REMARK VINA RESULT:      -3.3      2.841      3.298
REMARK  2 active torsions:
REMARK  status: ('A' for Active; 'I' for Inactive)
REMARK    1  A    between atoms: O_2  and  C_6 
REMARK    2  A    between atoms: C_3  and  C_6 
ROOT
HETATM    1  O   UNL     1      61.985   7.122   4.775  1.00  0.00    -0.391 OA
HETATM    2  C   UNL     1      63.714   9.449   4.678  1.00  0.00     0.013 C 
HETATM    3  C   UNL     1      61.564   8.271   4.039  1.00  0.00     0.168 C 
HETATM    4  C   UNL     1      62.760   7.459   5.924  1.00  0.00     0.168 C 
HETATM    5  C   UNL     1      64.030   8.203   5.518  1.00  0.00     0.033 C 
HETATM    6  C   UNL     1      62.768   9.057   3.532  1.00  0.00     0.033 C 
ENDROOT
BRANCH   2   7
HETATM    7  C   UNL     1      63.142  10.575   5.549  1.00  0.00     0.168 C 
BRANCH   7   8
HETATM    8  O   UNL     1      64.190  11.313   6.165  1.00  0.00    -0.400 OA
HETATM    9  H   UNL     1      64.463  12.037   5.580  1.00  0.00     0.209 HD
ENDBRANCH   7   8
ENDBRANCH   2   7
TORSDOF 2
ENDMDL
MODEL 4
REMARK VINA RESULT:      -3.2      2.621      4.094
REMARK  2 active torsions:
REMARK  status: ('A' for Active; 'I' for Inactive)
REMARK    1  A    between atoms: O_2  and  C_6 
REMARK    2  A    between atoms: C_3  and  C_6 
ROOT
HETATM    1  O   UNL     1      62.147  10.643   3.454  1.00  0.00    -0.391 OA
HETATM    2  C   UNL     1      63.454   8.328   4.614  1.00  0.00     0.013 C 
HETATM    3  C   UNL     1      62.495  10.663   4.838  1.00  0.00     0.168 C 
HETATM    4  C   UNL     1      61.787   9.340   2.997  1.00  0.00     0.168 C 
HETATM    5  C   UNL     1      62.953   8.369   3.164  1.00  0.00     0.033 C 
HETATM    6  C   UNL     1      63.698   9.765   5.104  1.00  0.00     0.033 C 
ENDROOT
BRANCH   2   7
HETATM    7  C   UNL     1      62.478   7.561   5.517  1.00  0.00     0.168 C 
BRANCH   7   8
HETATM    8  O   UNL     1      62.796   7.769   6.887  1.00  0.00    -0.400 OA
HETATM    9  H   UNL     1      63.162   8.660   7.003  1.00  0.00     0.209 HD
ENDBRANCH   7   8
ENDBRANCH   2   7
TORSDOF 2
ENDMDL
MODEL 5
REMARK VINA RESULT:      -3.2      7.748      8.814
REMARK  2 active torsions:
REMARK  status: ('A' for Active; 'I' for Inactive)
REMARK    1  A    between atoms: O_2  and  C_6 
REMARK    2  A    between atoms: C_3  and  C_6 
ROOT
HETATM    1  O   UNL     1      67.655   4.335   8.808  1.00  0.00    -0.391 OA
HETATM    2  C   UNL     1      66.021   6.587   7.988  1.00  0.00     0.013 C 
HETATM    3  C   UNL     1      68.075   5.657   9.145  1.00  0.00     0.168 C 
HETATM    4  C   UNL     1      66.970   4.277   7.558  1.00  0.00     0.168 C 
HETATM    5  C   UNL     1      65.709   5.136   7.594  1.00  0.00     0.033 C 
HETATM    6  C   UNL     1      66.874   6.589   9.267  1.00  0.00     0.033 C 
ENDROOT
BRANCH   2   7
HETATM    7  C   UNL     1      66.694   7.342   6.835  1.00  0.00     0.168 C 
BRANCH   7   8
HETATM    8  O   UNL     1      66.947   8.693   7.201  1.00  0.00    -0.400 OA
HETATM    9  H   UNL     1      67.619   8.718   7.900  1.00  0.00     0.209 HD
ENDBRANCH   7   8
ENDBRANCH   2   7
TORSDOF 2
ENDMDL
MODEL 6
REMARK VINA RESULT:      -3.2      5.218      6.367
REMARK  2 active torsions:
REMARK  status: ('A' for Active; 'I' for Inactive)
REMARK    1  A    between atoms: O_2  and  C_6 
REMARK    2  A    between atoms: C_3  and  C_6 
ROOT
HETATM    1  O   UNL     1      64.209   7.254   7.118  1.00  0.00    -0.391 OA
HETATM    2  C   UNL     1      66.200   7.985   5.140  1.00  0.00     0.013 C 
HETATM    3  C   UNL     1      65.527   6.714   7.225  1.00  0.00     0.168 C 
HETATM    4  C   UNL     1      63.804   7.449   5.764  1.00  0.00     0.168 C 
HETATM    5  C   UNL     1      64.734   8.433   5.060  1.00  0.00     0.033 C 
HETATM    6  C   UNL     1      66.548   7.658   6.601  1.00  0.00     0.033 C 
ENDROOT
BRANCH   2   7
HETATM    7  C   UNL     1      66.472   6.807   4.195  1.00  0.00     0.168 C 
BRANCH   7   8
HETATM    8  O   UNL     1      67.735   6.218   4.481  1.00  0.00    -0.400 OA
HETATM    9  H   UNL     1      67.802   5.363   4.028  1.00  0.00     0.209 HD
ENDBRANCH   7   8
ENDBRANCH   2   7
TORSDOF 2
ENDMDL
MODEL 7
REMARK VINA RESULT:      -3.1      7.210      8.086
REMARK  2 active torsions:
REMARK  status: ('A' for Active; 'I' for Inactive)
REMARK    1  A    between atoms: O_2  and  C_6 
REMARK    2  A    between atoms: C_3  and  C_6 
ROOT
HETATM    1  O   UNL     1      66.037   4.684   8.632  1.00  0.00    -0.391 OA
HETATM    2  C   UNL     1      67.443   6.514   6.876  1.00  0.00     0.013 C 
HETATM    3  C   UNL     1      65.738   4.675   7.236  1.00  0.00     0.168 C 
HETATM    4  C   UNL     1      66.379   5.983   9.113  1.00  0.00     0.168 C 
HETATM    5  C   UNL     1      67.621   6.512   8.400  1.00  0.00     0.033 C 
HETATM    6  C   UNL     1      66.945   5.132   6.424  1.00  0.00     0.033 C 
ENDROOT
BRANCH   2   7
HETATM    7  C   UNL     1      66.509   7.647   6.428  1.00  0.00     0.168 C 
BRANCH   7   8
HETATM    8  O   UNL     1      66.900   8.880   7.017  1.00  0.00    -0.400 OA
HETATM    9  H   UNL     1      67.051   9.538   6.320  1.00  0.00     0.209 HD
ENDBRANCH   7   8
ENDBRANCH   2   7
TORSDOF 2
ENDMDL
MODEL 8
REMARK VINA RESULT:      -3.1      6.171      7.004
REMARK  2 active torsions:
REMARK  status: ('A' for Active; 'I' for Inactive)
REMARK    1  A    between atoms: O_2  and  C_6 
REMARK    2  A    between atoms: C_3  and  C_6 
ROOT
HETATM    1  O   UNL     1      67.347   5.081   6.448  1.00  0.00    -0.391 OA
HETATM    2  C   UNL     1      66.795   7.926   6.332  1.00  0.00     0.013 C 
HETATM    3  C   UNL     1      67.514   5.770   5.209  1.00  0.00     0.168 C 
HETATM    4  C   UNL     1      66.284   5.615   7.236  1.00  0.00     0.168 C 
HETATM    5  C   UNL     1      66.555   7.075   7.587  1.00  0.00     0.033 C 
HETATM    6  C   UNL     1      67.851   7.237   5.451  1.00  0.00     0.033 C 
ENDROOT
BRANCH   2   7
HETATM    7  C   UNL     1      65.484   8.184   5.577  1.00  0.00     0.168 C 
BRANCH   7   8
HETATM    8  O   UNL     1      65.055   9.527   5.765  1.00  0.00    -0.400 OA
HETATM    9  H   UNL     1      64.481   9.576   6.545  1.00  0.00     0.209 HD
ENDBRANCH   7   8
ENDBRANCH   2   7
TORSDOF 2
ENDMDL
MODEL 9
REMARK VINA RESULT:      -3.0      1.968      2.968
REMARK  2 active torsions:
REMARK  status: ('A' for Active; 'I' for Inactive)
REMARK    1  A    between atoms: O_2  and  C_6 
REMARK    2  A    between atoms: C_3  and  C_6 
ROOT
HETATM    1  O   UNL     1      63.256   8.260   2.844  1.00  0.00    -0.391 OA
HETATM    2  C   UNL     1      61.261   8.487   0.751  1.00  0.00     0.013 C 
HETATM    3  C   UNL     1      62.881   7.093   2.112  1.00  0.00     0.168 C 
HETATM    4  C   UNL     1      62.174   9.174   3.012  1.00  0.00     0.168 C 
HETATM    5  C   UNL     1      61.662   9.659   1.658  1.00  0.00     0.033 C 
HETATM    6  C   UNL     1      62.408   7.465   0.711  1.00  0.00     0.033 C 
ENDROOT
BRANCH   2   7
HETATM    7  C   UNL     1      59.936   7.861   1.206  1.00  0.00     0.168 C 
BRANCH   7   8
HETATM    8  O   UNL     1      58.853   8.749   0.964  1.00  0.00    -0.400 OA
HETATM    9  H   UNL     1      58.726   9.322   1.737  1.00  0.00     0.209 HD
ENDBRANCH   7   8
ENDBRANCH   2   7
TORSDOF 2
ENDMDL
