MODEL 1
REMARK VINA RESULT:      -4.8      0.000      0.000
REMARK  3 active torsions:
REMARK  status: ('A' for Active; 'I' for Inactive)
REMARK    1  A    between atoms: N_1  and  C_2 
REMARK    2  A    between atoms: C_7  and  C_11 
REMARK    3  A    between atoms: N_8  and  C_11 
ROOT
HETATM    1  C   UNL     1      63.018   8.556   4.741  1.00  0.00     0.030 A 
HETATM    2  C   UNL     1      62.595   7.520   5.582  1.00  0.00     0.030 A 
HETATM    3  C   UNL     1      64.387   8.854   4.758  1.00  0.00     0.030 A 
HETATM    4  C   UNL     1      65.288   8.178   5.571  1.00  0.00     0.011 A 
HETATM    5  C   UNL     1      63.491   6.824   6.402  1.00  0.00     0.011 A 
HETATM    6  C   UNL     1      64.848   7.151   6.421  1.00  0.00    -0.033 A 
ENDROOT
BRANCH   1   7
HETATM    7  N   UNL     1      62.165   9.288   3.936  1.00  0.00    -0.381 N 
HETATM    8  C   UNL     1      61.749   8.874   2.600  1.00  0.00     0.123 C 
HETATM    9  C   UNL     1      61.974  10.108   1.740  1.00  0.00     0.021 C 
HETATM   10  C   UNL     1      61.718  11.258   2.698  1.00  0.00     0.021 C 
HETATM   11  C   UNL     1      62.248  10.751   4.032  1.00  0.00     0.123 C 
ENDBRANCH   1   7
BRANCH   6  12
HETATM   12  C   UNL     1      65.810   6.470   7.353  1.00  0.00     0.268 C 
BRANCH  12  13
HETATM   13  N   UNL     1      66.960   7.311   7.666  1.00  0.00    -0.075 N 
HETATM   14  H   UNL     1      67.354   7.029   8.563  1.00  0.00     0.274 HD
HETATM   15  H   UNL     1      66.665   8.286   7.716  1.00  0.00     0.274 HD
HETATM   16  H   UNL     1      67.667   7.206   6.936  1.00  0.00     0.274 HD
ENDBRANCH  12  13
ENDBRANCH   6  12
TORSDOF 3
ENDMDL
MODEL 2
REMARK VINA RESULT:      -4.5      1.509      5.545
REMARK  3 active torsions:
REMARK  status: ('A' for Active; 'I' for Inactive)
REMARK    1  A    between atoms: N_1  and  C_2 
REMARK    2  A    between atoms: C_7  and  C_11 
REMARK    3  A    between atoms: N_8  and  C_11 
ROOT
HETATM    1  C   UNL     1      64.189   8.129   5.033  1.00  0.00     0.030 A 
HETATM    2  C   UNL     1      63.982   7.455   3.825  1.00  0.00     0.030 A 
HETATM    3  C   UNL     1      63.505   9.341   5.196  1.00  0.00     0.030 A 
HETATM    4  C   UNL     1      62.673   9.867   4.216  1.00  0.00     0.011 A 
HETATM    5  C   UNL     1      63.142   7.966   2.829  1.00  0.00     0.011 A 
HETATM    6  C   UNL     1      62.486   9.187   3.002  1.00  0.00    -0.033 A 
ENDROOT
BRANCH   1   7
HETATM    7  N   UNL     1      65.030   7.676   6.033  1.00  0.00    -0.381 N 
HETATM    8  C   UNL     1      66.443   8.027   6.131  1.00  0.00     0.123 C 
HETATM    9  C   UNL     1      67.144   6.694   6.342  1.00  0.00     0.021 C 
HETATM   10  C   UNL     1      66.126   5.878   7.118  1.00  0.00     0.021 C 
HETATM   11  C   UNL     1      64.786   6.323   6.549  1.00  0.00     0.123 C 
ENDBRANCH   1   7
BRANCH   6  12
HETATM   12  C   UNL     1      61.645   9.791   1.913  1.00  0.00     0.268 C 
BRANCH  12  13
HETATM   13  N   UNL     1      61.538  11.240   2.041  1.00  0.00    -0.075 N 
HETATM   14  H   UNL     1      61.374  11.652   1.123  1.00  0.00     0.274 HD
HETATM   15  H   UNL     1      62.405  11.612   2.430  1.00  0.00     0.274 HD
HETATM   16  H   UNL     1      60.760  11.471   2.661  1.00  0.00     0.274 HD
ENDBRANCH  12  13
ENDBRANCH   6  12
TORSDOF 3
ENDMDL
MODEL 3
REMARK VINA RESULT:      -4.4      1.784      5.617
REMARK  3 active torsions:
REMARK  status: ('A' for Active; 'I' for Inactive)
REMARK    1  A    between atoms: N_1  and  C_2 
REMARK    2  A    between atoms: C_7  and  C_11 
REMARK    3  A    between atoms: N_8  and  C_11 
ROOT
HETATM    1  C   UNL     1      65.244   7.586   4.731  1.00  0.00     0.030 A 
HETATM    2  C   UNL     1      64.636   6.923   3.659  1.00  0.00     0.030 A 
HETATM    3  C   UNL     1      64.601   8.741   5.195  1.00  0.00     0.030 A 
HETATM    4  C   UNL     1      63.431   9.225   4.624  1.00  0.00     0.011 A 
HETATM    5  C   UNL     1      63.453   7.393   3.076  1.00  0.00     0.011 A 
HETATM    6  C   UNL     1      62.839   8.558   3.539  1.00  0.00    -0.033 A 
ENDROOT
BRANCH   1   7
HETATM    7  N   UNL     1      66.426   7.175   5.319  1.00  0.00    -0.381 N 
HETATM    8  C   UNL     1      67.273   6.111   4.789  1.00  0.00     0.123 C 
HETATM    9  C   UNL     1      67.554   5.225   5.993  1.00  0.00     0.021 C 
HETATM   10  C   UNL     1      67.560   6.201   7.156  1.00  0.00     0.021 C 
HETATM   11  C   UNL     1      66.496   7.224   6.784  1.00  0.00     0.123 C 
ENDBRANCH   1   7
BRANCH   6  12
HETATM   12  C   UNL     1      61.615   9.122   2.876  1.00  0.00     0.268 C 
BRANCH  12  13
HETATM   13  N   UNL     1      61.537  10.572   3.008  1.00  0.00    -0.075 N 
HETATM   14  H   UNL     1      60.561  10.866   2.965  1.00  0.00     0.274 HD
HETATM   15  H   UNL     1      62.057  11.012   2.249  1.00  0.00     0.274 HD
HETATM   16  H   UNL     1      61.938  10.855   3.903  1.00  0.00     0.274 HD
ENDBRANCH  12  13
ENDBRANCH   6  12
TORSDOF 3
ENDMDL
MODEL 4
REMARK VINA RESULT:      -4.3      1.417      6.073
REMARK  3 active torsions:
REMARK  status: ('A' for Active; 'I' for Inactive)
REMARK    1  A    between atoms: N_1  and  C_2 
REMARK    2  A    between atoms: C_7  and  C_11 
REMARK    3  A    between atoms: N_8  and  C_11 
ROOT
HETATM    1  C   UNL     1      65.044   6.875   6.590  1.00  0.00     0.030 A 
HETATM    2  C   UNL     1      65.550   7.965   5.872  1.00  0.00     0.030 A 
HETATM    3  C   UNL     1      63.671   6.629   6.463  1.00  0.00     0.030 A 
HETATM    4  C   UNL     1      62.839   7.421   5.682  1.00  0.00     0.011 A 
HETATM    5  C   UNL     1      64.728   8.770   5.075  1.00  0.00     0.011 A 
HETATM    6  C   UNL     1      63.358   8.521   4.979  1.00  0.00    -0.033 A 
ENDROOT
BRANCH   1   7
HETATM    7  N   UNL     1      65.813   6.071   7.410  1.00  0.00    -0.381 N 
HETATM    8  C   UNL     1      66.206   6.430   8.769  1.00  0.00     0.123 C 
HETATM    9  C   UNL     1      67.700   6.155   8.810  1.00  0.00     0.021 C 
HETATM   10  C   UNL     1      67.872   4.987   7.856  1.00  0.00     0.021 C 
HETATM   11  C   UNL     1      66.845   5.249   6.764  1.00  0.00     0.123 C 
ENDBRANCH   1   7
BRANCH   6  12
HETATM   12  C   UNL     1      62.446   9.420   4.194  1.00  0.00     0.268 C 
BRANCH  12  13
HETATM   13  N   UNL     1      62.450  10.787   4.703  1.00  0.00    -0.075 N 
HETATM   14  H   UNL     1      63.353  11.220   4.508  1.00  0.00     0.274 HD
HETATM   15  H   UNL     1      62.290  10.775   5.710  1.00  0.00     0.274 HD
HETATM   16  H   UNL     1      61.710  11.323   4.247  1.00  0.00     0.274 HD
ENDBRANCH  12  13
ENDBRANCH   6  12
TORSDOF 3
ENDMDL
MODEL 5
REMARK VINA RESULT:      -3.9      2.070      3.434
REMARK  3 active torsions:
REMARK  status: ('A' for Active; 'I' for Inactive)
REMARK    1  A    between atoms: N_1  and  C_2 
REMARK    2  A    between atoms: C_7  and  C_11 
REMARK    3  A    between atoms: N_8  and  C_11 
ROOT
HETATM    1  C   UNL     1      65.652   7.160   5.372  1.00  0.00     0.030 A 
HETATM    2  C   UNL     1      66.803   6.507   4.915  1.00  0.00     0.030 A 
HETATM    3  C   UNL     1      65.323   6.973   6.721  1.00  0.00     0.030 A 
HETATM    4  C   UNL     1      66.079   6.175   7.570  1.00  0.00     0.011 A 
HETATM    5  C   UNL     1      67.580   5.706   5.758  1.00  0.00     0.011 A 
HETATM    6  C   UNL     1      67.223   5.514   7.094  1.00  0.00    -0.033 A 
ENDROOT
BRANCH   1   7
HETATM    7  N   UNL     1      64.839   7.939   4.568  1.00  0.00    -0.381 N 
HETATM    8  C   UNL     1      64.097   9.101   5.043  1.00  0.00     0.123 C 
HETATM    9  C   UNL     1      62.689   8.887   4.511  1.00  0.00     0.021 C 
HETATM   10  C   UNL     1      62.912   8.146   3.205  1.00  0.00     0.021 C 
HETATM   11  C   UNL     1      64.115   7.256   3.489  1.00  0.00     0.123 C 
ENDBRANCH   1   7
BRANCH   6  12
HETATM   12  C   UNL     1      67.999   4.593   7.994  1.00  0.00     0.268 C 
BRANCH  12  13
HETATM   13  N   UNL     1      67.126   3.729   8.780  1.00  0.00    -0.075 N 
HETATM   14  H   UNL     1      67.608   2.854   8.985  1.00  0.00     0.274 HD
HETATM   15  H   UNL     1      66.276   3.532   8.251  1.00  0.00     0.274 HD
HETATM   16  H   UNL     1      66.882   4.196   9.654  1.00  0.00     0.274 HD
ENDBRANCH  12  13
ENDBRANCH   6  12
TORSDOF 3
ENDMDL
MODEL 6
REMARK VINA RESULT:      -3.9      2.681      5.361
REMARK  3 active torsions:
REMARK  status: ('A' for Active; 'I' for Inactive)
REMARK    1  A    between atoms: N_1  and  C_2 
REMARK    2  A    between atoms: C_7  and  C_11 
REMARK    3  A    between atoms: N_8  and  C_11 
ROOT
HETATM    1  C   UNL     1      64.648   6.924   3.889  1.00  0.00     0.030 A 
HETATM    2  C   UNL     1      64.919   7.851   4.901  1.00  0.00     0.030 A 
HETATM    3  C   UNL     1      63.593   7.237   3.022  1.00  0.00     0.030 A 
HETATM    4  C   UNL     1      62.837   8.395   3.155  1.00  0.00     0.011 A 
HETATM    5  C   UNL     1      64.173   9.026   5.045  1.00  0.00     0.011 A 
HETATM    6  C   UNL     1      63.111   9.310   4.185  1.00  0.00    -0.033 A 
ENDROOT
BRANCH   1   7
HETATM    7  N   UNL     1      65.341   5.738   3.726  1.00  0.00    -0.381 N 
HETATM    8  C   UNL     1      64.909   4.459   4.279  1.00  0.00     0.123 C 
HETATM    9  C   UNL     1      66.153   3.908   4.958  1.00  0.00     0.021 C 
HETATM   10  C   UNL     1      67.289   4.444   4.105  1.00  0.00     0.021 C 
HETATM   11  C   UNL     1      66.806   5.822   3.673  1.00  0.00     0.123 C 
ENDBRANCH   1   7
BRANCH   6  12
HETATM   12  C   UNL     1      62.247  10.525   4.373  1.00  0.00     0.268 C 
BRANCH  12  13
HETATM   13  N   UNL     1      62.789  11.435   5.375  1.00  0.00    -0.075 N 
HETATM   14  H   UNL     1      62.599  12.398   5.098  1.00  0.00     0.274 HD
HETATM   15  H   UNL     1      63.796  11.296   5.451  1.00  0.00     0.274 HD
HETATM   16  H   UNL     1      62.350  11.248   6.278  1.00  0.00     0.274 HD
ENDBRANCH  12  13
ENDBRANCH   6  12
TORSDOF 3
ENDMDL
MODEL 7
REMARK VINA RESULT:      -3.5      1.904      2.611
REMARK  3 active torsions:
REMARK  status: ('A' for Active; 'I' for Inactive)
REMARK    1  A    between atoms: N_1  and  C_2 
REMARK    2  A    between atoms: C_7  and  C_11 
REMARK    3  A    between atoms: N_8  and  C_11 
ROOT
HETATM    1  C   UNL     1      62.421   7.279   4.943  1.00  0.00     0.030 A 
HETATM    2  C   UNL     1      62.871   6.764   6.164  1.00  0.00     0.030 A 
HETATM    3  C   UNL     1      63.396   7.829   4.101  1.00  0.00     0.030 A 
HETATM    4  C   UNL     1      64.739   7.882   4.449  1.00  0.00     0.011 A 
HETATM    5  C   UNL     1      64.222   6.803   6.528  1.00  0.00     0.011 A 
HETATM    6  C   UNL     1      65.175   7.376   5.684  1.00  0.00    -0.033 A 
ENDROOT
BRANCH   1   7
HETATM    7  N   UNL     1      61.094   7.287   4.554  1.00  0.00    -0.381 N 
HETATM    8  C   UNL     1      60.189   6.155   4.720  1.00  0.00     0.123 C 
HETATM    9  C   UNL     1      59.529   6.003   3.359  1.00  0.00     0.021 C 
HETATM   10  C   UNL     1      59.473   7.426   2.832  1.00  0.00     0.021 C 
HETATM   11  C   UNL     1      60.754   8.062   3.354  1.00  0.00     0.123 C 
ENDBRANCH   1   7
BRANCH   6  12
HETATM   12  C   UNL     1      66.616   7.499   6.091  1.00  0.00     0.268 C 
BRANCH  12  13
HETATM   13  N   UNL     1      66.825   8.574   7.055  1.00  0.00    -0.075 N 
HETATM   14  H   UNL     1      66.775   8.197   8.001  1.00  0.00     0.274 HD
HETATM   15  H   UNL     1      66.102   9.284   6.934  1.00  0.00     0.274 HD
HETATM   16  H   UNL     1      67.743   8.994   6.904  1.00  0.00     0.274 HD
ENDBRANCH  12  13
ENDBRANCH   6  12
TORSDOF 3
ENDMDL
MODEL 8
REMARK VINA RESULT:      -3.5     10.783     12.197
REMARK  3 active torsions:
REMARK  status: ('A' for Active; 'I' for Inactive)
REMARK    1  A    between atoms: N_1  and  C_2 
REMARK    2  A    between atoms: C_7  and  C_11 
REMARK    3  A    between atoms: N_8  and  C_11 
ROOT
HETATM    1  C   UNL     1      60.456   0.248  11.787  1.00  0.00     0.030 A 
HETATM    2  C   UNL     1      59.500   0.524  10.803  1.00  0.00     0.030 A 
HETATM    3  C   UNL     1      60.175   0.713  13.078  1.00  0.00     0.030 A 
HETATM    4  C   UNL     1      59.020   1.425  13.380  1.00  0.00     0.011 A 
HETATM    5  C   UNL     1      58.329   1.234  11.091  1.00  0.00     0.011 A 
HETATM    6  C   UNL     1      58.077   1.708  12.379  1.00  0.00    -0.033 A 
ENDROOT
BRANCH   1   7
HETATM    7  N   UNL     1      61.640  -0.425  11.542  1.00  0.00    -0.381 N 
HETATM    8  C   UNL     1      62.559  -0.863  12.587  1.00  0.00     0.123 C 
HETATM    9  C   UNL     1      63.921  -0.382  12.110  1.00  0.00     0.021 C 
HETATM   10  C   UNL     1      63.812  -0.455  10.598  1.00  0.00     0.021 C 
HETATM   11  C   UNL     1      62.365  -0.076  10.314  1.00  0.00     0.123 C 
ENDBRANCH   1   7
BRANCH   6  12
HETATM   12  C   UNL     1      56.865   2.540  12.690  1.00  0.00     0.268 C 
BRANCH  12  13
HETATM   13  N   UNL     1      56.309   2.233  14.003  1.00  0.00    -0.075 N 
HETATM   14  H   UNL     1      56.465   3.021  14.632  1.00  0.00     0.274 HD
HETATM   15  H   UNL     1      56.766   1.402  14.380  1.00  0.00     0.274 HD
HETATM   16  H   UNL     1      55.307   2.060  13.917  1.00  0.00     0.274 HD
ENDBRANCH  12  13
ENDBRANCH   6  12
TORSDOF 3
ENDMDL
MODEL 9
REMARK VINA RESULT:      -3.5     11.095     12.869
REMARK  3 active torsions:
REMARK  status: ('A' for Active; 'I' for Inactive)
REMARK    1  A    between atoms: N_1  and  C_2 
REMARK    2  A    between atoms: C_7  and  C_11 
REMARK    3  A    between atoms: N_8  and  C_11 
ROOT
HETATM    1  C   UNL     1      58.637   0.623  12.172  1.00  0.00     0.030 A 
HETATM    2  C   UNL     1      58.486   1.928  11.688  1.00  0.00     0.030 A 
HETATM    3  C   UNL     1      57.621   0.148  13.011  1.00  0.00     0.030 A 
HETATM    4  C   UNL     1      56.523   0.922  13.366  1.00  0.00     0.011 A 
HETATM    5  C   UNL     1      57.384   2.718  12.030  1.00  0.00     0.011 A 
HETATM    6  C   UNL     1      56.392   2.235  12.886  1.00  0.00    -0.033 A 
ENDROOT
BRANCH   1   7
HETATM    7  N   UNL     1      59.722  -0.184  11.883  1.00  0.00    -0.381 N 
HETATM    8  C   UNL     1      60.507  -0.886  12.892  1.00  0.00     0.123 C 
HETATM    9  C   UNL     1      61.949  -0.560  12.536  1.00  0.00     0.021 C 
HETATM   10  C   UNL     1      61.918  -0.420  11.025  1.00  0.00     0.021 C 
HETATM   11  C   UNL     1      60.560   0.206  10.741  1.00  0.00     0.123 C 
ENDBRANCH   1   7
BRANCH   6  12
HETATM   12  C   UNL     1      55.243   3.096  13.328  1.00  0.00     0.268 C 
BRANCH  12  13
HETATM   13  N   UNL     1      55.023   3.020  14.768  1.00  0.00    -0.075 N 
HETATM   14  H   UNL     1      55.906   2.820  15.238  1.00  0.00     0.274 HD
HETATM   15  H   UNL     1      54.354   2.277  14.971  1.00  0.00     0.274 HD
HETATM   16  H   UNL     1      54.653   3.911  15.103  1.00  0.00     0.274 HD
ENDBRANCH  12  13
ENDBRANCH   6  12
TORSDOF 3
ENDMDL
