MODEL 1
REMARK VINA RESULT:      -4.4      0.000      0.000
REMARK  1 active torsions:
REMARK  status: ('A' for Active; 'I' for Inactive)
REMARK    1  A    between atoms: C_1  and  C_4 
REMARK       I    between atoms: C_4  and  N_8 
ROOT
HETATM    1  C   UNL     1      62.551  10.042   3.875  1.00  0.00     0.072 A 
HETATM    2  S   UNL     1      63.307   8.566   4.297  1.00  0.00    -0.096 SA
HETATM    3  C   UNL     1      62.018   9.975   2.600  1.00  0.00     0.031 A 
HETATM    4  C   UNL     1      62.920   7.854   2.790  1.00  0.00     0.057 A 
HETATM    5  C   UNL     1      62.224   8.711   1.959  1.00  0.00    -0.054 A 
HETATM    6  C   UNL     1      61.746   8.385   0.585  1.00  0.00     0.048 C 
ENDROOT
BRANCH   1   7
HETATM    7  C   UNL     1      62.498  11.185   4.768  1.00  0.00     0.256 C 
HETATM    8  O   UNL     1      61.838  12.199   4.549  1.00  0.00    -0.267 OA
HETATM    9  N   UNL     1      63.232  11.116   5.920  1.00  0.00    -0.366 N 
HETATM   10  H   UNL     1      63.767  10.313   6.115  1.00  0.00     0.159 HD
HETATM   11  H   UNL     1      63.225  11.869   6.555  1.00  0.00     0.159 HD
ENDBRANCH   1   7
TORSDOF 1
ENDMDL
MODEL 2
REMARK VINA RESULT:      -4.1      1.545      2.312
REMARK  1 active torsions:
REMARK  status: ('A' for Active; 'I' for Inactive)
REMARK    1  A    between atoms: C_1  and  C_4 
REMARK       I    between atoms: C_4  and  N_8 
ROOT
HETATM    1  C   UNL     1      62.915   9.763   4.535  1.00  0.00     0.072 A 
HETATM    2  S   UNL     1      61.781   9.038   3.478  1.00  0.00    -0.096 SA
HETATM    3  C   UNL     1      63.999   8.929   4.741  1.00  0.00     0.031 A 
HETATM    4  C   UNL     1      62.737   7.630   3.303  1.00  0.00     0.057 A 
HETATM    5  C   UNL     1      63.909   7.688   4.032  1.00  0.00    -0.054 A 
HETATM    6  C   UNL     1      64.948   6.620   4.085  1.00  0.00     0.048 C 
ENDROOT
BRANCH   1   7
HETATM    7  C   UNL     1      62.724  11.081   5.114  1.00  0.00     0.256 C 
HETATM    8  O   UNL     1      61.966  11.931   4.651  1.00  0.00    -0.267 OA
HETATM    9  N   UNL     1      63.437  11.381   6.242  1.00  0.00    -0.366 N 
HETATM   10  H   UNL     1      64.048  10.713   6.628  1.00  0.00     0.159 HD
HETATM   11  H   UNL     1      63.337  12.263   6.668  1.00  0.00     0.159 HD
ENDBRANCH   1   7
TORSDOF 1
ENDMDL
MODEL 3
REMARK VINA RESULT:      -4.1      2.071      2.365
REMARK  1 active torsions:
REMARK  status: ('A' for Active; 'I' for Inactive)
REMARK    1  A    between atoms: C_1  and  C_4 
REMARK       I    between atoms: C_4  and  N_8 
ROOT
HETATM    1  C   UNL     1      62.961   9.216   3.982  1.00  0.00     0.072 A 
HETATM    2  S   UNL     1      62.072  10.640   3.653  1.00  0.00    -0.096 SA
HETATM    3  C   UNL     1      62.982   8.383   2.879  1.00  0.00     0.031 A 
HETATM    4  C   UNL     1      61.725  10.139   2.054  1.00  0.00     0.057 A 
HETATM    5  C   UNL     1      62.269   8.906   1.752  1.00  0.00    -0.054 A 
HETATM    6  C   UNL     1      62.143   8.202   0.444  1.00  0.00     0.048 C 
ENDROOT
BRANCH   1   7
HETATM    7  C   UNL     1      63.594   8.960   5.264  1.00  0.00     0.256 C 
HETATM    8  O   UNL     1      64.676   9.435   5.602  1.00  0.00    -0.267 OA
HETATM    9  N   UNL     1      62.935   8.139   6.136  1.00  0.00    -0.366 N 
HETATM   10  H   UNL     1      62.067   7.749   5.884  1.00  0.00     0.159 HD
HETATM   11  H   UNL     1      63.328   7.939   7.017  1.00  0.00     0.159 HD
ENDBRANCH   1   7
TORSDOF 1
ENDMDL
MODEL 4
REMARK VINA RESULT:      -4.0      2.151      2.917
REMARK  1 active torsions:
REMARK  status: ('A' for Active; 'I' for Inactive)
REMARK    1  A    between atoms: C_1  and  C_4 
REMARK       I    between atoms: C_4  and  N_8 
ROOT
HETATM    1  C   UNL     1      62.444   9.773   3.734  1.00  0.00     0.072 A 
HETATM    2  S   UNL     1      62.508   8.564   2.525  1.00  0.00    -0.096 SA
HETATM    3  C   UNL     1      62.926   9.291   4.937  1.00  0.00     0.031 A 
HETATM    4  C   UNL     1      63.175   7.418   3.605  1.00  0.00     0.057 A 
HETATM    5  C   UNL     1      63.354   7.926   4.877  1.00  0.00    -0.054 A 
HETATM    6  C   UNL     1      63.914   7.175   6.037  1.00  0.00     0.048 C 
ENDROOT
BRANCH   1   7
HETATM    7  C   UNL     1      61.943  11.113   3.485  1.00  0.00     0.256 C 
HETATM    8  O   UNL     1      61.866  11.989   4.344  1.00  0.00    -0.267 OA
HETATM    9  N   UNL     1      61.536  11.404   2.212  1.00  0.00    -0.366 N 
HETATM   10  H   UNL     1      61.590  10.717   1.509  1.00  0.00     0.159 HD
HETATM   11  H   UNL     1      61.190  12.301   1.998  1.00  0.00     0.159 HD
ENDBRANCH   1   7
TORSDOF 1
ENDMDL
MODEL 5
REMARK VINA RESULT:      -3.9      2.422      2.886
REMARK  1 active torsions:
REMARK  status: ('A' for Active; 'I' for Inactive)
REMARK    1  A    between atoms: C_1  and  C_4 
REMARK       I    between atoms: C_4  and  N_8 
ROOT
HETATM    1  C   UNL     1      62.854   8.681   4.585  1.00  0.00     0.072 A 
HETATM    2  S   UNL     1      62.496   7.686   3.239  1.00  0.00    -0.096 SA
HETATM    3  C   UNL     1      62.593  10.009   4.297  1.00  0.00     0.031 A 
HETATM    4  C   UNL     1      62.000   9.022   2.293  1.00  0.00     0.057 A 
HETATM    5  C   UNL     1      62.097  10.221   2.971  1.00  0.00    -0.054 A 
HETATM    6  C   UNL     1      61.740  11.559   2.419  1.00  0.00     0.048 C 
ENDROOT
BRANCH   1   7
HETATM    7  C   UNL     1      63.359   8.158   5.841  1.00  0.00     0.256 C 
HETATM    8  O   UNL     1      62.643   7.788   6.769  1.00  0.00    -0.267 OA
HETATM    9  N   UNL     1      64.716   8.076   5.986  1.00  0.00    -0.366 N 
HETATM   10  H   UNL     1      65.307   8.367   5.255  1.00  0.00     0.159 HD
HETATM   11  H   UNL     1      65.103   7.727   6.822  1.00  0.00     0.159 HD
ENDBRANCH   1   7
TORSDOF 1
ENDMDL
MODEL 6
REMARK VINA RESULT:      -3.7      3.332      3.761
REMARK  1 active torsions:
REMARK  status: ('A' for Active; 'I' for Inactive)
REMARK    1  A    between atoms: C_1  and  C_4 
REMARK       I    between atoms: C_4  and  N_8 
ROOT
HETATM    1  C   UNL     1      64.701   8.121   5.000  1.00  0.00     0.072 A 
HETATM    2  S   UNL     1      64.351   7.016   3.741  1.00  0.00    -0.096 SA
HETATM    3  C   UNL     1      63.846   9.206   4.954  1.00  0.00     0.031 A 
HETATM    4  C   UNL     1      63.070   7.985   3.151  1.00  0.00     0.057 A 
HETATM    5  C   UNL     1      62.894   9.141   3.887  1.00  0.00    -0.054 A 
HETATM    6  C   UNL     1      61.862  10.184   3.623  1.00  0.00     0.048 C 
ENDROOT
BRANCH   1   7
HETATM    7  C   UNL     1      65.764   7.906   5.966  1.00  0.00     0.256 C 
HETATM    8  O   UNL     1      66.345   8.811   6.561  1.00  0.00    -0.267 OA
HETATM    9  N   UNL     1      66.130   6.613   6.219  1.00  0.00    -0.366 N 
HETATM   10  H   UNL     1      65.677   5.874   5.753  1.00  0.00     0.159 HD
HETATM   11  H   UNL     1      66.846   6.421   6.867  1.00  0.00     0.159 HD
ENDBRANCH   1   7
TORSDOF 1
ENDMDL
MODEL 7
REMARK VINA RESULT:      -3.6      5.727      6.566
REMARK  1 active torsions:
REMARK  status: ('A' for Active; 'I' for Inactive)
REMARK    1  A    between atoms: C_1  and  C_4 
REMARK       I    between atoms: C_4  and  N_8 
ROOT
HETATM    1  C   UNL     1      66.278   7.258   6.128  1.00  0.00     0.072 A 
HETATM    2  S   UNL     1      67.080   6.033   5.242  1.00  0.00    -0.096 SA
HETATM    3  C   UNL     1      66.606   7.189   7.470  1.00  0.00     0.031 A 
HETATM    4  C   UNL     1      67.853   5.427   6.643  1.00  0.00     0.057 A 
HETATM    5  C   UNL     1      67.519   6.132   7.783  1.00  0.00    -0.054 A 
HETATM    6  C   UNL     1      68.028   5.848   9.155  1.00  0.00     0.048 C 
ENDROOT
BRANCH   1   7
HETATM    7  C   UNL     1      65.382   8.220   5.511  1.00  0.00     0.256 C 
HETATM    8  O   UNL     1      65.288   9.394   5.862  1.00  0.00    -0.267 OA
HETATM    9  N   UNL     1      64.604   7.779   4.477  1.00  0.00    -0.366 N 
HETATM   10  H   UNL     1      64.665   6.843   4.180  1.00  0.00     0.159 HD
HETATM   11  H   UNL     1      63.983   8.398   4.029  1.00  0.00     0.159 HD
ENDBRANCH   1   7
TORSDOF 1
ENDMDL
MODEL 8
REMARK VINA RESULT:      -3.5      4.077      4.472
REMARK  1 active torsions:
REMARK  status: ('A' for Active; 'I' for Inactive)
REMARK    1  A    between atoms: C_1  and  C_4 
REMARK       I    between atoms: C_4  and  N_8 
ROOT
HETATM    1  C   UNL     1      65.141   7.733   5.841  1.00  0.00     0.072 A 
HETATM    2  S   UNL     1      63.871   6.698   6.333  1.00  0.00    -0.096 SA
HETATM    3  C   UNL     1      64.685   8.675   4.937  1.00  0.00     0.031 A 
HETATM    4  C   UNL     1      62.732   7.509   5.347  1.00  0.00     0.057 A 
HETATM    5  C   UNL     1      63.290   8.557   4.642  1.00  0.00    -0.054 A 
HETATM    6  C   UNL     1      62.557   9.452   3.701  1.00  0.00     0.048 C 
ENDROOT
BRANCH   1   7
HETATM    7  C   UNL     1      66.501   7.603   6.334  1.00  0.00     0.256 C 
HETATM    8  O   UNL     1      67.252   6.675   6.041  1.00  0.00    -0.267 OA
HETATM    9  N   UNL     1      66.960   8.580   7.173  1.00  0.00    -0.366 N 
HETATM   10  H   UNL     1      66.374   9.332   7.420  1.00  0.00     0.159 HD
HETATM   11  H   UNL     1      67.876   8.532   7.531  1.00  0.00     0.159 HD
ENDBRANCH   1   7
TORSDOF 1
ENDMDL
MODEL 9
REMARK VINA RESULT:      -3.4      2.235      2.733
REMARK  1 active torsions:
REMARK  status: ('A' for Active; 'I' for Inactive)
REMARK    1  A    between atoms: C_1  and  C_4 
REMARK       I    between atoms: C_4  and  N_8 
ROOT
HETATM    1  C   UNL     1      63.572   8.544   4.070  1.00  0.00     0.072 A 
HETATM    2  S   UNL     1      62.334   9.041   2.997  1.00  0.00    -0.096 SA
HETATM    3  C   UNL     1      64.093   7.321   3.687  1.00  0.00     0.031 A 
HETATM    4  C   UNL     1      62.503   7.634   2.037  1.00  0.00     0.057 A 
HETATM    5  C   UNL     1      63.483   6.782   2.509  1.00  0.00    -0.054 A 
HETATM    6  C   UNL     1      63.866   5.481   1.892  1.00  0.00     0.048 C 
ENDROOT
BRANCH   1   7
HETATM    7  C   UNL     1      63.987   9.333   5.216  1.00  0.00     0.256 C 
HETATM    8  O   UNL     1      65.085   9.232   5.757  1.00  0.00    -0.267 OA
HETATM    9  N   UNL     1      63.091  10.240   5.711  1.00  0.00    -0.366 N 
HETATM   10  H   UNL     1      62.206  10.337   5.291  1.00  0.00     0.159 HD
HETATM   11  H   UNL     1      63.331  10.797   6.486  1.00  0.00     0.159 HD
ENDBRANCH   1   7
TORSDOF 1
ENDMDL
