MODEL 1
REMARK VINA RESULT:      -5.6      0.000      0.000
REMARK  3 active torsions:
REMARK  status: ('A' for Active; 'I' for Inactive)
REMARK    1  A    between atoms: C_1  and  C_7 
REMARK    2  A    between atoms: C_6  and  C_9 
REMARK    3  A    between atoms: N_8  and  C_9 
ROOT
HETATM    1  C   UNL     1      65.051   8.295   5.583  1.00  0.00     0.111 A 
HETATM    2  N   UNL     1      66.805   8.504   6.981  1.00  0.00    -0.263 N 
ATOM      3  HN  UNL     1      67.525   8.909   7.581  1.00  0.00     0.194 HD
HETATM    4  C   UNL     1      65.511   7.025   5.842  1.00  0.00     0.069 A 
HETATM    5  O   UNL     1      65.835   9.183   6.263  1.00  0.00    -0.237 OA
HETATM    6  C   UNL     1      66.600   7.206   6.726  1.00  0.00     0.060 A 
ENDROOT
BRANCH   1   7
HETATM    7  C   UNL     1      63.957   8.846   4.790  1.00  0.00    -0.000 A 
HETATM    8  C   UNL     1      63.349  10.051   5.170  1.00  0.00     0.014 A 
HETATM    9  C   UNL     1      62.301  10.595   4.423  1.00  0.00     0.001 A 
HETATM   10  C   UNL     1      61.846   9.941   3.281  1.00  0.00     0.000 A 
HETATM   11  C   UNL     1      62.440   8.744   2.887  1.00  0.00     0.001 A 
HETATM   12  C   UNL     1      63.488   8.200   3.635  1.00  0.00     0.014 A 
ENDBRANCH   1   7
BRANCH   6  13
HETATM   13  C   UNL     1      67.454   6.158   7.352  1.00  0.00     0.288 C 
BRANCH  13  14
HETATM   14  N   UNL     1      67.853   6.593   8.694  1.00  0.00    -0.074 N 
HETATM   15  H   UNL     1      68.870   6.627   8.752  1.00  0.00     0.274 HD
HETATM   16  H   UNL     1      67.494   5.934   9.385  1.00  0.00     0.274 HD
HETATM   17  H   UNL     1      67.471   7.521   8.878  1.00  0.00     0.274 HD
ENDBRANCH  13  14
ENDBRANCH   6  13
TORSDOF 3
ENDMDL
MODEL 2
REMARK VINA RESULT:      -5.3      1.365      2.039
REMARK  3 active torsions:
REMARK  status: ('A' for Active; 'I' for Inactive)
REMARK    1  A    between atoms: C_1  and  C_7 
REMARK    2  A    between atoms: C_6  and  C_9 
REMARK    3  A    between atoms: N_8  and  C_9 
ROOT
HETATM    1  C   UNL     1      64.007   8.366   5.004  1.00  0.00     0.111 A 
HETATM    2  N   UNL     1      64.290   7.241   6.934  1.00  0.00    -0.263 N 
ATOM      3  HN  UNL     1      64.106   6.801   7.837  1.00  0.00     0.194 HD
HETATM    4  C   UNL     1      65.327   7.980   5.053  1.00  0.00     0.069 A 
HETATM    5  O   UNL     1      63.388   7.927   6.138  1.00  0.00    -0.237 OA
HETATM    6  C   UNL     1      65.453   7.273   6.272  1.00  0.00     0.060 A 
ENDROOT
BRANCH   1   7
HETATM    7  C   UNL     1      63.189   9.092   4.038  1.00  0.00    -0.000 A 
HETATM    8  C   UNL     1      62.901   8.521   2.789  1.00  0.00     0.014 A 
HETATM    9  C   UNL     1      62.118   9.200   1.851  1.00  0.00     0.001 A 
HETATM   10  C   UNL     1      61.610  10.461   2.150  1.00  0.00     0.000 A 
HETATM   11  C   UNL     1      61.884  11.042   3.385  1.00  0.00     0.001 A 
HETATM   12  C   UNL     1      62.667  10.363   4.324  1.00  0.00     0.014 A 
ENDBRANCH   1   7
BRANCH   6  13
HETATM   13  C   UNL     1      66.667   6.608   6.823  1.00  0.00     0.288 C 
BRANCH  13  14
HETATM   14  N   UNL     1      67.173   7.383   7.959  1.00  0.00    -0.074 N 
HETATM   15  H   UNL     1      66.862   8.351   7.876  1.00  0.00     0.274 HD
HETATM   16  H   UNL     1      68.193   7.353   7.964  1.00  0.00     0.274 HD
HETATM   17  H   UNL     1      66.817   6.985   8.827  1.00  0.00     0.274 HD
ENDBRANCH  13  14
ENDBRANCH   6  13
TORSDOF 3
ENDMDL
MODEL 3
REMARK VINA RESULT:      -5.0      2.559      5.490
REMARK  3 active torsions:
REMARK  status: ('A' for Active; 'I' for Inactive)
REMARK    1  A    between atoms: C_1  and  C_7 
REMARK    2  A    between atoms: C_6  and  C_9 
REMARK    3  A    between atoms: N_8  and  C_9 
ROOT
HETATM    1  C   UNL     1      64.567   8.805   5.076  1.00  0.00     0.111 A 
HETATM    2  N   UNL     1      63.629  10.787   5.592  1.00  0.00    -0.263 N 
ATOM      3  HN  UNL     1      63.448  11.689   6.033  1.00  0.00     0.194 HD
HETATM    4  C   UNL     1      63.470   8.954   4.259  1.00  0.00     0.069 A 
HETATM    5  O   UNL     1      64.655   9.904   5.881  1.00  0.00    -0.237 OA
HETATM    6  C   UNL     1      62.922  10.210   4.612  1.00  0.00     0.060 A 
ENDROOT
BRANCH   1   7
HETATM    7  C   UNL     1      65.593   7.780   5.234  1.00  0.00    -0.000 A 
HETATM    8  C   UNL     1      65.873   6.896   4.181  1.00  0.00     0.014 A 
HETATM    9  C   UNL     1      66.853   5.908   4.313  1.00  0.00     0.001 A 
HETATM   10  C   UNL     1      67.569   5.791   5.501  1.00  0.00     0.000 A 
HETATM   11  C   UNL     1      67.307   6.662   6.556  1.00  0.00     0.001 A 
HETATM   12  C   UNL     1      66.326   7.650   6.424  1.00  0.00     0.014 A 
ENDBRANCH   1   7
BRANCH   6  13
HETATM   13  C   UNL     1      61.735  10.889   4.022  1.00  0.00     0.288 C 
BRANCH  13  14
HETATM   14  N   UNL     1      61.691  10.627   2.581  1.00  0.00    -0.074 N 
HETATM   15  H   UNL     1      60.720  10.607   2.269  1.00  0.00     0.274 HD
HETATM   16  H   UNL     1      62.129   9.728   2.385  1.00  0.00     0.274 HD
HETATM   17  H   UNL     1      62.191  11.365   2.086  1.00  0.00     0.274 HD
ENDBRANCH  13  14
ENDBRANCH   6  13
TORSDOF 3
ENDMDL
MODEL 4
REMARK VINA RESULT:      -4.8      1.812      1.930
REMARK  3 active torsions:
REMARK  status: ('A' for Active; 'I' for Inactive)
REMARK    1  A    between atoms: C_1  and  C_7 
REMARK    2  A    between atoms: C_6  and  C_9 
REMARK    3  A    between atoms: N_8  and  C_9 
ROOT
HETATM    1  C   UNL     1      63.622   7.822   4.889  1.00  0.00     0.111 A 
HETATM    2  N   UNL     1      64.413   7.261   6.922  1.00  0.00    -0.263 N 
ATOM      3  HN  UNL     1      64.676   7.306   7.907  1.00  0.00     0.194 HD
HETATM    4  C   UNL     1      64.088   6.531   4.795  1.00  0.00     0.069 A 
HETATM    5  O   UNL     1      63.826   8.261   6.165  1.00  0.00    -0.237 OA
HETATM    6  C   UNL     1      64.564   6.221   6.091  1.00  0.00     0.060 A 
ENDROOT
BRANCH   1   7
HETATM    7  C   UNL     1      62.984   8.750   3.960  1.00  0.00    -0.000 A 
HETATM    8  C   UNL     1      62.564  10.012   4.404  1.00  0.00     0.014 A 
HETATM    9  C   UNL     1      61.953  10.915   3.530  1.00  0.00     0.001 A 
HETATM   10  C   UNL     1      61.754  10.568   2.196  1.00  0.00     0.000 A 
HETATM   11  C   UNL     1      62.167   9.320   1.738  1.00  0.00     0.001 A 
HETATM   12  C   UNL     1      62.778   8.416   2.613  1.00  0.00     0.014 A 
ENDBRANCH   1   7
BRANCH   6  13
HETATM   13  C   UNL     1      65.154   4.939   6.567  1.00  0.00     0.288 C 
BRANCH  13  14
HETATM   14  N   UNL     1      66.615   5.044   6.561  1.00  0.00    -0.074 N 
HETATM   15  H   UNL     1      66.887   5.996   6.314  1.00  0.00     0.274 HD
HETATM   16  H   UNL     1      67.001   4.392   5.879  1.00  0.00     0.274 HD
HETATM   17  H   UNL     1      66.976   4.819   7.488  1.00  0.00     0.274 HD
ENDBRANCH  13  14
ENDBRANCH   6  13
TORSDOF 3
ENDMDL
MODEL 5
REMARK VINA RESULT:      -4.8      2.379      5.662
REMARK  3 active torsions:
REMARK  status: ('A' for Active; 'I' for Inactive)
REMARK    1  A    between atoms: C_1  and  C_7 
REMARK    2  A    between atoms: C_6  and  C_9 
REMARK    3  A    between atoms: N_8  and  C_9 
ROOT
HETATM    1  C   UNL     1      64.926   7.353   6.313  1.00  0.00     0.111 A 
HETATM    2  N   UNL     1      62.833   8.179   6.413  1.00  0.00    -0.263 N 
ATOM      3  HN  UNL     1      61.870   8.350   6.705  1.00  0.00     0.194 HD
HETATM    4  C   UNL     1      64.806   8.267   5.292  1.00  0.00     0.069 A 
HETATM    5  O   UNL     1      63.736   7.297   6.980  1.00  0.00    -0.237 OA
HETATM    6  C   UNL     1      63.486   8.763   5.400  1.00  0.00     0.060 A 
ENDROOT
BRANCH   1   7
HETATM    7  C   UNL     1      66.003   6.498   6.800  1.00  0.00    -0.000 A 
HETATM    8  C   UNL     1      66.316   6.471   8.167  1.00  0.00     0.014 A 
HETATM    9  C   UNL     1      67.344   5.657   8.653  1.00  0.00     0.001 A 
HETATM   10  C   UNL     1      68.073   4.858   7.778  1.00  0.00     0.000 A 
HETATM   11  C   UNL     1      67.774   4.870   6.418  1.00  0.00     0.001 A 
HETATM   12  C   UNL     1      66.746   5.685   5.931  1.00  0.00     0.014 A 
ENDBRANCH   1   7
BRANCH   6  13
HETATM   13  C   UNL     1      62.826   9.801   4.560  1.00  0.00     0.288 C 
BRANCH  13  14
HETATM   14  N   UNL     1      62.877  11.092   5.252  1.00  0.00    -0.074 N 
HETATM   15  H   UNL     1      61.996  11.249   5.743  1.00  0.00     0.274 HD
HETATM   16  H   UNL     1      63.024  11.837   4.572  1.00  0.00     0.274 HD
HETATM   17  H   UNL     1      63.643  11.087   5.924  1.00  0.00     0.274 HD
ENDBRANCH  13  14
ENDBRANCH   6  13
TORSDOF 3
ENDMDL
MODEL 6
REMARK VINA RESULT:      -4.3      2.754      3.236
REMARK  3 active torsions:
REMARK  status: ('A' for Active; 'I' for Inactive)
REMARK    1  A    between atoms: C_1  and  C_7 
REMARK    2  A    between atoms: C_6  and  C_9 
REMARK    3  A    between atoms: N_8  and  C_9 
ROOT
HETATM    1  C   UNL     1      62.986   7.749   4.222  1.00  0.00     0.111 A 
HETATM    2  N   UNL     1      64.528   6.214   4.801  1.00  0.00    -0.263 N 
ATOM      3  HN  UNL     1      65.409   5.704   4.877  1.00  0.00     0.194 HD
HETATM    4  C   UNL     1      62.359   6.842   5.045  1.00  0.00     0.069 A 
HETATM    5  O   UNL     1      64.286   7.365   4.071  1.00  0.00    -0.237 OA
HETATM    6  C   UNL     1      63.364   5.908   5.388  1.00  0.00     0.060 A 
ENDROOT
BRANCH   1   7
HETATM    7  C   UNL     1      62.567   8.966   3.534  1.00  0.00    -0.000 A 
HETATM    8  C   UNL     1      62.379   8.959   2.144  1.00  0.00     0.014 A 
HETATM    9  C   UNL     1      61.977  10.114   1.466  1.00  0.00     0.001 A 
HETATM   10  C   UNL     1      61.757  11.294   2.171  1.00  0.00     0.000 A 
HETATM   11  C   UNL     1      61.936  11.318   3.552  1.00  0.00     0.001 A 
HETATM   12  C   UNL     1      62.338  10.163   4.229  1.00  0.00     0.014 A 
ENDBRANCH   1   7
BRANCH   6  13
HETATM   13  C   UNL     1      63.245   4.723   6.284  1.00  0.00     0.288 C 
BRANCH  13  14
HETATM   14  N   UNL     1      64.544   4.452   6.906  1.00  0.00    -0.074 N 
HETATM   15  H   UNL     1      65.289   4.646   6.237  1.00  0.00     0.274 HD
HETATM   16  H   UNL     1      64.587   3.473   7.189  1.00  0.00     0.274 HD
HETATM   17  H   UNL     1      64.659   5.048   7.725  1.00  0.00     0.274 HD
ENDBRANCH  13  14
ENDBRANCH   6  13
TORSDOF 3
ENDMDL
MODEL 7
REMARK VINA RESULT:      -3.9      2.166      2.996
REMARK  3 active torsions:
REMARK  status: ('A' for Active; 'I' for Inactive)
REMARK    1  A    between atoms: C_1  and  C_7 
REMARK    2  A    between atoms: C_6  and  C_9 
REMARK    3  A    between atoms: N_8  and  C_9 
ROOT
HETATM    1  C   UNL     1      62.936   7.518   4.327  1.00  0.00     0.111 A 
HETATM    2  N   UNL     1      63.642   7.921   6.427  1.00  0.00    -0.263 N 
ATOM      3  HN  UNL     1      63.771   8.359   7.340  1.00  0.00     0.194 HD
HETATM    4  C   UNL     1      63.788   6.493   4.667  1.00  0.00     0.069 A 
HETATM    5  O   UNL     1      62.856   8.378   5.383  1.00  0.00    -0.237 OA
HETATM    6  C   UNL     1      64.196   6.783   5.990  1.00  0.00     0.060 A 
ENDROOT
BRANCH   1   7
HETATM    7  C   UNL     1      62.144   7.840   3.144  1.00  0.00    -0.000 A 
HETATM    8  C   UNL     1      61.083   7.007   2.759  1.00  0.00     0.014 A 
HETATM    9  C   UNL     1      60.312   7.299   1.630  1.00  0.00     0.001 A 
HETATM   10  C   UNL     1      60.591   8.431   0.870  1.00  0.00     0.000 A 
HETATM   11  C   UNL     1      61.639   9.271   1.239  1.00  0.00     0.001 A 
HETATM   12  C   UNL     1      62.411   8.978   2.368  1.00  0.00     0.014 A 
ENDBRANCH   1   7
BRANCH   6  13
HETATM   13  C   UNL     1      65.102   5.987   6.864  1.00  0.00     0.288 C 
BRANCH  13  14
HETATM   14  N   UNL     1      65.622   6.843   7.935  1.00  0.00    -0.074 N 
HETATM   15  H   UNL     1      66.053   6.263   8.654  1.00  0.00     0.274 HD
HETATM   16  H   UNL     1      64.856   7.379   8.343  1.00  0.00     0.274 HD
HETATM   17  H   UNL     1      66.318   7.482   7.551  1.00  0.00     0.274 HD
ENDBRANCH  13  14
ENDBRANCH   6  13
TORSDOF 3
ENDMDL
MODEL 8
REMARK VINA RESULT:      -3.8      4.933      6.829
REMARK  3 active torsions:
REMARK  status: ('A' for Active; 'I' for Inactive)
REMARK    1  A    between atoms: C_1  and  C_7 
REMARK    2  A    between atoms: C_6  and  C_9 
REMARK    3  A    between atoms: N_8  and  C_9 
ROOT
HETATM    1  C   UNL     1      61.074   8.481   2.460  1.00  0.00     0.111 A 
HETATM    2  N   UNL     1      60.332   8.197   0.353  1.00  0.00    -0.263 N 
ATOM      3  HN  UNL     1      60.202   8.309  -0.653  1.00  0.00     0.194 HD
HETATM    4  C   UNL     1      60.157   7.456   2.493  1.00  0.00     0.069 A 
HETATM    5  O   UNL     1      61.172   8.929   1.175  1.00  0.00    -0.237 OA
HETATM    6  C   UNL     1      59.728   7.309   1.153  1.00  0.00     0.060 A 
ENDROOT
BRANCH   1   7
HETATM    7  C   UNL     1      61.916   9.132   3.458  1.00  0.00    -0.000 A 
HETATM    8  C   UNL     1      62.950   8.417   4.082  1.00  0.00     0.014 A 
HETATM    9  C   UNL     1      63.768   9.024   5.039  1.00  0.00     0.001 A 
HETATM   10  C   UNL     1      63.565  10.356   5.386  1.00  0.00     0.000 A 
HETATM   11  C   UNL     1      62.545  11.082   4.775  1.00  0.00     0.001 A 
HETATM   12  C   UNL     1      61.726  10.475   3.818  1.00  0.00     0.014 A 
ENDBRANCH   1   7
BRANCH   6  13
HETATM   13  C   UNL     1      58.754   6.324   0.606  1.00  0.00     0.288 C 
BRANCH  13  14
HETATM   14  N   UNL     1      57.404   6.673   1.055  1.00  0.00    -0.074 N 
HETATM   15  H   UNL     1      56.730   6.033   0.636  1.00  0.00     0.274 HD
HETATM   16  H   UNL     1      57.187   7.628   0.772  1.00  0.00     0.274 HD
HETATM   17  H   UNL     1      57.354   6.600   2.071  1.00  0.00     0.274 HD
ENDBRANCH  13  14
ENDBRANCH   6  13
TORSDOF 3
ENDMDL
MODEL 9
REMARK VINA RESULT:      -3.8      3.483      3.723
REMARK  3 active torsions:
REMARK  status: ('A' for Active; 'I' for Inactive)
REMARK    1  A    between atoms: C_1  and  C_7 
REMARK    2  A    between atoms: C_6  and  C_9 
REMARK    3  A    between atoms: N_8  and  C_9 
ROOT
HETATM    1  C   UNL     1      62.898   6.206   6.332  1.00  0.00     0.111 A 
HETATM    2  N   UNL     1      64.770   7.174   7.126  1.00  0.00    -0.263 N 
ATOM      3  HN  UNL     1      65.421   7.866   7.499  1.00  0.00     0.194 HD
HETATM    4  C   UNL     1      63.876   5.238   6.346  1.00  0.00     0.069 A 
HETATM    5  O   UNL     1      63.440   7.370   6.793  1.00  0.00    -0.237 OA
HETATM    6  C   UNL     1      65.023   5.887   6.858  1.00  0.00     0.060 A 
ENDROOT
BRANCH   1   7
HETATM    7  C   UNL     1      61.488   6.230   5.957  1.00  0.00    -0.000 A 
HETATM    8  C   UNL     1      61.109   6.632   4.667  1.00  0.00     0.014 A 
HETATM    9  C   UNL     1      59.764   6.661   4.289  1.00  0.00     0.001 A 
HETATM   10  C   UNL     1      58.777   6.288   5.197  1.00  0.00     0.000 A 
HETATM   11  C   UNL     1      59.135   5.884   6.481  1.00  0.00     0.001 A 
HETATM   12  C   UNL     1      60.481   5.855   6.859  1.00  0.00     0.014 A 
ENDBRANCH   1   7
BRANCH   6  13
HETATM   13  C   UNL     1      66.369   5.302   7.114  1.00  0.00     0.288 C 
BRANCH  13  14
HETATM   14  N   UNL     1      66.348   4.569   8.383  1.00  0.00    -0.074 N 
HETATM   15  H   UNL     1      65.580   4.911   8.960  1.00  0.00     0.274 HD
HETATM   16  H   UNL     1      67.231   4.712   8.872  1.00  0.00     0.274 HD
HETATM   17  H   UNL     1      66.217   3.575   8.199  1.00  0.00     0.274 HD
ENDBRANCH  13  14
ENDBRANCH   6  13
TORSDOF 3
ENDMDL
