MODEL 1
REMARK VINA RESULT:      -5.6      0.000      0.000
REMARK  3 active torsions:
REMARK  status: ('A' for Active; 'I' for Inactive)
REMARK    1  A    between atoms: C_1  and  C_7 
REMARK    2  A    between atoms: C_6  and  C_8 
REMARK    3  A    between atoms: C_8  and  O_9 
ROOT
HETATM    1  C   UNL     1      65.058   8.278   5.575  1.00  0.00     0.111 A 
HETATM    2  N   UNL     1      66.807   8.498   6.976  1.00  0.00    -0.263 N 
ATOM      3  HN  UNL     1      67.525   8.905   7.575  1.00  0.00     0.194 HD
HETATM    4  C   UNL     1      65.530   7.011   5.826  1.00  0.00     0.069 A 
HETATM    5  O   UNL     1      65.826   9.170   6.266  1.00  0.00    -0.237 OA
HETATM    6  C   UNL     1      66.615   7.199   6.711  1.00  0.00     0.058 A 
ENDROOT
BRANCH   1   7
HETATM    7  C   UNL     1      63.970   8.823   4.767  1.00  0.00    -0.000 A 
HETATM    8  C   UNL     1      63.344  10.021   5.146  1.00  0.00     0.014 A 
HETATM    9  C   UNL     1      62.298  10.557   4.390  1.00  0.00     0.001 A 
HETATM   10  C   UNL     1      61.864   9.904   3.241  1.00  0.00     0.000 A 
HETATM   11  C   UNL     1      62.473   8.716   2.847  1.00  0.00     0.001 A 
HETATM   12  C   UNL     1      63.520   8.180   3.604  1.00  0.00     0.014 A 
ENDBRANCH   1   7
BRANCH   6  13
HETATM   13  C   UNL     1      67.500   6.163   7.313  1.00  0.00     0.223 C 
BRANCH  13  14
HETATM   14  O   UNL     1      68.072   6.574   8.554  1.00  0.00    -0.395 OA
HETATM   15  H   UNL     1      69.038   6.504   8.503  1.00  0.00     0.209 HD
ENDBRANCH  13  14
ENDBRANCH   6  13
TORSDOF 3
ENDMDL
MODEL 2
REMARK VINA RESULT:      -5.4      1.259      1.872
REMARK  3 active torsions:
REMARK  status: ('A' for Active; 'I' for Inactive)
REMARK    1  A    between atoms: C_1  and  C_7 
REMARK    2  A    between atoms: C_6  and  C_8 
REMARK    3  A    between atoms: C_8  and  O_9 
ROOT
HETATM    1  C   UNL     1      64.250   8.382   5.342  1.00  0.00     0.111 A 
HETATM    2  N   UNL     1      64.622   6.979   7.064  1.00  0.00    -0.263 N 
ATOM      3  HN  UNL     1      64.475   6.374   7.872  1.00  0.00     0.194 HD
HETATM    4  C   UNL     1      65.606   8.152   5.385  1.00  0.00     0.069 A 
HETATM    5  O   UNL     1      63.661   7.677   6.352  1.00  0.00    -0.237 OA
HETATM    6  C   UNL     1      65.788   7.266   6.468  1.00  0.00     0.058 A 
ENDROOT
BRANCH   1   7
HETATM    7  C   UNL     1      63.374   9.179   4.488  1.00  0.00    -0.000 A 
HETATM    8  C   UNL     1      62.985   8.693   3.230  1.00  0.00     0.014 A 
HETATM    9  C   UNL     1      62.151   9.443   2.396  1.00  0.00     0.001 A 
HETATM   10  C   UNL     1      61.692  10.689   2.808  1.00  0.00     0.000 A 
HETATM   11  C   UNL     1      62.064  11.188   4.053  1.00  0.00     0.001 A 
HETATM   12  C   UNL     1      62.899  10.438   4.888  1.00  0.00     0.014 A 
ENDBRANCH   1   7
BRANCH   6  13
HETATM   13  C   UNL     1      67.062   6.682   6.974  1.00  0.00     0.223 C 
BRANCH  13  14
HETATM   14  O   UNL     1      67.476   7.248   8.218  1.00  0.00    -0.395 OA
HETATM   15  H   UNL     1      68.158   6.686   8.617  1.00  0.00     0.209 HD
ENDBRANCH  13  14
ENDBRANCH   6  13
TORSDOF 3
ENDMDL
MODEL 3
REMARK VINA RESULT:      -5.3      2.190      5.387
REMARK  3 active torsions:
REMARK  status: ('A' for Active; 'I' for Inactive)
REMARK    1  A    between atoms: C_1  and  C_7 
REMARK    2  A    between atoms: C_6  and  C_8 
REMARK    3  A    between atoms: C_8  and  O_9 
ROOT
HETATM    1  C   UNL     1      64.660   8.683   5.111  1.00  0.00     0.111 A 
HETATM    2  N   UNL     1      63.645  10.647   5.538  1.00  0.00    -0.263 N 
ATOM      3  HN  UNL     1      63.419  11.554   5.948  1.00  0.00     0.194 HD
HETATM    4  C   UNL     1      63.583   8.770   4.259  1.00  0.00     0.069 A 
HETATM    5  O   UNL     1      64.695   9.811   5.879  1.00  0.00    -0.237 OA
HETATM    6  C   UNL     1      62.987  10.015   4.557  1.00  0.00     0.058 A 
ENDROOT
BRANCH   1   7
HETATM    7  C   UNL     1      65.703   7.688   5.344  1.00  0.00    -0.000 A 
HETATM    8  C   UNL     1      66.282   7.559   6.617  1.00  0.00     0.014 A 
HETATM    9  C   UNL     1      67.285   6.616   6.859  1.00  0.00     0.001 A 
HETATM   10  C   UNL     1      67.724   5.787   5.832  1.00  0.00     0.000 A 
HETATM   11  C   UNL     1      67.161   5.898   4.563  1.00  0.00     0.001 A 
HETATM   12  C   UNL     1      66.157   6.841   4.321  1.00  0.00     0.014 A 
ENDBRANCH   1   7
BRANCH   6  13
HETATM   13  C   UNL     1      61.780  10.628   3.936  1.00  0.00     0.223 C 
BRANCH  13  14
HETATM   14  O   UNL     1      61.922  12.031   3.713  1.00  0.00    -0.395 OA
HETATM   15  H   UNL     1      61.885  12.212   2.761  1.00  0.00     0.209 HD
ENDBRANCH  13  14
ENDBRANCH   6  13
TORSDOF 3
ENDMDL
MODEL 4
REMARK VINA RESULT:      -5.3      3.827      4.862
REMARK  3 active torsions:
REMARK  status: ('A' for Active; 'I' for Inactive)
REMARK    1  A    between atoms: C_1  and  C_7 
REMARK    2  A    between atoms: C_6  and  C_8 
REMARK    3  A    between atoms: C_8  and  O_9 
ROOT
HETATM    1  C   UNL     1      62.006   9.888   3.470  1.00  0.00     0.111 A 
HETATM    2  N   UNL     1      62.086  11.928   4.419  1.00  0.00    -0.263 N 
ATOM      3  HN  UNL     1      61.968  12.928   4.581  1.00  0.00     0.194 HD
HETATM    4  C   UNL     1      62.677   9.748   4.663  1.00  0.00     0.069 A 
HETATM    5  O   UNL     1      61.653  11.198   3.325  1.00  0.00    -0.237 OA
HETATM    6  C   UNL     1      62.694  11.044   5.222  1.00  0.00     0.058 A 
ENDROOT
BRANCH   1   7
HETATM    7  C   UNL     1      61.624   8.973   2.398  1.00  0.00    -0.000 A 
HETATM    8  C   UNL     1      60.482   8.167   2.534  1.00  0.00     0.014 A 
HETATM    9  C   UNL     1      60.101   7.282   1.521  1.00  0.00     0.001 A 
HETATM   10  C   UNL     1      60.857   7.190   0.357  1.00  0.00     0.000 A 
HETATM   11  C   UNL     1      61.991   7.982   0.202  1.00  0.00     0.001 A 
HETATM   12  C   UNL     1      62.372   8.868   1.215  1.00  0.00     0.014 A 
ENDBRANCH   1   7
BRANCH   6  13
HETATM   13  C   UNL     1      63.295  11.480   6.513  1.00  0.00     0.223 C 
BRANCH  13  14
HETATM   14  O   UNL     1      64.721  11.426   6.509  1.00  0.00    -0.395 OA
HETATM   15  H   UNL     1      65.074  12.166   7.027  1.00  0.00     0.209 HD
ENDBRANCH  13  14
ENDBRANCH   6  13
TORSDOF 3
ENDMDL
MODEL 5
REMARK VINA RESULT:      -4.9      2.349      2.553
REMARK  3 active torsions:
REMARK  status: ('A' for Active; 'I' for Inactive)
REMARK    1  A    between atoms: C_1  and  C_7 
REMARK    2  A    between atoms: C_6  and  C_8 
REMARK    3  A    between atoms: C_8  and  O_9 
ROOT
HETATM    1  C   UNL     1      63.179   8.160   4.742  1.00  0.00     0.111 A 
HETATM    2  N   UNL     1      64.250   7.491   6.607  1.00  0.00    -0.263 N 
ATOM      3  HN  UNL     1      64.773   7.503   7.482  1.00  0.00     0.194 HD
HETATM    4  C   UNL     1      63.133   6.785   4.758  1.00  0.00     0.069 A 
HETATM    5  O   UNL     1      63.851   8.582   5.853  1.00  0.00    -0.237 OA
HETATM    6  C   UNL     1      63.806   6.415   5.943  1.00  0.00     0.058 A 
ENDROOT
BRANCH   1   7
HETATM    7  C   UNL     1      62.686   9.190   3.832  1.00  0.00    -0.000 A 
HETATM    8  C   UNL     1      62.365  10.467   4.321  1.00  0.00     0.014 A 
HETATM    9  C   UNL     1      61.887  11.464   3.467  1.00  0.00     0.001 A 
HETATM   10  C   UNL     1      61.724  11.201   2.111  1.00  0.00     0.000 A 
HETATM   11  C   UNL     1      62.038   9.943   1.607  1.00  0.00     0.001 A 
HETATM   12  C   UNL     1      62.517   8.944   2.461  1.00  0.00     0.014 A 
ENDBRANCH   1   7
BRANCH   6  13
HETATM   13  C   UNL     1      64.057   5.044   6.467  1.00  0.00     0.223 C 
BRANCH  13  14
HETATM   14  O   UNL     1      64.979   4.304   5.667  1.00  0.00    -0.395 OA
HETATM   15  H   UNL     1      64.761   3.360   5.713  1.00  0.00     0.209 HD
ENDBRANCH  13  14
ENDBRANCH   6  13
TORSDOF 3
ENDMDL
MODEL 6
REMARK VINA RESULT:      -4.7      1.806      2.849
REMARK  3 active torsions:
REMARK  status: ('A' for Active; 'I' for Inactive)
REMARK    1  A    between atoms: C_1  and  C_7 
REMARK    2  A    between atoms: C_6  and  C_8 
REMARK    3  A    between atoms: C_8  and  O_9 
ROOT
HETATM    1  C   UNL     1      63.875   8.179   3.936  1.00  0.00     0.111 A 
HETATM    2  N   UNL     1      64.624   9.159   5.820  1.00  0.00    -0.263 N 
ATOM      3  HN  UNL     1      64.741   9.816   6.591  1.00  0.00     0.194 HD
HETATM    4  C   UNL     1      64.881   7.380   4.430  1.00  0.00     0.069 A 
HETATM    5  O   UNL     1      63.723   9.247   4.772  1.00  0.00    -0.237 OA
HETATM    6  C   UNL     1      65.310   8.027   5.609  1.00  0.00     0.058 A 
ENDROOT
BRANCH   1   7
HETATM    7  C   UNL     1      62.998   8.116   2.770  1.00  0.00    -0.000 A 
HETATM    8  C   UNL     1      62.976   6.964   1.967  1.00  0.00     0.014 A 
HETATM    9  C   UNL     1      62.147   6.886   0.845  1.00  0.00     0.001 A 
HETATM   10  C   UNL     1      61.326   7.957   0.509  1.00  0.00     0.000 A 
HETATM   11  C   UNL     1      61.331   9.107   1.294  1.00  0.00     0.001 A 
HETATM   12  C   UNL     1      62.161   9.185   2.417  1.00  0.00     0.014 A 
ENDBRANCH   1   7
BRANCH   6  13
HETATM   13  C   UNL     1      66.383   7.604   6.551  1.00  0.00     0.223 C 
BRANCH  13  14
HETATM   14  O   UNL     1      66.963   8.698   7.261  1.00  0.00    -0.395 OA
HETATM   15  H   UNL     1      66.319   9.421   7.322  1.00  0.00     0.209 HD
ENDBRANCH  13  14
ENDBRANCH   6  13
TORSDOF 3
ENDMDL
MODEL 7
REMARK VINA RESULT:      -4.7      3.341      4.760
REMARK  3 active torsions:
REMARK  status: ('A' for Active; 'I' for Inactive)
REMARK    1  A    between atoms: C_1  and  C_7 
REMARK    2  A    between atoms: C_6  and  C_8 
REMARK    3  A    between atoms: C_8  and  O_9 
ROOT
HETATM    1  C   UNL     1      63.118   8.663   3.775  1.00  0.00     0.111 A 
HETATM    2  N   UNL     1      61.883  10.482   4.263  1.00  0.00    -0.263 N 
ATOM      3  HN  UNL     1      61.163  11.202   4.229  1.00  0.00     0.194 HD
HETATM    4  C   UNL     1      63.701   9.260   4.869  1.00  0.00     0.069 A 
HETATM    5  O   UNL     1      62.027   9.398   3.413  1.00  0.00    -0.237 OA
HETATM    6  C   UNL     1      62.891  10.384   5.141  1.00  0.00     0.058 A 
ENDROOT
BRANCH   1   7
HETATM    7  C   UNL     1      63.417   7.477   2.977  1.00  0.00    -0.000 A 
HETATM    8  C   UNL     1      64.402   6.572   3.403  1.00  0.00     0.014 A 
HETATM    9  C   UNL     1      64.706   5.434   2.651  1.00  0.00     0.001 A 
HETATM   10  C   UNL     1      64.029   5.183   1.462  1.00  0.00     0.000 A 
HETATM   11  C   UNL     1      63.048   6.068   1.024  1.00  0.00     0.001 A 
HETATM   12  C   UNL     1      62.743   7.207   1.776  1.00  0.00     0.014 A 
ENDBRANCH   1   7
BRANCH   6  13
HETATM   13  C   UNL     1      63.056  11.397   6.221  1.00  0.00     0.223 C 
BRANCH  13  14
HETATM   14  O   UNL     1      64.424  11.638   6.551  1.00  0.00    -0.395 OA
HETATM   15  H   UNL     1      64.995  11.129   5.955  1.00  0.00     0.209 HD
ENDBRANCH  13  14
ENDBRANCH   6  13
TORSDOF 3
ENDMDL
MODEL 8
REMARK VINA RESULT:      -4.2      1.520      2.112
REMARK  3 active torsions:
REMARK  status: ('A' for Active; 'I' for Inactive)
REMARK    1  A    between atoms: C_1  and  C_7 
REMARK    2  A    between atoms: C_6  and  C_8 
REMARK    3  A    between atoms: C_8  and  O_9 
ROOT
HETATM    1  C   UNL     1      65.322   7.144   5.735  1.00  0.00     0.111 A 
HETATM    2  N   UNL     1      67.323   6.243   6.243  1.00  0.00    -0.263 N 
ATOM      3  HN  UNL     1      68.273   5.883   6.161  1.00  0.00     0.194 HD
HETATM    4  C   UNL     1      65.298   6.846   7.078  1.00  0.00     0.069 A 
HETATM    5  O   UNL     1      66.539   6.780   5.236  1.00  0.00    -0.237 OA
HETATM    6  C   UNL     1      66.569   6.295   7.349  1.00  0.00     0.058 A 
ENDROOT
BRANCH   1   7
HETATM    7  C   UNL     1      64.368   7.731   4.799  1.00  0.00    -0.000 A 
HETATM    8  C   UNL     1      64.085   7.086   3.585  1.00  0.00     0.014 A 
HETATM    9  C   UNL     1      63.178   7.634   2.674  1.00  0.00     0.001 A 
HETATM   10  C   UNL     1      62.539   8.835   2.963  1.00  0.00     0.000 A 
HETATM   11  C   UNL     1      62.804   9.489   4.163  1.00  0.00     0.001 A 
HETATM   12  C   UNL     1      63.712   8.941   5.075  1.00  0.00     0.014 A 
ENDBRANCH   1   7
BRANCH   6  13
HETATM   13  C   UNL     1      67.094   5.794   8.650  1.00  0.00     0.223 C 
BRANCH  13  14
HETATM   14  O   UNL     1      66.811   4.412   8.867  1.00  0.00    -0.395 OA
HETATM   15  H   UNL     1      66.957   3.919   8.045  1.00  0.00     0.209 HD
ENDBRANCH  13  14
ENDBRANCH   6  13
TORSDOF 3
ENDMDL
MODEL 9
REMARK VINA RESULT:      -4.1      3.804      6.259
REMARK  3 active torsions:
REMARK  status: ('A' for Active; 'I' for Inactive)
REMARK    1  A    between atoms: C_1  and  C_7 
REMARK    2  A    between atoms: C_6  and  C_8 
REMARK    3  A    between atoms: C_8  and  O_9 
ROOT
HETATM    1  C   UNL     1      62.461   7.823   3.539  1.00  0.00     0.111 A 
HETATM    2  N   UNL     1      60.575   9.018   3.248  1.00  0.00    -0.263 N 
ATOM      3  HN  UNL     1      59.898   9.780   3.263  1.00  0.00     0.194 HD
HETATM    4  C   UNL     1      61.554   6.994   2.920  1.00  0.00     0.069 A 
HETATM    5  O   UNL     1      61.871   9.038   3.735  1.00  0.00    -0.237 OA
HETATM    6  C   UNL     1      60.397   7.786   2.752  1.00  0.00     0.058 A 
ENDROOT
BRANCH   1   7
HETATM    7  C   UNL     1      63.839   7.670   3.999  1.00  0.00    -0.000 A 
HETATM    8  C   UNL     1      64.655   6.666   3.454  1.00  0.00     0.014 A 
HETATM    9  C   UNL     1      65.975   6.501   3.884  1.00  0.00     0.001 A 
HETATM   10  C   UNL     1      66.498   7.337   4.864  1.00  0.00     0.000 A 
HETATM   11  C   UNL     1      65.706   8.340   5.414  1.00  0.00     0.001 A 
HETATM   12  C   UNL     1      64.385   8.506   4.984  1.00  0.00     0.014 A 
ENDBRANCH   1   7
BRANCH   6  13
HETATM   13  C   UNL     1      59.098   7.396   2.136  1.00  0.00     0.223 C 
BRANCH  13  14
HETATM   14  O   UNL     1      58.509   8.448   1.371  1.00  0.00    -0.395 OA
HETATM   15  H   UNL     1      58.333   9.207   1.947  1.00  0.00     0.209 HD
ENDBRANCH  13  14
ENDBRANCH   6  13
TORSDOF 3
ENDMDL
