MODEL 1
REMARK VINA RESULT:      -5.7      0.000      0.000
REMARK  2 active torsions:
REMARK  status: ('A' for Active; 'I' for Inactive)
REMARK    1  A    between atoms: C_3  and  C_5 
REMARK    2  A    between atoms: C_10  and  N_12 
ROOT
HETATM    1  N   UNL     1      65.524   7.469   6.866  1.00  0.00    -0.345 N 
ATOM      2  HN  UNL     1      64.634   7.588   7.349  1.00  0.00     0.167 HD
HETATM    3  C   UNL     1      65.679   7.846   5.576  1.00  0.00     0.045 A 
HETATM    4  C   UNL     1      66.590   6.929   7.488  1.00  0.00     0.077 A 
HETATM    5  N   UNL     1      67.792   6.730   6.918  1.00  0.00    -0.356 N 
ATOM      6  HN  UNL     1      68.570   6.319   7.431  1.00  0.00     0.166 HD
HETATM    7  C   UNL     1      66.881   7.668   4.914  1.00  0.00     0.047 A 
HETATM    8  C   UNL     1      67.907   7.106   5.635  1.00  0.00     0.091 A 
HETATM    9  C   UNL     1      66.431   6.495   8.911  1.00  0.00     0.089 C 
ENDROOT
BRANCH   3  10
HETATM   10  C   UNL     1      64.488   8.429   4.918  1.00  0.00    -0.007 A 
HETATM   11  C   UNL     1      63.953   9.673   5.313  1.00  0.00     0.042 A 
HETATM   12  C   UNL     1      62.841  10.241   4.679  1.00  0.00     0.026 A 
HETATM   13  C   UNL     1      62.297   9.593   3.572  1.00  0.00     0.029 A 
HETATM   14  C   UNL     1      62.780   8.348   3.174  1.00  0.00     0.003 A 
HETATM   15  C   UNL     1      63.858   7.769   3.849  1.00  0.00     0.014 A 
BRANCH  12  16
HETATM   16  N   UNL     1      62.441  11.544   5.003  1.00  0.00    -0.399 N 
HETATM   17  H   UNL     1      62.892  12.031   5.730  1.00  0.00     0.156 HD
HETATM   18  H   UNL     1      61.710  11.973   4.504  1.00  0.00     0.156 HD
ENDBRANCH  12  16
ENDBRANCH   3  10
TORSDOF 2
ENDMDL
MODEL 2
REMARK VINA RESULT:      -5.5      1.872      5.666
REMARK  2 active torsions:
REMARK  status: ('A' for Active; 'I' for Inactive)
REMARK    1  A    between atoms: C_3  and  C_5 
REMARK    2  A    between atoms: C_10  and  N_12 
ROOT
HETATM    1  N   UNL     1      62.817   8.706   2.957  1.00  0.00    -0.345 N 
ATOM      2  HN  UNL     1      63.158   7.790   2.665  1.00  0.00     0.167 HD
HETATM    3  C   UNL     1      63.079   9.192   4.192  1.00  0.00     0.045 A 
HETATM    4  C   UNL     1      62.088   9.476   2.127  1.00  0.00     0.077 A 
HETATM    5  N   UNL     1      61.596  10.688   2.439  1.00  0.00    -0.356 N 
ATOM      6  HN  UNL     1      61.050  11.236   1.775  1.00  0.00     0.166 HD
HETATM    7  C   UNL     1      62.601  10.426   4.595  1.00  0.00     0.047 A 
HETATM    8  C   UNL     1      61.865  11.135   3.675  1.00  0.00     0.091 A 
HETATM    9  C   UNL     1      61.781   8.948   0.761  1.00  0.00     0.089 C 
ENDROOT
BRANCH   3  10
HETATM   10  C   UNL     1      63.875   8.318   5.083  1.00  0.00    -0.007 A 
HETATM   11  C   UNL     1      65.231   8.583   5.369  1.00  0.00     0.042 A 
HETATM   12  C   UNL     1      65.982   7.775   6.230  1.00  0.00     0.026 A 
HETATM   13  C   UNL     1      65.348   6.722   6.886  1.00  0.00     0.029 A 
HETATM   14  C   UNL     1      64.019   6.412   6.602  1.00  0.00     0.003 A 
HETATM   15  C   UNL     1      63.296   7.197   5.701  1.00  0.00     0.014 A 
BRANCH  12  16
HETATM   16  N   UNL     1      67.276   8.163   6.604  1.00  0.00    -0.399 N 
HETATM   17  H   UNL     1      67.557   9.101   6.501  1.00  0.00     0.156 HD
HETATM   18  H   UNL     1      67.903   7.500   6.971  1.00  0.00     0.156 HD
ENDBRANCH  12  16
ENDBRANCH   3  10
TORSDOF 2
ENDMDL
MODEL 3
REMARK VINA RESULT:      -5.3      1.721      2.712
REMARK  2 active torsions:
REMARK  status: ('A' for Active; 'I' for Inactive)
REMARK    1  A    between atoms: C_3  and  C_5 
REMARK    2  A    between atoms: C_10  and  N_12 
ROOT
HETATM    1  N   UNL     1      65.605   8.124   5.085  1.00  0.00    -0.345 N 
ATOM      2  HN  UNL     1      66.005   8.851   4.493  1.00  0.00     0.167 HD
HETATM    3  C   UNL     1      64.273   8.060   5.317  1.00  0.00     0.045 A 
HETATM    4  C   UNL     1      66.382   7.191   5.667  1.00  0.00     0.077 A 
HETATM    5  N   UNL     1      65.933   6.208   6.467  1.00  0.00    -0.356 N 
ATOM      6  HN  UNL     1      66.561   5.522   6.884  1.00  0.00     0.166 HD
HETATM    7  C   UNL     1      63.732   7.085   6.135  1.00  0.00     0.047 A 
HETATM    8  C   UNL     1      64.609   6.181   6.684  1.00  0.00     0.091 A 
HETATM    9  C   UNL     1      67.858   7.255   5.430  1.00  0.00     0.089 C 
ENDROOT
BRANCH   3  10
HETATM   10  C   UNL     1      63.447   9.104   4.670  1.00  0.00    -0.007 A 
HETATM   11  C   UNL     1      62.821   8.892   3.424  1.00  0.00     0.042 A 
HETATM   12  C   UNL     1      62.018   9.867   2.818  1.00  0.00     0.026 A 
HETATM   13  C   UNL     1      61.767  11.051   3.506  1.00  0.00     0.029 A 
HETATM   14  C   UNL     1      62.394  11.307   4.724  1.00  0.00     0.003 A 
HETATM   15  C   UNL     1      63.234  10.346   5.292  1.00  0.00     0.014 A 
BRANCH  12  16
HETATM   16  N   UNL     1      61.295   9.556   1.659  1.00  0.00    -0.399 N 
HETATM   17  H   UNL     1      61.642   9.819   0.776  1.00  0.00     0.156 HD
HETATM   18  H   UNL     1      60.440   9.073   1.726  1.00  0.00     0.156 HD
ENDBRANCH  12  16
ENDBRANCH   3  10
TORSDOF 2
ENDMDL
MODEL 4
REMARK VINA RESULT:      -5.2      1.731      2.758
REMARK  2 active torsions:
REMARK  status: ('A' for Active; 'I' for Inactive)
REMARK    1  A    between atoms: C_3  and  C_5 
REMARK    2  A    between atoms: C_10  and  N_12 
ROOT
HETATM    1  N   UNL     1      65.092   8.093   4.668  1.00  0.00    -0.345 N 
ATOM      2  HN  UNL     1      65.570   8.593   3.918  1.00  0.00     0.167 HD
HETATM    3  C   UNL     1      63.763   7.847   4.612  1.00  0.00     0.045 A 
HETATM    4  C   UNL     1      65.761   7.655   5.751  1.00  0.00     0.077 A 
HETATM    5  N   UNL     1      65.202   6.998   6.783  1.00  0.00    -0.356 N 
ATOM      6  HN  UNL     1      65.751   6.683   7.583  1.00  0.00     0.166 HD
HETATM    7  C   UNL     1      63.111   7.185   5.637  1.00  0.00     0.047 A 
HETATM    8  C   UNL     1      63.881   6.780   6.700  1.00  0.00     0.091 A 
HETATM    9  C   UNL     1      67.229   7.929   5.833  1.00  0.00     0.089 C 
ENDROOT
BRANCH   3  10
HETATM   10  C   UNL     1      63.056   8.349   3.412  1.00  0.00    -0.007 A 
HETATM   11  C   UNL     1      62.527   9.655   3.352  1.00  0.00     0.042 A 
HETATM   12  C   UNL     1      61.878  10.144   2.211  1.00  0.00     0.026 A 
HETATM   13  C   UNL     1      61.825   9.342   1.074  1.00  0.00     0.029 A 
HETATM   14  C   UNL     1      62.309   8.035   1.108  1.00  0.00     0.003 A 
HETATM   15  C   UNL     1      62.908   7.543   2.271  1.00  0.00     0.014 A 
BRANCH  12  16
HETATM   16  N   UNL     1      61.506  11.494   2.142  1.00  0.00    -0.399 N 
HETATM   17  H   UNL     1      62.155  12.195   2.381  1.00  0.00     0.156 HD
HETATM   18  H   UNL     1      60.599  11.740   1.855  1.00  0.00     0.156 HD
ENDBRANCH  12  16
ENDBRANCH   3  10
TORSDOF 2
ENDMDL
MODEL 5
REMARK VINA RESULT:      -5.1      1.359      5.176
REMARK  2 active torsions:
REMARK  status: ('A' for Active; 'I' for Inactive)
REMARK    1  A    between atoms: C_3  and  C_5 
REMARK    2  A    between atoms: C_10  and  N_12 
ROOT
HETATM    1  N   UNL     1      64.155   9.384   5.450  1.00  0.00    -0.345 N 
ATOM      2  HN  UNL     1      64.739   9.655   6.240  1.00  0.00     0.167 HD
HETATM    3  C   UNL     1      64.403   8.254   4.748  1.00  0.00     0.045 A 
HETATM    4  C   UNL     1      63.106  10.137   5.066  1.00  0.00     0.077 A 
HETATM    5  N   UNL     1      62.295   9.852   4.031  1.00  0.00    -0.356 N 
ATOM      6  HN  UNL     1      61.511  10.453   3.779  1.00  0.00     0.166 HD
HETATM    7  C   UNL     1      63.622   7.895   3.664  1.00  0.00     0.047 A 
HETATM    8  C   UNL     1      62.577   8.731   3.350  1.00  0.00     0.091 A 
HETATM    9  C   UNL     1      62.825  11.395   5.825  1.00  0.00     0.089 C 
ENDROOT
BRANCH   3  10
HETATM   10  C   UNL     1      65.566   7.453   5.190  1.00  0.00    -0.007 A 
HETATM   11  C   UNL     1      66.107   7.578   6.487  1.00  0.00     0.042 A 
HETATM   12  C   UNL     1      67.192   6.806   6.920  1.00  0.00     0.026 A 
HETATM   13  C   UNL     1      67.700   5.827   6.068  1.00  0.00     0.029 A 
HETATM   14  C   UNL     1      67.211   5.698   4.770  1.00  0.00     0.003 A 
HETATM   15  C   UNL     1      66.162   6.511   4.334  1.00  0.00     0.014 A 
BRANCH  12  16
HETATM   16  N   UNL     1      67.595   6.854   8.261  1.00  0.00    -0.399 N 
HETATM   17  H   UNL     1      68.549   6.778   8.491  1.00  0.00     0.156 HD
HETATM   18  H   UNL     1      66.925   6.966   8.972  1.00  0.00     0.156 HD
ENDBRANCH  12  16
ENDBRANCH   3  10
TORSDOF 2
ENDMDL
MODEL 6
REMARK VINA RESULT:      -5.1      3.212      6.347
REMARK  2 active torsions:
REMARK  status: ('A' for Active; 'I' for Inactive)
REMARK    1  A    between atoms: C_3  and  C_5 
REMARK    2  A    between atoms: C_10  and  N_12 
ROOT
HETATM    1  N   UNL     1      59.789   7.922   3.326  1.00  0.00    -0.345 N 
ATOM      2  HN  UNL     1      59.802   7.792   4.338  1.00  0.00     0.167 HD
HETATM    3  C   UNL     1      60.886   8.349   2.659  1.00  0.00     0.045 A 
HETATM    4  C   UNL     1      58.679   7.673   2.604  1.00  0.00     0.077 A 
HETATM    5  N   UNL     1      58.581   7.827   1.272  1.00  0.00    -0.356 N 
ATOM      6  HN  UNL     1      57.718   7.624   0.768  1.00  0.00     0.166 HD
HETATM    7  C   UNL     1      60.864   8.542   1.290  1.00  0.00     0.047 A 
HETATM    8  C   UNL     1      59.683   8.263   0.644  1.00  0.00     0.091 A 
HETATM    9  C   UNL     1      57.455   7.211   3.329  1.00  0.00     0.089 C 
ENDROOT
BRANCH   3  10
HETATM   10  C   UNL     1      62.086   8.620   3.482  1.00  0.00    -0.007 A 
HETATM   11  C   UNL     1      62.207   9.791   4.259  1.00  0.00     0.042 A 
HETATM   12  C   UNL     1      63.329  10.043   5.058  1.00  0.00     0.026 A 
HETATM   13  C   UNL     1      64.319   9.067   5.149  1.00  0.00     0.029 A 
HETATM   14  C   UNL     1      64.247   7.913   4.372  1.00  0.00     0.003 A 
HETATM   15  C   UNL     1      63.146   7.700   3.539  1.00  0.00     0.014 A 
BRANCH  12  16
HETATM   16  N   UNL     1      63.336  11.142   5.928  1.00  0.00    -0.399 N 
HETATM   17  H   UNL     1      62.510  11.657   6.078  1.00  0.00     0.156 HD
HETATM   18  H   UNL     1      64.166  11.398   6.390  1.00  0.00     0.156 HD
ENDBRANCH  12  16
ENDBRANCH   3  10
TORSDOF 2
ENDMDL
MODEL 7
REMARK VINA RESULT:      -4.6      1.868      2.465
REMARK  2 active torsions:
REMARK  status: ('A' for Active; 'I' for Inactive)
REMARK    1  A    between atoms: C_3  and  C_5 
REMARK    2  A    between atoms: C_10  and  N_12 
ROOT
HETATM    1  N   UNL     1      64.615   6.574   5.009  1.00  0.00    -0.345 N 
ATOM      2  HN  UNL     1      63.829   6.251   4.446  1.00  0.00     0.167 HD
HETATM    3  C   UNL     1      64.811   7.890   5.253  1.00  0.00     0.045 A 
HETATM    4  C   UNL     1      65.498   5.706   5.539  1.00  0.00     0.077 A 
HETATM    5  N   UNL     1      66.562   6.053   6.285  1.00  0.00    -0.356 N 
ATOM      6  HN  UNL     1      67.203   5.358   6.667  1.00  0.00     0.166 HD
HETATM    7  C   UNL     1      65.887   8.331   6.002  1.00  0.00     0.047 A 
HETATM    8  C   UNL     1      66.732   7.367   6.497  1.00  0.00     0.091 A 
HETATM    9  C   UNL     1      65.302   4.247   5.270  1.00  0.00     0.089 C 
ENDROOT
BRANCH   3  10
HETATM   10  C   UNL     1      63.828   8.819   4.650  1.00  0.00    -0.007 A 
HETATM   11  C   UNL     1      63.169   8.522   3.438  1.00  0.00     0.042 A 
HETATM   12  C   UNL     1      62.221   9.384   2.875  1.00  0.00     0.026 A 
HETATM   13  C   UNL     1      61.860  10.533   3.576  1.00  0.00     0.029 A 
HETATM   14  C   UNL     1      62.513  10.873   4.759  1.00  0.00     0.003 A 
HETATM   15  C   UNL     1      63.494  10.028   5.282  1.00  0.00     0.014 A 
BRANCH  12  16
HETATM   16  N   UNL     1      61.482   8.978   1.755  1.00  0.00    -0.399 N 
HETATM   17  H   UNL     1      60.627   8.505   1.875  1.00  0.00     0.156 HD
HETATM   18  H   UNL     1      61.817   9.166   0.850  1.00  0.00     0.156 HD
ENDBRANCH  12  16
ENDBRANCH   3  10
TORSDOF 2
ENDMDL
MODEL 8
REMARK VINA RESULT:      -4.5      1.923      2.197
REMARK  2 active torsions:
REMARK  status: ('A' for Active; 'I' for Inactive)
REMARK    1  A    between atoms: C_3  and  C_5 
REMARK    2  A    between atoms: C_10  and  N_12 
ROOT
HETATM    1  N   UNL     1      64.116   5.991   4.661  1.00  0.00    -0.345 N 
ATOM      2  HN  UNL     1      63.130   5.811   4.475  1.00  0.00     0.167 HD
HETATM    3  C   UNL     1      64.633   7.238   4.567  1.00  0.00     0.045 A 
HETATM    4  C   UNL     1      64.954   4.996   5.011  1.00  0.00     0.077 A 
HETATM    5  N   UNL     1      66.265   5.150   5.263  1.00  0.00    -0.356 N 
ATOM      6  HN  UNL     1      66.860   4.365   5.527  1.00  0.00     0.166 HD
HETATM    7  C   UNL     1      65.974   7.480   4.802  1.00  0.00     0.047 A 
HETATM    8  C   UNL     1      66.747   6.397   5.150  1.00  0.00     0.091 A 
HETATM    9  C   UNL     1      64.400   3.609   5.108  1.00  0.00     0.089 C 
ENDROOT
BRANCH   3  10
HETATM   10  C   UNL     1      63.689   8.308   4.174  1.00  0.00    -0.007 A 
HETATM   11  C   UNL     1      63.497   9.460   4.965  1.00  0.00     0.042 A 
HETATM   12  C   UNL     1      62.624  10.487   4.587  1.00  0.00     0.026 A 
HETATM   13  C   UNL     1      61.986  10.403   3.351  1.00  0.00     0.029 A 
HETATM   14  C   UNL     1      62.128   9.266   2.559  1.00  0.00     0.003 A 
HETATM   15  C   UNL     1      62.963   8.225   2.974  1.00  0.00     0.014 A 
BRANCH  12  16
HETATM   16  N   UNL     1      62.582  11.677   5.325  1.00  0.00    -0.399 N 
HETATM   17  H   UNL     1      62.023  11.736   6.133  1.00  0.00     0.156 HD
HETATM   18  H   UNL     1      63.112  12.454   5.037  1.00  0.00     0.156 HD
ENDBRANCH  12  16
ENDBRANCH   3  10
TORSDOF 2
ENDMDL
MODEL 9
REMARK VINA RESULT:      -4.3      2.564      5.942
REMARK  2 active torsions:
REMARK  status: ('A' for Active; 'I' for Inactive)
REMARK    1  A    between atoms: C_3  and  C_5 
REMARK    2  A    between atoms: C_10  and  N_12 
ROOT
HETATM    1  N   UNL     1      61.464   7.558   3.803  1.00  0.00    -0.345 N 
ATOM      2  HN  UNL     1      61.535   7.108   4.715  1.00  0.00     0.167 HD
HETATM    3  C   UNL     1      62.565   7.991   3.147  1.00  0.00     0.045 A 
HETATM    4  C   UNL     1      60.271   7.745   3.207  1.00  0.00     0.077 A 
HETATM    5  N   UNL     1      60.095   8.336   2.012  1.00  0.00    -0.356 N 
ATOM      6  HN  UNL     1      59.170   8.453   1.599  1.00  0.00     0.166 HD
HETATM    7  C   UNL     1      62.469   8.619   1.918  1.00  0.00     0.047 A 
HETATM    8  C   UNL     1      61.207   8.763   1.394  1.00  0.00     0.091 A 
HETATM    9  C   UNL     1      59.043   7.282   3.925  1.00  0.00     0.089 C 
ENDROOT
BRANCH   3  10
HETATM   10  C   UNL     1      63.860   7.779   3.832  1.00  0.00    -0.007 A 
HETATM   11  C   UNL     1      64.779   6.799   3.402  1.00  0.00     0.042 A 
HETATM   12  C   UNL     1      66.015   6.610   4.030  1.00  0.00     0.026 A 
HETATM   13  C   UNL     1      66.381   7.470   5.063  1.00  0.00     0.029 A 
HETATM   14  C   UNL     1      65.486   8.428   5.534  1.00  0.00     0.003 A 
HETATM   15  C   UNL     1      64.234   8.571   4.931  1.00  0.00     0.014 A 
BRANCH  12  16
HETATM   16  N   UNL     1      66.956   5.733   3.474  1.00  0.00    -0.399 N 
HETATM   17  H   UNL     1      67.365   5.938   2.602  1.00  0.00     0.156 HD
HETATM   18  H   UNL     1      67.210   4.913   3.955  1.00  0.00     0.156 HD
ENDBRANCH  12  16
ENDBRANCH   3  10
TORSDOF 2
ENDMDL
