MODEL 1
REMARK VINA RESULT:      -5.2      0.000      0.000
REMARK  2 active torsions:
REMARK  status: ('A' for Active; 'I' for Inactive)
REMARK    1  A    between atoms: CA_5  and  C_11 
REMARK    2  A    between atoms: C_11  and  O_12 
ROOT
HETATM    1  N   UNL     1      62.166  11.011   3.887  1.00  0.00    -0.343 N 
ATOM      2  HN  UNL     1      61.730  11.927   3.788  1.00  0.00     0.167 HD
HETATM    3  N   UNL     1      62.869   8.924   3.482  1.00  0.00    -0.317 N 
HETATM    4  C   UNL     1      62.187  10.038   2.999  1.00  0.00     0.111 A 
HETATM    5  CA  UNL     1      62.859  10.529   4.982  1.00  0.00     0.050 A 
HETATM    6  C   UNL     1      63.291   9.238   4.748  1.00  0.00     0.125 A 
HETATM    7  C   UNL     1      63.044   7.751   2.756  1.00  0.00     0.098 A 
HETATM    8  C   UNL     1      61.649   9.941   1.683  1.00  0.00     0.049 A 
HETATM    9  C   UNL     1      62.534   7.664   1.514  1.00  0.00     0.018 A 
HETATM   10  C   UNL     1      61.812   8.807   0.972  1.00  0.00     0.005 A 
ENDROOT
BRANCH   5  11
HETATM   11  C   UNL     1      63.036  11.367   6.199  1.00  0.00     0.222 C 
BRANCH  11  12
HETATM   12  O   UNL     1      64.413  11.584   6.494  1.00  0.00    -0.395 OA
HETATM   13  H   UNL     1      64.960  11.049   5.897  1.00  0.00     0.209 HD
ENDBRANCH  11  12
ENDBRANCH   5  11
TORSDOF 2
ENDMDL
MODEL 2
REMARK VINA RESULT:      -4.9      0.833      1.776
REMARK  2 active torsions:
REMARK  status: ('A' for Active; 'I' for Inactive)
REMARK    1  A    between atoms: CA_5  and  C_11 
REMARK    2  A    between atoms: C_11  and  O_12 
ROOT
HETATM    1  N   UNL     1      63.326   9.207   4.661  1.00  0.00    -0.343 N 
ATOM      2  HN  UNL     1      63.883   8.683   5.335  1.00  0.00     0.167 HD
HETATM    3  N   UNL     1      62.213   9.803   2.812  1.00  0.00    -0.317 N 
HETATM    4  C   UNL     1      62.965   8.823   3.453  1.00  0.00     0.111 A 
HETATM    5  CA  UNL     1      62.790  10.472   4.822  1.00  0.00     0.050 A 
HETATM    6  C   UNL     1      62.107  10.855   3.685  1.00  0.00     0.125 A 
HETATM    7  C   UNL     1      61.700   9.665   1.526  1.00  0.00     0.098 A 
HETATM    8  C   UNL     1      63.208   7.621   2.727  1.00  0.00     0.049 A 
HETATM    9  C   UNL     1      61.933   8.528   0.844  1.00  0.00     0.018 A 
HETATM   10  C   UNL     1      62.718   7.479   1.480  1.00  0.00     0.005 A 
ENDROOT
BRANCH   5  11
HETATM   11  C   UNL     1      63.002  11.232   6.085  1.00  0.00     0.222 C 
BRANCH  11  12
HETATM   12  O   UNL     1      64.387  11.424   6.358  1.00  0.00    -0.395 OA
HETATM   13  H   UNL     1      64.836  10.564   6.372  1.00  0.00     0.209 HD
ENDBRANCH  11  12
ENDBRANCH   5  11
TORSDOF 2
ENDMDL
MODEL 3
REMARK VINA RESULT:      -4.6      1.939      2.904
REMARK  2 active torsions:
REMARK  status: ('A' for Active; 'I' for Inactive)
REMARK    1  A    between atoms: CA_5  and  C_11 
REMARK    2  A    between atoms: C_11  and  O_12 
ROOT
HETATM    1  N   UNL     1      63.550   9.137   5.454  1.00  0.00    -0.343 N 
ATOM      2  HN  UNL     1      63.657   9.549   6.381  1.00  0.00     0.167 HD
HETATM    3  N   UNL     1      62.991   8.816   3.310  1.00  0.00    -0.317 N 
HETATM    4  C   UNL     1      62.952   9.671   4.408  1.00  0.00     0.111 A 
HETATM    5  CA  UNL     1      64.001   7.900   5.031  1.00  0.00     0.050 A 
HETATM    6  C   UNL     1      63.655   7.686   3.712  1.00  0.00     0.125 A 
HETATM    7  C   UNL     1      62.436   9.124   2.072  1.00  0.00     0.098 A 
HETATM    8  C   UNL     1      62.301  10.925   4.225  1.00  0.00     0.049 A 
HETATM    9  C   UNL     1      61.821  10.309   1.903  1.00  0.00     0.018 A 
HETATM   10  C   UNL     1      61.758  11.231   3.029  1.00  0.00     0.005 A 
ENDROOT
BRANCH   5  11
HETATM   11  C   UNL     1      64.731   6.997   5.964  1.00  0.00     0.222 C 
BRANCH  11  12
HETATM   12  O   UNL     1      64.321   7.193   7.314  1.00  0.00    -0.395 OA
HETATM   13  H   UNL     1      64.571   6.419   7.843  1.00  0.00     0.209 HD
ENDBRANCH  11  12
ENDBRANCH   5  11
TORSDOF 2
ENDMDL
MODEL 4
REMARK VINA RESULT:      -4.5      2.089      2.882
REMARK  2 active torsions:
REMARK  status: ('A' for Active; 'I' for Inactive)
REMARK    1  A    between atoms: CA_5  and  C_11 
REMARK    2  A    between atoms: C_11  and  O_12 
ROOT
HETATM    1  N   UNL     1      64.376   9.312   5.759  1.00  0.00    -0.343 N 
ATOM      2  HN  UNL     1      64.488   9.934   6.560  1.00  0.00     0.167 HD
HETATM    3  N   UNL     1      63.638   8.390   3.857  1.00  0.00    -0.317 N 
HETATM    4  C   UNL     1      63.508   9.429   4.774  1.00  0.00     0.111 A 
HETATM    5  CA  UNL     1      65.102   8.170   5.479  1.00  0.00     0.050 A 
HETATM    6  C   UNL     1      64.651   7.586   4.311  1.00  0.00     0.125 A 
HETATM    7  C   UNL     1      62.849   8.262   2.719  1.00  0.00     0.098 A 
HETATM    8  C   UNL     1      62.502  10.402   4.507  1.00  0.00     0.049 A 
HETATM    9  C   UNL     1      61.899   9.182   2.470  1.00  0.00     0.018 A 
HETATM   10  C   UNL     1      61.730  10.285   3.407  1.00  0.00     0.005 A 
ENDROOT
BRANCH   5  11
HETATM   11  C   UNL     1      66.186   7.715   6.392  1.00  0.00     0.222 C 
BRANCH  11  12
HETATM   12  O   UNL     1      66.877   8.814   6.979  1.00  0.00    -0.395 OA
HETATM   13  H   UNL     1      67.378   8.507   7.750  1.00  0.00     0.209 HD
ENDBRANCH  11  12
ENDBRANCH   5  11
TORSDOF 2
ENDMDL
MODEL 5
REMARK VINA RESULT:      -4.4      1.862      2.962
REMARK  2 active torsions:
REMARK  status: ('A' for Active; 'I' for Inactive)
REMARK    1  A    between atoms: CA_5  and  C_11 
REMARK    2  A    between atoms: C_11  and  O_12 
ROOT
HETATM    1  N   UNL     1      63.293   7.618   3.627  1.00  0.00    -0.343 N 
ATOM      2  HN  UNL     1      63.490   6.757   3.117  1.00  0.00     0.167 HD
HETATM    3  N   UNL     1      62.658   9.705   4.131  1.00  0.00    -0.317 N 
HETATM    4  C   UNL     1      62.779   8.731   3.144  1.00  0.00     0.111 A 
HETATM    5  CA  UNL     1      63.508   7.863   4.971  1.00  0.00     0.050 A 
HETATM    6  C   UNL     1      63.129   9.150   5.293  1.00  0.00     0.125 A 
HETATM    7  C   UNL     1      62.146  10.978   3.902  1.00  0.00     0.098 A 
HETATM    8  C   UNL     1      62.346   9.086   1.833  1.00  0.00     0.049 A 
HETATM    9  C   UNL     1      61.740  11.309   2.662  1.00  0.00     0.018 A 
HETATM   10  C   UNL     1      61.851  10.318   1.600  1.00  0.00     0.005 A 
ENDROOT
BRANCH   5  11
HETATM   11  C   UNL     1      64.095   6.814   5.850  1.00  0.00     0.222 C 
BRANCH  11  12
HETATM   12  O   UNL     1      64.275   7.284   7.182  1.00  0.00    -0.395 OA
HETATM   13  H   UNL     1      63.434   7.629   7.521  1.00  0.00     0.209 HD
ENDBRANCH  11  12
ENDBRANCH   5  11
TORSDOF 2
ENDMDL
MODEL 6
REMARK VINA RESULT:      -4.0      3.058      4.227
REMARK  2 active torsions:
REMARK  status: ('A' for Active; 'I' for Inactive)
REMARK    1  A    between atoms: CA_5  and  C_11 
REMARK    2  A    between atoms: C_11  and  O_12 
ROOT
HETATM    1  N   UNL     1      65.267   8.897   5.808  1.00  0.00    -0.343 N 
ATOM      2  HN  UNL     1      65.635   9.463   6.573  1.00  0.00     0.167 HD
HETATM    3  N   UNL     1      65.030   7.310   4.247  1.00  0.00    -0.317 N 
HETATM    4  C   UNL     1      65.809   7.817   5.283  1.00  0.00     0.111 A 
HETATM    5  CA  UNL     1      64.094   9.101   5.105  1.00  0.00     0.050 A 
HETATM    6  C   UNL     1      63.940   8.133   4.133  1.00  0.00     0.125 A 
HETATM    7  C   UNL     1      65.363   6.176   3.514  1.00  0.00     0.098 A 
HETATM    8  C   UNL     1      67.012   7.115   5.586  1.00  0.00     0.049 A 
HETATM    9  C   UNL     1      66.500   5.516   3.803  1.00  0.00     0.018 A 
HETATM   10  C   UNL     1      67.345   6.016   4.880  1.00  0.00     0.005 A 
ENDROOT
BRANCH   5  11
HETATM   11  C   UNL     1      63.206  10.253   5.426  1.00  0.00     0.222 C 
BRANCH  11  12
HETATM   12  O   UNL     1      63.916  11.297   6.086  1.00  0.00    -0.395 OA
HETATM   13  H   UNL     1      64.440  10.924   6.812  1.00  0.00     0.209 HD
ENDBRANCH  11  12
ENDBRANCH   5  11
TORSDOF 2
ENDMDL
MODEL 7
REMARK VINA RESULT:      -3.7      3.613      4.429
REMARK  2 active torsions:
REMARK  status: ('A' for Active; 'I' for Inactive)
REMARK    1  A    between atoms: CA_5  and  C_11 
REMARK    2  A    between atoms: C_11  and  O_12 
ROOT
HETATM    1  N   UNL     1      65.513   7.854   6.654  1.00  0.00    -0.343 N 
ATOM      2  HN  UNL     1      66.065   8.668   6.923  1.00  0.00     0.167 HD
HETATM    3  N   UNL     1      64.073   6.504   5.598  1.00  0.00    -0.317 N 
HETATM    4  C   UNL     1      64.645   7.771   5.665  1.00  0.00     0.111 A 
HETATM    5  CA  UNL     1      65.518   6.606   7.248  1.00  0.00     0.050 A 
HETATM    6  C   UNL     1      64.627   5.765   6.611  1.00  0.00     0.125 A 
HETATM    7  C   UNL     1      63.124   6.135   4.651  1.00  0.00     0.098 A 
HETATM    8  C   UNL     1      64.215   8.723   4.697  1.00  0.00     0.049 A 
HETATM    9  C   UNL     1      62.719   7.038   3.739  1.00  0.00     0.018 A 
HETATM   10  C   UNL     1      63.293   8.376   3.777  1.00  0.00     0.005 A 
ENDROOT
BRANCH   5  11
HETATM   11  C   UNL     1      66.390   6.326   8.422  1.00  0.00     0.222 C 
BRANCH  11  12
HETATM   12  O   UNL     1      67.389   7.329   8.586  1.00  0.00    -0.395 OA
HETATM   13  H   UNL     1      67.489   7.535   9.529  1.00  0.00     0.209 HD
ENDBRANCH  11  12
ENDBRANCH   5  11
TORSDOF 2
ENDMDL
MODEL 8
REMARK VINA RESULT:      -3.5      6.767      8.013
REMARK  2 active torsions:
REMARK  status: ('A' for Active; 'I' for Inactive)
REMARK    1  A    between atoms: CA_5  and  C_11 
REMARK    2  A    between atoms: C_11  and  O_12 
ROOT
HETATM    1  N   UNL     1      67.926   4.162   6.422  1.00  0.00    -0.343 N 
ATOM      2  HN  UNL     1      68.308   3.526   5.722  1.00  0.00     0.167 HD
HETATM    3  N   UNL     1      67.095   5.982   7.427  1.00  0.00    -0.317 N 
HETATM    4  C   UNL     1      67.567   5.417   6.245  1.00  0.00     0.111 A 
HETATM    5  CA  UNL     1      67.678   3.890   7.754  1.00  0.00     0.050 A 
HETATM    6  C   UNL     1      67.172   5.007   8.389  1.00  0.00     0.125 A 
HETATM    7  C   UNL     1      66.648   7.294   7.532  1.00  0.00     0.098 A 
HETATM    8  C   UNL     1      67.581   6.256   5.093  1.00  0.00     0.049 A 
HETATM    9  C   UNL     1      66.664   8.084   6.441  1.00  0.00     0.018 A 
HETATM   10  C   UNL     1      67.152   7.531   5.185  1.00  0.00     0.005 A 
ENDROOT
BRANCH   5  11
HETATM   11  C   UNL     1      67.973   2.546   8.323  1.00  0.00     0.222 C 
BRANCH  11  12
HETATM   12  O   UNL     1      67.357   2.366   9.595  1.00  0.00    -0.395 OA
HETATM   13  H   UNL     1      66.629   2.999   9.694  1.00  0.00     0.209 HD
ENDBRANCH  11  12
ENDBRANCH   5  11
TORSDOF 2
ENDMDL
MODEL 9
REMARK VINA RESULT:      -3.5      5.394      6.518
REMARK  2 active torsions:
REMARK  status: ('A' for Active; 'I' for Inactive)
REMARK    1  A    between atoms: CA_5  and  C_11 
REMARK    2  A    between atoms: C_11  and  O_12 
ROOT
HETATM    1  N   UNL     1      65.663   5.379   7.811  1.00  0.00    -0.343 N 
ATOM      2  HN  UNL     1      65.056   4.773   8.362  1.00  0.00     0.167 HD
HETATM    3  N   UNL     1      66.398   6.924   6.366  1.00  0.00    -0.317 N 
HETATM    4  C   UNL     1      65.295   6.293   6.935  1.00  0.00     0.111 A 
HETATM    5  CA  UNL     1      67.045   5.415   7.824  1.00  0.00     0.050 A 
HETATM    6  C   UNL     1      67.512   6.359   6.930  1.00  0.00     0.125 A 
HETATM    7  C   UNL     1      66.303   7.930   5.410  1.00  0.00     0.098 A 
HETATM    8  C   UNL     1      64.010   6.722   6.494  1.00  0.00     0.049 A 
HETATM    9  C   UNL     1      65.087   8.332   4.996  1.00  0.00     0.018 A 
HETATM   10  C   UNL     1      63.908   7.695   5.566  1.00  0.00     0.005 A 
ENDROOT
BRANCH   5  11
HETATM   11  C   UNL     1      67.821   4.500   8.706  1.00  0.00     0.222 C 
BRANCH  11  12
HETATM   12  O   UNL     1      67.136   3.270   8.922  1.00  0.00    -0.395 OA
HETATM   13  H   UNL     1      66.301   3.274   8.428  1.00  0.00     0.209 HD
ENDBRANCH  11  12
ENDBRANCH   5  11
TORSDOF 2
ENDMDL
