MODEL 1
REMARK VINA RESULT:      -5.1      0.000      0.000
REMARK  2 active torsions:
REMARK  status: ('A' for Active; 'I' for Inactive)
REMARK    1  A    between atoms: N_1  and  C_4 
REMARK    2  A    between atoms: C_8  and  N_9 
ROOT
HETATM    1  C   UNL     1      63.193   9.301   4.428  1.00  0.00     0.066 A 
HETATM    2  C   UNL     1      62.877  10.619   4.818  1.00  0.00     0.053 A 
HETATM    3  C   UNL     1      62.797   8.833   3.160  1.00  0.00     0.032 A 
HETATM    4  C   UNL     1      62.053  11.381   3.972  1.00  0.00     0.031 A 
HETATM    5  C   UNL     1      62.031   9.634   2.314  1.00  0.00     0.002 A 
HETATM    6  C   UNL     1      61.649  10.904   2.725  1.00  0.00     0.002 A 
ENDROOT
BRANCH   1   7
HETATM    7  N   UNL     1      63.914   8.410   5.270  1.00  0.00    -0.315 N 
HETATM    8  C   UNL     1      63.408   7.496   6.171  1.00  0.00     0.188 A 
HETATM    9  N   UNL     1      64.351   6.871   6.844  1.00  0.00    -0.360 N 
HETATM   10  C   UNL     1      65.523   7.345   6.331  1.00  0.00     0.106 A 
ATOM     11  HN  UNL     1      64.232   6.182   7.587  1.00  0.00     0.166 HD
HETATM   12  C   UNL     1      65.285   8.262   5.334  1.00  0.00     0.115 A 
ENDBRANCH   1   7
BRANCH   2  13
HETATM   13  N   UNL     1      63.229  11.182   6.057  1.00  0.00    -0.397 N 
HETATM   14  H   UNL     1      63.781  10.670   6.691  1.00  0.00     0.156 HD
HETATM   15  H   UNL     1      62.921  12.087   6.292  1.00  0.00     0.156 HD
ENDBRANCH   2  13
TORSDOF 2
ENDMDL
MODEL 2
REMARK VINA RESULT:      -4.8      1.241      2.446
REMARK  2 active torsions:
REMARK  status: ('A' for Active; 'I' for Inactive)
REMARK    1  A    between atoms: N_1  and  C_4 
REMARK    2  A    between atoms: C_8  and  N_9 
ROOT
HETATM    1  C   UNL     1      62.765   9.270   3.853  1.00  0.00     0.066 A 
HETATM    2  C   UNL     1      62.565   8.796   2.540  1.00  0.00     0.053 A 
HETATM    3  C   UNL     1      62.374  10.581   4.191  1.00  0.00     0.032 A 
HETATM    4  C   UNL     1      62.100   9.702   1.571  1.00  0.00     0.031 A 
HETATM    5  C   UNL     1      61.857  11.440   3.222  1.00  0.00     0.002 A 
HETATM    6  C   UNL     1      61.731  11.004   1.909  1.00  0.00     0.002 A 
ENDROOT
BRANCH   1   7
HETATM    7  N   UNL     1      63.350   8.468   4.872  1.00  0.00    -0.315 N 
HETATM    8  C   UNL     1      64.661   8.458   5.300  1.00  0.00     0.188 A 
HETATM    9  N   UNL     1      64.888   7.545   6.220  1.00  0.00    -0.360 N 
HETATM   10  C   UNL     1      63.673   6.967   6.451  1.00  0.00     0.106 A 
ATOM     11  HN  UNL     1      65.778   7.318   6.663  1.00  0.00     0.166 HD
HETATM   12  C   UNL     1      62.701   7.543   5.666  1.00  0.00     0.115 A 
ENDBRANCH   1   7
BRANCH   2  13
HETATM   13  N   UNL     1      62.917   7.507   2.104  1.00  0.00    -0.397 N 
HETATM   14  H   UNL     1      63.696   7.050   2.497  1.00  0.00     0.156 HD
HETATM   15  H   UNL     1      62.387   7.062   1.404  1.00  0.00     0.156 HD
ENDBRANCH   2  13
TORSDOF 2
ENDMDL
MODEL 3
REMARK VINA RESULT:      -4.2      2.328      3.752
REMARK  2 active torsions:
REMARK  status: ('A' for Active; 'I' for Inactive)
REMARK    1  A    between atoms: N_1  and  C_4 
REMARK    2  A    between atoms: C_8  and  N_9 
ROOT
HETATM    1  C   UNL     1      61.710   8.807   2.513  1.00  0.00     0.066 A 
HETATM    2  C   UNL     1      60.438   8.198   2.538  1.00  0.00     0.053 A 
HETATM    3  C   UNL     1      62.471   8.787   1.328  1.00  0.00     0.032 A 
HETATM    4  C   UNL     1      60.029   7.468   1.409  1.00  0.00     0.031 A 
HETATM    5  C   UNL     1      62.013   8.106   0.200  1.00  0.00     0.002 A 
HETATM    6  C   UNL     1      60.797   7.437   0.244  1.00  0.00     0.002 A 
ENDROOT
BRANCH   1   7
HETATM    7  N   UNL     1      62.265   9.459   3.648  1.00  0.00    -0.315 N 
HETATM    8  C   UNL     1      63.149   8.948   4.575  1.00  0.00     0.188 A 
HETATM    9  N   UNL     1      63.415   9.796   5.545  1.00  0.00    -0.360 N 
HETATM   10  C   UNL     1      62.727  10.930   5.221  1.00  0.00     0.106 A 
ATOM     11  HN  UNL     1      64.006   9.641   6.362  1.00  0.00     0.166 HD
HETATM   12  C   UNL     1      62.044  10.766   4.039  1.00  0.00     0.115 A 
ENDBRANCH   1   7
BRANCH   2  13
HETATM   13  N   UNL     1      59.600   8.166   3.667  1.00  0.00    -0.397 N 
HETATM   14  H   UNL     1      59.945   8.450   4.544  1.00  0.00     0.156 HD
HETATM   15  H   UNL     1      58.669   7.859   3.581  1.00  0.00     0.156 HD
ENDBRANCH   2  13
TORSDOF 2
ENDMDL
MODEL 4
REMARK VINA RESULT:      -4.0      1.446      4.563
REMARK  2 active torsions:
REMARK  status: ('A' for Active; 'I' for Inactive)
REMARK    1  A    between atoms: N_1  and  C_4 
REMARK    2  A    between atoms: C_8  and  N_9 
ROOT
HETATM    1  C   UNL     1      63.949   8.309   5.226  1.00  0.00     0.066 A 
HETATM    2  C   UNL     1      63.449   7.258   6.023  1.00  0.00     0.053 A 
HETATM    3  C   UNL     1      65.330   8.383   4.953  1.00  0.00     0.032 A 
HETATM    4  C   UNL     1      64.371   6.391   6.634  1.00  0.00     0.031 A 
HETATM    5  C   UNL     1      66.217   7.471   5.523  1.00  0.00     0.002 A 
HETATM    6  C   UNL     1      65.739   6.482   6.373  1.00  0.00     0.002 A 
ENDROOT
BRANCH   1   7
HETATM    7  N   UNL     1      63.107   9.311   4.669  1.00  0.00    -0.315 N 
HETATM    8  C   UNL     1      62.323   9.231   3.537  1.00  0.00     0.188 A 
HETATM    9  N   UNL     1      61.714  10.364   3.260  1.00  0.00    -0.360 N 
HETATM   10  C   UNL     1      62.061  11.208   4.275  1.00  0.00     0.106 A 
ATOM     11  HN  UNL     1      61.114  10.567   2.460  1.00  0.00     0.166 HD
HETATM   12  C   UNL     1      62.883  10.575   5.177  1.00  0.00     0.115 A 
ENDBRANCH   1   7
BRANCH   2  13
HETATM   13  N   UNL     1      62.091   7.094   6.351  1.00  0.00    -0.397 N 
HETATM   14  H   UNL     1      61.785   7.253   7.273  1.00  0.00     0.156 HD
HETATM   15  H   UNL     1      61.448   6.817   5.660  1.00  0.00     0.156 HD
ENDBRANCH   2  13
TORSDOF 2
ENDMDL
MODEL 5
REMARK VINA RESULT:      -4.0      1.925      2.785
REMARK  2 active torsions:
REMARK  status: ('A' for Active; 'I' for Inactive)
REMARK    1  A    between atoms: N_1  and  C_4 
REMARK    2  A    between atoms: C_8  and  N_9 
ROOT
HETATM    1  C   UNL     1      62.610   7.956   2.968  1.00  0.00     0.066 A 
HETATM    2  C   UNL     1      62.051   9.146   2.458  1.00  0.00     0.053 A 
HETATM    3  C   UNL     1      63.025   6.942   2.082  1.00  0.00     0.032 A 
HETATM    4  C   UNL     1      61.801   9.223   1.077  1.00  0.00     0.031 A 
HETATM    5  C   UNL     1      62.821   7.072   0.709  1.00  0.00     0.002 A 
HETATM    6  C   UNL     1      62.198   8.207   0.207  1.00  0.00     0.002 A 
ENDROOT
BRANCH   1   7
HETATM    7  N   UNL     1      62.783   7.732   4.362  1.00  0.00    -0.315 N 
HETATM    8  C   UNL     1      63.843   8.112   5.159  1.00  0.00     0.188 A 
HETATM    9  N   UNL     1      63.723   7.689   6.400  1.00  0.00    -0.360 N 
HETATM   10  C   UNL     1      62.514   7.057   6.440  1.00  0.00     0.106 A 
ATOM     11  HN  UNL     1      64.388   7.808   7.164  1.00  0.00     0.166 HD
HETATM   12  C   UNL     1      61.896   7.103   5.213  1.00  0.00     0.115 A 
ENDBRANCH   1   7
BRANCH   2  13
HETATM   13  N   UNL     1      61.610  10.217   3.256  1.00  0.00    -0.397 N 
HETATM   14  H   UNL     1      62.080  11.081   3.224  1.00  0.00     0.156 HD
HETATM   15  H   UNL     1      60.832  10.102   3.847  1.00  0.00     0.156 HD
ENDBRANCH   2  13
TORSDOF 2
ENDMDL
MODEL 6
REMARK VINA RESULT:      -3.9      2.232      3.071
REMARK  2 active torsions:
REMARK  status: ('A' for Active; 'I' for Inactive)
REMARK    1  A    between atoms: N_1  and  C_4 
REMARK    2  A    between atoms: C_8  and  N_9 
ROOT
HETATM    1  C   UNL     1      62.689   8.762   3.239  1.00  0.00     0.066 A 
HETATM    2  C   UNL     1      62.265   9.131   1.945  1.00  0.00     0.053 A 
HETATM    3  C   UNL     1      62.593   9.688   4.297  1.00  0.00     0.032 A 
HETATM    4  C   UNL     1      61.885  10.467   1.727  1.00  0.00     0.031 A 
HETATM    5  C   UNL     1      62.152  10.990   4.063  1.00  0.00     0.002 A 
HETATM    6  C   UNL     1      61.809  11.383   2.776  1.00  0.00     0.002 A 
ENDROOT
BRANCH   1   7
HETATM    7  N   UNL     1      63.211   7.472   3.530  1.00  0.00    -0.315 N 
HETATM    8  C   UNL     1      64.532   7.097   3.656  1.00  0.00     0.188 A 
HETATM    9  N   UNL     1      64.677   5.806   3.865  1.00  0.00    -0.360 N 
HETATM   10  C   UNL     1      63.405   5.316   3.937  1.00  0.00     0.106 A 
ATOM     11  HN  UNL     1      65.550   5.285   3.953  1.00  0.00     0.166 HD
HETATM   12  C   UNL     1      62.483   6.324   3.777  1.00  0.00     0.115 A 
ENDBRANCH   1   7
BRANCH   2  13
HETATM   13  N   UNL     1      62.317   8.282   0.825  1.00  0.00    -0.397 N 
HETATM   14  H   UNL     1      62.894   7.485   0.838  1.00  0.00     0.156 HD
HETATM   15  H   UNL     1      61.777   8.486   0.028  1.00  0.00     0.156 HD
ENDBRANCH   2  13
TORSDOF 2
ENDMDL
MODEL 7
REMARK VINA RESULT:      -3.9      2.455      5.802
REMARK  2 active torsions:
REMARK  status: ('A' for Active; 'I' for Inactive)
REMARK    1  A    between atoms: N_1  and  C_4 
REMARK    2  A    between atoms: C_8  and  N_9 
ROOT
HETATM    1  C   UNL     1      66.147   6.068   6.206  1.00  0.00     0.066 A 
HETATM    2  C   UNL     1      67.083   6.194   7.255  1.00  0.00     0.053 A 
HETATM    3  C   UNL     1      66.142   4.906   5.410  1.00  0.00     0.032 A 
HETATM    4  C   UNL     1      68.072   5.204   7.383  1.00  0.00     0.031 A 
HETATM    5  C   UNL     1      67.098   3.910   5.599  1.00  0.00     0.002 A 
HETATM    6  C   UNL     1      68.071   4.064   6.578  1.00  0.00     0.002 A 
ENDROOT
BRANCH   1   7
HETATM    7  N   UNL     1      65.188   7.078   5.916  1.00  0.00    -0.315 N 
HETATM    8  C   UNL     1      63.886   7.167   6.362  1.00  0.00     0.188 A 
HETATM    9  N   UNL     1      63.244   8.196   5.852  1.00  0.00    -0.360 N 
HETATM   10  C   UNL     1      64.169   8.844   5.085  1.00  0.00     0.106 A 
ATOM     11  HN  UNL     1      62.267   8.453   5.997  1.00  0.00     0.166 HD
HETATM   12  C   UNL     1      65.384   8.203   5.139  1.00  0.00     0.115 A 
ENDBRANCH   1   7
BRANCH   2  13
HETATM   13  N   UNL     1      67.169   7.309   8.107  1.00  0.00    -0.397 N 
HETATM   14  H   UNL     1      66.947   7.217   9.061  1.00  0.00     0.156 HD
HETATM   15  H   UNL     1      67.450   8.181   7.748  1.00  0.00     0.156 HD
ENDBRANCH   2  13
TORSDOF 2
ENDMDL
MODEL 8
REMARK VINA RESULT:      -3.9      2.613      6.387
REMARK  2 active torsions:
REMARK  status: ('A' for Active; 'I' for Inactive)
REMARK    1  A    between atoms: N_1  and  C_4 
REMARK    2  A    between atoms: C_8  and  N_9 
ROOT
HETATM    1  C   UNL     1      66.302   6.445   7.145  1.00  0.00     0.066 A 
HETATM    2  C   UNL     1      67.238   5.601   6.511  1.00  0.00     0.053 A 
HETATM    3  C   UNL     1      66.319   6.580   8.547  1.00  0.00     0.032 A 
HETATM    4  C   UNL     1      68.075   4.813   7.320  1.00  0.00     0.031 A 
HETATM    5  C   UNL     1      67.204   5.831   9.322  1.00  0.00     0.002 A 
HETATM    6  C   UNL     1      68.074   4.938   8.710  1.00  0.00     0.002 A 
ENDROOT
BRANCH   1   7
HETATM    7  N   UNL     1      65.329   7.185   6.418  1.00  0.00    -0.315 N 
HETATM    8  C   UNL     1      65.487   8.395   5.775  1.00  0.00     0.188 A 
HETATM    9  N   UNL     1      64.365   8.841   5.250  1.00  0.00    -0.360 N 
HETATM   10  C   UNL     1      63.445   7.867   5.506  1.00  0.00     0.106 A 
ATOM     11  HN  UNL     1      64.216   9.724   4.760  1.00  0.00     0.166 HD
HETATM   12  C   UNL     1      64.018   6.818   6.186  1.00  0.00     0.115 A 
ENDBRANCH   1   7
BRANCH   2  13
HETATM   13  N   UNL     1      67.306   5.401   5.121  1.00  0.00    -0.397 N 
HETATM   14  H   UNL     1      66.590   4.908   4.659  1.00  0.00     0.156 HD
HETATM   15  H   UNL     1      68.071   5.750   4.610  1.00  0.00     0.156 HD
ENDBRANCH   2  13
TORSDOF 2
ENDMDL
MODEL 9
REMARK VINA RESULT:      -3.8      2.106      4.342
REMARK  2 active torsions:
REMARK  status: ('A' for Active; 'I' for Inactive)
REMARK    1  A    between atoms: N_1  and  C_4 
REMARK    2  A    between atoms: C_8  and  N_9 
ROOT
HETATM    1  C   UNL     1      63.635   7.944   3.774  1.00  0.00     0.066 A 
HETATM    2  C   UNL     1      64.080   8.698   4.880  1.00  0.00     0.053 A 
HETATM    3  C   UNL     1      64.374   6.822   3.350  1.00  0.00     0.032 A 
HETATM    4  C   UNL     1      65.329   8.379   5.441  1.00  0.00     0.031 A 
HETATM    5  C   UNL     1      65.580   6.491   3.966  1.00  0.00     0.002 A 
HETATM    6  C   UNL     1      66.064   7.277   5.004  1.00  0.00     0.002 A 
ENDROOT
BRANCH   1   7
HETATM    7  N   UNL     1      62.449   8.268   3.059  1.00  0.00    -0.315 N 
HETATM    8  C   UNL     1      61.141   8.047   3.437  1.00  0.00     0.188 A 
HETATM    9  N   UNL     1      60.277   8.407   2.512  1.00  0.00    -0.360 N 
HETATM   10  C   UNL     1      61.036   8.938   1.509  1.00  0.00     0.106 A 
ATOM     11  HN  UNL     1      59.262   8.310   2.538  1.00  0.00     0.166 HD
HETATM   12  C   UNL     1      62.371   8.903   1.835  1.00  0.00     0.115 A 
ENDBRANCH   1   7
BRANCH   2  13
HETATM   13  N   UNL     1      63.415   9.831   5.382  1.00  0.00    -0.397 N 
HETATM   14  H   UNL     1      62.747   9.731   6.098  1.00  0.00     0.156 HD
HETATM   15  H   UNL     1      63.617  10.722   5.017  1.00  0.00     0.156 HD
ENDBRANCH   2  13
TORSDOF 2
ENDMDL
