MODEL 1
REMARK VINA RESULT:      -5.4      0.000      0.000
REMARK  1 active torsions:
REMARK  status: ('A' for Active; 'I' for Inactive)
REMARK    1  A    between atoms: N_1  and  C_6 
ROOT
HETATM    1  N   UNL     1      61.662  11.452   3.922  1.00  0.00    -0.191 NA
HETATM    2  C   UNL     1      64.592   7.768   5.111  1.00  0.00     0.041 A 
HETATM    3  C   UNL     1      62.256  10.456   3.950  1.00  0.00     0.099 C 
HETATM    4  C   UNL     1      63.846   8.957   5.073  1.00  0.00     0.052 A 
HETATM    5  C   UNL     1      62.998   9.229   3.988  1.00  0.00     0.046 A 
HETATM    6  C   UNL     1      64.472   6.856   4.050  1.00  0.00     0.030 A 
HETATM    7  C   UNL     1      63.619   7.128   2.975  1.00  0.00     0.004 A 
HETATM    8  C   UNL     1      62.885   8.311   2.942  1.00  0.00     0.023 A 
ENDROOT
BRANCH   2   9
HETATM    9  N   UNL     1      65.459   7.492   6.210  1.00  0.00    -0.317 N 
HETATM   10  C   UNL     1      66.654   8.112   6.512  1.00  0.00     0.188 A 
HETATM   11  N   UNL     1      67.225   7.621   7.590  1.00  0.00    -0.360 N 
HETATM   12  C   UNL     1      66.378   6.644   8.025  1.00  0.00     0.106 A 
ATOM     13  HN  UNL     1      68.109   7.908   8.010  1.00  0.00     0.166 HD
HETATM   14  C   UNL     1      65.283   6.549   7.200  1.00  0.00     0.115 A 
ENDBRANCH   2   9
TORSDOF 1
ENDMDL
MODEL 2
REMARK VINA RESULT:      -5.1      1.732      2.605
REMARK  1 active torsions:
REMARK  status: ('A' for Active; 'I' for Inactive)
REMARK    1  A    between atoms: N_1  and  C_6 
ROOT
HETATM    1  N   UNL     1      61.373   8.622   0.483  1.00  0.00    -0.191 NA
HETATM    2  C   UNL     1      63.532   8.961   4.818  1.00  0.00     0.041 A 
HETATM    3  C   UNL     1      61.767   8.978   1.514  1.00  0.00     0.099 C 
HETATM    4  C   UNL     1      63.068   8.558   3.556  1.00  0.00     0.052 A 
HETATM    5  C   UNL     1      62.251   9.408   2.794  1.00  0.00     0.046 A 
HETATM    6  C   UNL     1      63.169  10.228   5.303  1.00  0.00     0.030 A 
HETATM    7  C   UNL     1      62.362  11.075   4.537  1.00  0.00     0.004 A 
HETATM    8  C   UNL     1      61.902  10.667   3.286  1.00  0.00     0.023 A 
ENDROOT
BRANCH   2   9
HETATM    9  N   UNL     1      64.356   8.096   5.596  1.00  0.00    -0.317 N 
HETATM   10  C   UNL     1      65.723   8.174   5.774  1.00  0.00     0.188 A 
HETATM   11  N   UNL     1      66.193   7.218   6.545  1.00  0.00    -0.360 N 
HETATM   12  C   UNL     1      65.102   6.480   6.897  1.00  0.00     0.106 A 
ATOM     13  HN  UNL     1      67.163   7.062   6.819  1.00  0.00     0.166 HD
HETATM   14  C   UNL     1      63.960   7.000   6.335  1.00  0.00     0.115 A 
ENDBRANCH   2   9
TORSDOF 1
ENDMDL
MODEL 3
REMARK VINA RESULT:      -4.5      2.621      3.440
REMARK  1 active torsions:
REMARK  status: ('A' for Active; 'I' for Inactive)
REMARK    1  A    between atoms: N_1  and  C_6 
ROOT
HETATM    1  N   UNL     1      61.891  11.840   4.366  1.00  0.00    -0.191 NA
HETATM    2  C   UNL     1      63.089   7.511   2.521  1.00  0.00     0.041 A 
HETATM    3  C   UNL     1      62.032  10.911   3.684  1.00  0.00     0.099 C 
HETATM    4  C   UNL     1      62.886   8.633   3.340  1.00  0.00     0.052 A 
HETATM    5  C   UNL     1      62.217   9.763   2.845  1.00  0.00     0.046 A 
HETATM    6  C   UNL     1      62.607   7.536   1.202  1.00  0.00     0.030 A 
HETATM    7  C   UNL     1      61.933   8.661   0.715  1.00  0.00     0.004 A 
HETATM    8  C   UNL     1      61.738   9.772   1.533  1.00  0.00     0.023 A 
ENDROOT
BRANCH   2   9
HETATM    9  N   UNL     1      63.775   6.365   3.020  1.00  0.00    -0.317 N 
HETATM   10  C   UNL     1      64.062   6.066   4.336  1.00  0.00     0.188 A 
HETATM   11  N   UNL     1      64.719   4.934   4.470  1.00  0.00    -0.360 N 
HETATM   12  C   UNL     1      64.869   4.460   3.201  1.00  0.00     0.106 A 
ATOM     13  HN  UNL     1      65.046   4.505   5.336  1.00  0.00     0.166 HD
HETATM   14  C   UNL     1      64.293   5.315   2.291  1.00  0.00     0.115 A 
ENDBRANCH   2   9
TORSDOF 1
ENDMDL
MODEL 4
REMARK VINA RESULT:      -4.4      2.420      5.820
REMARK  1 active torsions:
REMARK  status: ('A' for Active; 'I' for Inactive)
REMARK    1  A    between atoms: N_1  and  C_6 
ROOT
HETATM    1  N   UNL     1      65.596   7.987   6.382  1.00  0.00    -0.191 NA
HETATM    2  C   UNL     1      62.243   8.938   3.002  1.00  0.00     0.041 A 
HETATM    3  C   UNL     1      64.769   8.471   5.728  1.00  0.00     0.099 C 
HETATM    4  C   UNL     1      63.224   8.358   3.821  1.00  0.00     0.052 A 
HETATM    5  C   UNL     1      63.752   9.067   4.910  1.00  0.00     0.046 A 
HETATM    6  C   UNL     1      61.794  10.236   3.296  1.00  0.00     0.030 A 
HETATM    7  C   UNL     1      62.317  10.936   4.388  1.00  0.00     0.004 A 
HETATM    8  C   UNL     1      63.293  10.355   5.194  1.00  0.00     0.023 A 
ENDROOT
BRANCH   2   9
HETATM    9  N   UNL     1      61.710   8.221   1.890  1.00  0.00    -0.317 N 
HETATM   10  C   UNL     1      60.464   8.367   1.317  1.00  0.00     0.188 A 
HETATM   11  N   UNL     1      60.268   7.548   0.307  1.00  0.00    -0.360 N 
HETATM   12  C   UNL     1      61.425   6.835   0.200  1.00  0.00     0.106 A 
ATOM     13  HN  UNL     1      59.431   7.464  -0.271  1.00  0.00     0.166 HD
HETATM   14  C   UNL     1      62.330   7.233   1.155  1.00  0.00     0.115 A 
ENDBRANCH   2   9
TORSDOF 1
ENDMDL
MODEL 5
REMARK VINA RESULT:      -4.4      2.666      5.359
REMARK  1 active torsions:
REMARK  status: ('A' for Active; 'I' for Inactive)
REMARK    1  A    between atoms: N_1  and  C_6 
ROOT
HETATM    1  N   UNL     1      60.777   4.929   7.003  1.00  0.00    -0.191 NA
HETATM    2  C   UNL     1      62.896   8.496   4.482  1.00  0.00     0.041 A 
HETATM    3  C   UNL     1      61.526   5.692   6.553  1.00  0.00     0.099 C 
HETATM    4  C   UNL     1      61.998   7.582   5.057  1.00  0.00     0.052 A 
HETATM    5  C   UNL     1      62.449   6.633   5.987  1.00  0.00     0.046 A 
HETATM    6  C   UNL     1      64.248   8.447   4.857  1.00  0.00     0.030 A 
HETATM    7  C   UNL     1      64.691   7.504   5.790  1.00  0.00     0.004 A 
HETATM    8  C   UNL     1      63.795   6.599   6.354  1.00  0.00     0.023 A 
ENDROOT
BRANCH   2   9
HETATM    9  N   UNL     1      62.441   9.457   3.532  1.00  0.00    -0.317 N 
HETATM   10  C   UNL     1      62.016  10.747   3.780  1.00  0.00     0.188 A 
HETATM   11  N   UNL     1      61.648  11.381   2.688  1.00  0.00    -0.360 N 
HETATM   12  C   UNL     1      61.840  10.486   1.677  1.00  0.00     0.106 A 
ATOM     13  HN  UNL     1      61.295  12.335   2.614  1.00  0.00     0.166 HD
HETATM   14  C   UNL     1      62.333   9.300   2.166  1.00  0.00     0.115 A 
ENDBRANCH   2   9
TORSDOF 1
ENDMDL
MODEL 6
REMARK VINA RESULT:      -4.2      2.027      2.728
REMARK  1 active torsions:
REMARK  status: ('A' for Active; 'I' for Inactive)
REMARK    1  A    between atoms: N_1  and  C_6 
ROOT
HETATM    1  N   UNL     1      62.588   5.894   0.863  1.00  0.00    -0.191 NA
HETATM    2  C   UNL     1      64.870   7.733   4.733  1.00  0.00     0.041 A 
HETATM    3  C   UNL     1      62.933   6.554   1.752  1.00  0.00     0.099 C 
HETATM    4  C   UNL     1      64.456   6.961   3.637  1.00  0.00     0.052 A 
HETATM    5  C   UNL     1      63.359   7.362   2.859  1.00  0.00     0.046 A 
HETATM    6  C   UNL     1      64.173   8.915   5.034  1.00  0.00     0.030 A 
HETATM    7  C   UNL     1      63.085   9.315   4.251  1.00  0.00     0.004 A 
HETATM    8  C   UNL     1      62.678   8.541   3.166  1.00  0.00     0.023 A 
ENDROOT
BRANCH   2   9
HETATM    9  N   UNL     1      65.980   7.325   5.529  1.00  0.00    -0.317 N 
HETATM   10  C   UNL     1      66.524   7.983   6.613  1.00  0.00     0.188 A 
HETATM   11  N   UNL     1      67.555   7.351   7.130  1.00  0.00    -0.360 N 
HETATM   12  C   UNL     1      67.699   6.229   6.368  1.00  0.00     0.106 A 
ATOM     13  HN  UNL     1      68.123   7.637   7.927  1.00  0.00     0.166 HD
HETATM   14  C   UNL     1      66.742   6.184   5.383  1.00  0.00     0.115 A 
ENDBRANCH   2   9
TORSDOF 1
ENDMDL
MODEL 7
REMARK VINA RESULT:      -4.2      1.743      5.206
REMARK  1 active torsions:
REMARK  status: ('A' for Active; 'I' for Inactive)
REMARK    1  A    between atoms: N_1  and  C_6 
ROOT
HETATM    1  N   UNL     1      66.721   6.522   9.561  1.00  0.00    -0.191 NA
HETATM    2  C   UNL     1      65.265   7.442   5.022  1.00  0.00     0.041 A 
HETATM    3  C   UNL     1      66.623   6.590   8.407  1.00  0.00     0.099 C 
HETATM    4  C   UNL     1      65.415   7.372   6.415  1.00  0.00     0.052 A 
HETATM    5  C   UNL     1      66.491   6.672   6.981  1.00  0.00     0.046 A 
HETATM    6  C   UNL     1      66.213   6.806   4.204  1.00  0.00     0.030 A 
HETATM    7  C   UNL     1      67.290   6.117   4.771  1.00  0.00     0.004 A 
HETATM    8  C   UNL     1      67.430   6.048   6.156  1.00  0.00     0.023 A 
ENDROOT
BRANCH   2   9
HETATM    9  N   UNL     1      64.168   8.147   4.445  1.00  0.00    -0.317 N 
HETATM   10  C   UNL     1      63.484   7.836   3.288  1.00  0.00     0.188 A 
HETATM   11  N   UNL     1      62.524   8.692   3.016  1.00  0.00    -0.360 N 
HETATM   12  C   UNL     1      62.564   9.602   4.031  1.00  0.00     0.106 A 
ATOM     13  HN  UNL     1      61.887   8.678   2.219  1.00  0.00     0.166 HD
HETATM   14  C   UNL     1      63.559   9.288   4.926  1.00  0.00     0.115 A 
ENDBRANCH   2   9
TORSDOF 1
ENDMDL
MODEL 8
REMARK VINA RESULT:      -4.1      2.226      5.342
REMARK  1 active torsions:
REMARK  status: ('A' for Active; 'I' for Inactive)
REMARK    1  A    between atoms: N_1  and  C_6 
ROOT
HETATM    1  N   UNL     1      67.528   3.995   2.883  1.00  0.00    -0.191 NA
HETATM    2  C   UNL     1      65.186   7.814   4.755  1.00  0.00     0.041 A 
HETATM    3  C   UNL     1      67.188   4.893   3.535  1.00  0.00     0.099 C 
HETATM    4  C   UNL     1      65.599   6.709   3.994  1.00  0.00     0.052 A 
HETATM    5  C   UNL     1      66.766   6.008   4.332  1.00  0.00     0.046 A 
HETATM    6  C   UNL     1      65.957   8.201   5.863  1.00  0.00     0.030 A 
HETATM    7  C   UNL     1      67.116   7.494   6.202  1.00  0.00     0.004 A 
HETATM    8  C   UNL     1      67.521   6.401   5.440  1.00  0.00     0.023 A 
ENDROOT
BRANCH   2   9
HETATM    9  N   UNL     1      64.004   8.532   4.409  1.00  0.00    -0.317 N 
HETATM   10  C   UNL     1      63.431   9.586   5.091  1.00  0.00     0.188 A 
HETATM   11  N   UNL     1      62.333  10.028   4.519  1.00  0.00    -0.360 N 
HETATM   12  C   UNL     1      62.171   9.245   3.414  1.00  0.00     0.106 A 
ATOM     13  HN  UNL     1      61.732  10.790   4.834  1.00  0.00     0.166 HD
HETATM   14  C   UNL     1      63.186   8.323   3.318  1.00  0.00     0.115 A 
ENDBRANCH   2   9
TORSDOF 1
ENDMDL
MODEL 9
REMARK VINA RESULT:      -4.0      2.012      5.429
REMARK  1 active torsions:
REMARK  status: ('A' for Active; 'I' for Inactive)
REMARK    1  A    between atoms: N_1  and  C_6 
ROOT
HETATM    1  N   UNL     1      65.087   3.617   7.551  1.00  0.00    -0.191 NA
HETATM    2  C   UNL     1      63.892   7.717   5.242  1.00  0.00     0.041 A 
HETATM    3  C   UNL     1      65.074   4.682   7.091  1.00  0.00     0.099 C 
HETATM    4  C   UNL     1      63.915   6.442   5.828  1.00  0.00     0.052 A 
HETATM    5  C   UNL     1      65.055   5.995   6.513  1.00  0.00     0.046 A 
HETATM    6  C   UNL     1      65.024   8.538   5.358  1.00  0.00     0.030 A 
HETATM    7  C   UNL     1      66.156   8.093   6.049  1.00  0.00     0.004 A 
HETATM    8  C   UNL     1      66.173   6.824   6.625  1.00  0.00     0.023 A 
ENDROOT
BRANCH   2   9
HETATM    9  N   UNL     1      62.737   8.170   4.539  1.00  0.00    -0.317 N 
HETATM   10  C   UNL     1      62.451   9.458   4.135  1.00  0.00     0.188 A 
HETATM   11  N   UNL     1      61.296   9.554   3.514  1.00  0.00    -0.360 N 
HETATM   12  C   UNL     1      60.796   8.286   3.499  1.00  0.00     0.106 A 
ATOM     13  HN  UNL     1      60.866  10.396   3.129  1.00  0.00     0.166 HD
HETATM   14  C   UNL     1      61.663   7.415   4.115  1.00  0.00     0.115 A 
ENDBRANCH   2   9
TORSDOF 1
ENDMDL
