MODEL 1
REMARK VINA RESULT:      -5.6      0.000      0.000
REMARK  1 active torsions:
REMARK  status: ('A' for Active; 'I' for Inactive)
REMARK    1  A    between atoms: C_1  and  C_2 
REMARK       I    between atoms: C_1  and  N_10 
ROOT
HETATM    1  C   UNL     1      62.709   9.947   4.137  1.00  0.00     0.032 A 
HETATM    2  C   UNL     1      62.079   9.880   2.888  1.00  0.00     0.027 A 
HETATM    3  C   UNL     1      62.215   8.737   2.087  1.00  0.00    -0.024 A 
HETATM    4  C   UNL     1      63.004   7.674   2.544  1.00  0.00     0.075 A 
HETATM    5  O   UNL     1      63.224   6.532   1.820  1.00  0.00    -0.351 OA
HETATM    6  C   UNL     1      63.445   8.854   4.609  1.00  0.00     0.020 A 
HETATM    7  C   UNL     1      63.589   7.719   3.810  1.00  0.00     0.038 A 
HETATM    8  C   UNL     1      61.547   8.681   0.743  1.00  0.00     0.043 C 
HETATM    9  C   UNL     1      62.928   6.656   0.425  1.00  0.00     0.176 C 
HETATM   10  C   UNL     1      61.552   7.258   0.200  1.00  0.00     0.031 C 
ENDROOT
BRANCH   1  11
HETATM   11  C   UNL     1      62.570  11.193   4.932  1.00  0.00     0.249 C 
HETATM   12  O   UNL     1      61.864  12.120   4.561  1.00  0.00    -0.268 OA
HETATM   13  N   UNL     1      63.322  11.284   6.070  1.00  0.00    -0.366 N 
HETATM   14  H   UNL     1      63.884  10.525   6.351  1.00  0.00     0.159 HD
HETATM   15  H   UNL     1      63.301  12.107   6.610  1.00  0.00     0.159 HD
ENDBRANCH   1  11
TORSDOF 1
ENDMDL
MODEL 2
REMARK VINA RESULT:      -5.3      1.027      2.108
REMARK  1 active torsions:
REMARK  status: ('A' for Active; 'I' for Inactive)
REMARK    1  A    between atoms: C_1  and  C_2 
REMARK       I    between atoms: C_1  and  N_10 
ROOT
HETATM    1  C   UNL     1      62.426  10.037   3.527  1.00  0.00     0.032 A 
HETATM    2  C   UNL     1      63.013   8.785   3.745  1.00  0.00     0.027 A 
HETATM    3  C   UNL     1      63.022   7.819   2.727  1.00  0.00    -0.024 A 
HETATM    4  C   UNL     1      62.419   8.118   1.499  1.00  0.00     0.075 A 
HETATM    5  O   UNL     1      62.347   7.231   0.458  1.00  0.00    -0.351 OA
HETATM    6  C   UNL     1      61.879  10.344   2.275  1.00  0.00     0.020 A 
HETATM    7  C   UNL     1      61.880   9.383   1.264  1.00  0.00     0.038 A 
HETATM    8  C   UNL     1      63.643   6.475   2.976  1.00  0.00     0.043 C 
HETATM    9  C   UNL     1      62.572   5.868   0.832  1.00  0.00     0.176 C 
HETATM   10  C   UNL     1      63.833   5.721   1.667  1.00  0.00     0.031 C 
ENDROOT
BRANCH   1  11
HETATM   11  C   UNL     1      62.404  11.011   4.646  1.00  0.00     0.249 C 
HETATM   12  O   UNL     1      61.874  12.108   4.538  1.00  0.00    -0.268 OA
HETATM   13  N   UNL     1      63.064  10.650   5.789  1.00  0.00    -0.366 N 
HETATM   14  H   UNL     1      63.483   9.761   5.855  1.00  0.00     0.159 HD
HETATM   15  H   UNL     1      63.118  11.278   6.545  1.00  0.00     0.159 HD
ENDBRANCH   1  11
TORSDOF 1
ENDMDL
MODEL 3
REMARK VINA RESULT:      -5.1      1.660      3.191
REMARK  1 active torsions:
REMARK  status: ('A' for Active; 'I' for Inactive)
REMARK    1  A    between atoms: C_1  and  C_2 
REMARK       I    between atoms: C_1  and  N_10 
ROOT
HETATM    1  C   UNL     1      63.203   9.668   4.522  1.00  0.00     0.032 A 
HETATM    2  C   UNL     1      64.331   9.017   5.038  1.00  0.00     0.027 A 
HETATM    3  C   UNL     1      64.739   7.782   4.513  1.00  0.00    -0.024 A 
HETATM    4  C   UNL     1      63.992   7.201   3.481  1.00  0.00     0.075 A 
HETATM    5  O   UNL     1      64.290   5.984   2.926  1.00  0.00    -0.351 OA
HETATM    6  C   UNL     1      62.501   9.105   3.451  1.00  0.00     0.020 A 
HETATM    7  C   UNL     1      62.899   7.872   2.932  1.00  0.00     0.038 A 
HETATM    8  C   UNL     1      65.942   7.086   5.082  1.00  0.00     0.043 C 
HETATM    9  C   UNL     1      65.162   5.175   3.722  1.00  0.00     0.176 C 
HETATM   10  C   UNL     1      66.389   5.953   4.169  1.00  0.00     0.031 C 
ENDROOT
BRANCH   1  11
HETATM   11  C   UNL     1      62.787  10.952   5.138  1.00  0.00     0.249 C 
HETATM   12  O   UNL     1      61.950  11.677   4.617  1.00  0.00    -0.268 OA
HETATM   13  N   UNL     1      63.432  11.323   6.285  1.00  0.00    -0.366 N 
HETATM   14  H   UNL     1      64.103  10.724   6.688  1.00  0.00     0.159 HD
HETATM   15  H   UNL     1      63.226  12.187   6.709  1.00  0.00     0.159 HD
ENDBRANCH   1  11
TORSDOF 1
ENDMDL
MODEL 4
REMARK VINA RESULT:      -5.0      2.207      2.851
REMARK  1 active torsions:
REMARK  status: ('A' for Active; 'I' for Inactive)
REMARK    1  A    between atoms: C_1  and  C_2 
REMARK       I    between atoms: C_1  and  N_10 
ROOT
HETATM    1  C   UNL     1      63.771   8.685   4.672  1.00  0.00     0.032 A 
HETATM    2  C   UNL     1      63.720   7.781   3.604  1.00  0.00     0.027 A 
HETATM    3  C   UNL     1      62.850   8.006   2.526  1.00  0.00    -0.024 A 
HETATM    4  C   UNL     1      62.022   9.134   2.543  1.00  0.00     0.075 A 
HETATM    5  O   UNL     1      61.117   9.421   1.556  1.00  0.00    -0.351 OA
HETATM    6  C   UNL     1      62.981   9.840   4.649  1.00  0.00     0.020 A 
HETATM    7  C   UNL     1      62.109  10.062   3.582  1.00  0.00     0.038 A 
HETATM    8  C   UNL     1      62.794   7.023   1.392  1.00  0.00     0.043 C 
HETATM    9  C   UNL     1      60.795   8.309   0.715  1.00  0.00     0.176 C 
HETATM   10  C   UNL     1      62.047   7.616   0.205  1.00  0.00     0.031 C 
ENDROOT
BRANCH   1  11
HETATM   11  C   UNL     1      64.677   8.384   5.809  1.00  0.00     0.249 C 
HETATM   12  O   UNL     1      65.688   9.038   6.019  1.00  0.00    -0.268 OA
HETATM   13  N   UNL     1      64.361   7.296   6.575  1.00  0.00    -0.366 N 
HETATM   14  H   UNL     1      63.541   6.783   6.388  1.00  0.00     0.159 HD
HETATM   15  H   UNL     1      64.953   7.026   7.314  1.00  0.00     0.159 HD
ENDBRANCH   1  11
TORSDOF 1
ENDMDL
MODEL 5
REMARK VINA RESULT:      -5.0      2.759      4.452
REMARK  1 active torsions:
REMARK  status: ('A' for Active; 'I' for Inactive)
REMARK    1  A    between atoms: C_1  and  C_2 
REMARK       I    between atoms: C_1  and  N_10 
ROOT
HETATM    1  C   UNL     1      62.422   8.781   3.114  1.00  0.00     0.032 A 
HETATM    2  C   UNL     1      63.370   7.751   3.143  1.00  0.00     0.027 A 
HETATM    3  C   UNL     1      64.372   7.737   4.126  1.00  0.00    -0.024 A 
HETATM    4  C   UNL     1      64.421   8.776   5.062  1.00  0.00     0.075 A 
HETATM    5  O   UNL     1      65.379   8.869   6.037  1.00  0.00    -0.351 OA
HETATM    6  C   UNL     1      62.446   9.781   4.092  1.00  0.00     0.020 A 
HETATM    7  C   UNL     1      63.446   9.774   5.065  1.00  0.00     0.038 A 
HETATM    8  C   UNL     1      65.392   6.635   4.140  1.00  0.00     0.043 C 
HETATM    9  C   UNL     1      66.539   8.066   5.797  1.00  0.00     0.176 C 
HETATM   10  C   UNL     1      66.163   6.635   5.453  1.00  0.00     0.031 C 
ENDROOT
BRANCH   1  11
HETATM   11  C   UNL     1      61.407   8.775   2.031  1.00  0.00     0.249 C 
HETATM   12  O   UNL     1      61.676   9.126   0.891  1.00  0.00    -0.268 OA
HETATM   13  N   UNL     1      60.134   8.420   2.383  1.00  0.00    -0.366 N 
HETATM   14  H   UNL     1      59.939   8.140   3.308  1.00  0.00     0.159 HD
HETATM   15  H   UNL     1      59.413   8.443   1.713  1.00  0.00     0.159 HD
ENDBRANCH   1  11
TORSDOF 1
ENDMDL
MODEL 6
REMARK VINA RESULT:      -4.9      1.977      3.405
REMARK  1 active torsions:
REMARK  status: ('A' for Active; 'I' for Inactive)
REMARK    1  A    between atoms: C_1  and  C_2 
REMARK       I    between atoms: C_1  and  N_10 
ROOT
HETATM    1  C   UNL     1      62.327   9.731   3.429  1.00  0.00     0.032 A 
HETATM    2  C   UNL     1      62.618   9.199   4.691  1.00  0.00     0.027 A 
HETATM    3  C   UNL     1      62.958   7.845   4.828  1.00  0.00    -0.024 A 
HETATM    4  C   UNL     1      62.983   7.030   3.690  1.00  0.00     0.075 A 
HETATM    5  O   UNL     1      63.270   5.691   3.726  1.00  0.00    -0.351 OA
HETATM    6  C   UNL     1      62.414   8.920   2.292  1.00  0.00     0.020 A 
HETATM    7  C   UNL     1      62.744   7.571   2.426  1.00  0.00     0.038 A 
HETATM    8  C   UNL     1      63.256   7.281   6.188  1.00  0.00     0.043 C 
HETATM    9  C   UNL     1      63.156   5.102   5.026  1.00  0.00     0.176 C 
HETATM   10  C   UNL     1      63.907   5.911   6.070  1.00  0.00     0.031 C 
ENDROOT
BRANCH   1  11
HETATM   11  C   UNL     1      61.932  11.159   3.339  1.00  0.00     0.249 C 
HETATM   12  O   UNL     1      61.877  11.878   4.326  1.00  0.00    -0.268 OA
HETATM   13  N   UNL     1      61.567  11.619   2.103  1.00  0.00    -0.366 N 
HETATM   14  H   UNL     1      61.619  11.023   1.321  1.00  0.00     0.159 HD
HETATM   15  H   UNL     1      61.254  12.546   1.997  1.00  0.00     0.159 HD
ENDBRANCH   1  11
TORSDOF 1
ENDMDL
MODEL 7
REMARK VINA RESULT:      -4.9      1.890      2.379
REMARK  1 active torsions:
REMARK  status: ('A' for Active; 'I' for Inactive)
REMARK    1  A    between atoms: C_1  and  C_2 
REMARK       I    between atoms: C_1  and  N_10 
ROOT
HETATM    1  C   UNL     1      62.619   9.759   3.738  1.00  0.00     0.032 A 
HETATM    2  C   UNL     1      62.587   8.804   2.714  1.00  0.00     0.027 A 
HETATM    3  C   UNL     1      63.233   7.569   2.877  1.00  0.00    -0.024 A 
HETATM    4  C   UNL     1      63.926   7.314   4.066  1.00  0.00     0.075 A 
HETATM    5  O   UNL     1      64.616   6.155   4.304  1.00  0.00    -0.351 OA
HETATM    6  C   UNL     1      63.265   9.468   4.945  1.00  0.00     0.020 A 
HETATM    7  C   UNL     1      63.915   8.245   5.106  1.00  0.00     0.038 A 
HETATM    8  C   UNL     1      63.204   6.557   1.767  1.00  0.00     0.043 C 
HETATM    9  C   UNL     1      64.910   5.396   3.127  1.00  0.00     0.176 C 
HETATM   10  C   UNL     1      63.672   5.198   2.268  1.00  0.00     0.031 C 
ENDROOT
BRANCH   1  11
HETATM   11  C   UNL     1      61.956  11.066   3.505  1.00  0.00     0.249 C 
HETATM   12  O   UNL     1      61.847  11.902   4.390  1.00  0.00    -0.268 OA
HETATM   13  N   UNL     1      61.411  11.267   2.267  1.00  0.00    -0.366 N 
HETATM   14  H   UNL     1      61.510  10.580   1.568  1.00  0.00     0.159 HD
HETATM   15  H   UNL     1      60.920  12.098   2.074  1.00  0.00     0.159 HD
ENDBRANCH   1  11
TORSDOF 1
ENDMDL
MODEL 8
REMARK VINA RESULT:      -4.8      2.279      2.830
REMARK  1 active torsions:
REMARK  status: ('A' for Active; 'I' for Inactive)
REMARK    1  A    between atoms: C_1  and  C_2 
REMARK       I    between atoms: C_1  and  N_10 
ROOT
HETATM    1  C   UNL     1      64.457   7.748   4.698  1.00  0.00     0.032 A 
HETATM    2  C   UNL     1      63.571   8.704   4.187  1.00  0.00     0.027 A 
HETATM    3  C   UNL     1      62.924   8.486   2.961  1.00  0.00    -0.024 A 
HETATM    4  C   UNL     1      63.191   7.311   2.249  1.00  0.00     0.075 A 
HETATM    5  O   UNL     1      62.636   7.024   1.030  1.00  0.00    -0.351 OA
HETATM    6  C   UNL     1      64.670   6.550   4.005  1.00  0.00     0.020 A 
HETATM    7  C   UNL     1      64.034   6.336   2.782  1.00  0.00     0.038 A 
HETATM    8  C   UNL     1      61.985   9.524   2.415  1.00  0.00     0.043 C 
HETATM    9  C   UNL     1      62.082   8.159   0.357  1.00  0.00     0.176 C 
HETATM   10  C   UNL     1      61.162   8.953   1.269  1.00  0.00     0.031 C 
ENDROOT
BRANCH   1  11
HETATM   11  C   UNL     1      65.149   8.040   5.978  1.00  0.00     0.249 C 
HETATM   12  O   UNL     1      65.833   9.043   6.128  1.00  0.00    -0.268 OA
HETATM   13  N   UNL     1      65.041   7.099   6.965  1.00  0.00    -0.366 N 
HETATM   14  H   UNL     1      64.485   6.299   6.823  1.00  0.00     0.159 HD
HETATM   15  H   UNL     1      65.518   7.223   7.817  1.00  0.00     0.159 HD
ENDBRANCH   1  11
TORSDOF 1
ENDMDL
MODEL 9
REMARK VINA RESULT:      -4.8      2.923      3.886
REMARK  1 active torsions:
REMARK  status: ('A' for Active; 'I' for Inactive)
REMARK    1  A    between atoms: C_1  and  C_2 
REMARK       I    between atoms: C_1  and  N_10 
ROOT
HETATM    1  C   UNL     1      65.683   7.711   5.163  1.00  0.00     0.032 A 
HETATM    2  C   UNL     1      64.686   8.693   5.142  1.00  0.00     0.027 A 
HETATM    3  C   UNL     1      63.651   8.632   4.197  1.00  0.00    -0.024 A 
HETATM    4  C   UNL     1      63.640   7.588   3.265  1.00  0.00     0.075 A 
HETATM    5  O   UNL     1      62.693   7.462   2.284  1.00  0.00    -0.351 OA
HETATM    6  C   UNL     1      65.628   6.640   4.264  1.00  0.00     0.020 A 
HETATM    7  C   UNL     1      64.605   6.581   3.318  1.00  0.00     0.038 A 
HETATM    8  C   UNL     1      62.593   9.699   4.175  1.00  0.00     0.043 C 
HETATM    9  C   UNL     1      61.953   8.659   2.026  1.00  0.00     0.176 C 
HETATM   10  C   UNL     1      61.416   9.269   3.310  1.00  0.00     0.031 C 
ENDROOT
BRANCH   1  11
HETATM   11  C   UNL     1      66.780   7.840   6.155  1.00  0.00     0.249 C 
HETATM   12  O   UNL     1      66.561   7.904   7.356  1.00  0.00    -0.268 OA
HETATM   13  N   UNL     1      68.049   7.951   5.657  1.00  0.00    -0.366 N 
HETATM   14  H   UNL     1      68.204   7.896   4.686  1.00  0.00     0.159 HD
HETATM   15  H   UNL     1      68.808   8.084   6.270  1.00  0.00     0.159 HD
ENDBRANCH   1  11
TORSDOF 1
ENDMDL
