MODEL 1
REMARK VINA RESULT:      -4.8      0.000      0.000
REMARK  2 active torsions:
REMARK  status: ('A' for Active; 'I' for Inactive)
REMARK    1  A    between atoms: C_6  and  C_10 
REMARK    2  A    between atoms: N_8  and  C_10 
ROOT
HETATM    1  C   UNL     1      65.111   8.062   5.024  1.00  0.00    -0.024 A 
HETATM    2  C   UNL     1      64.948   7.024   4.101  1.00  0.00     0.075 A 
HETATM    3  O   UNL     1      65.781   5.938   4.030  1.00  0.00    -0.351 OA
HETATM    4  C   UNL     1      64.179   9.108   5.046  1.00  0.00     0.018 A 
HETATM    5  C   UNL     1      63.916   7.068   3.167  1.00  0.00     0.038 A 
HETATM    6  C   UNL     1      63.128   9.159   4.118  1.00  0.00    -0.032 A 
HETATM    7  C   UNL     1      63.009   8.131   3.173  1.00  0.00     0.011 A 
HETATM    8  C   UNL     1      66.258   8.062   5.994  1.00  0.00     0.043 C 
HETATM    9  C   UNL     1      66.601   5.757   5.189  1.00  0.00     0.176 C 
HETATM   10  C   UNL     1      67.308   7.044   5.574  1.00  0.00     0.031 C 
ENDROOT
BRANCH   6  11
HETATM   11  C   UNL     1      62.136  10.300   4.141  1.00  0.00     0.270 C 
BRANCH  11  12
HETATM   12  N   UNL     1      61.400  10.387   2.879  1.00  0.00    -0.075 N 
HETATM   13  C   UNL     1      61.780  11.576   2.132  1.00  0.00     0.267 C 
HETATM   14  H   UNL     1      60.400  10.424   3.079  1.00  0.00     0.277 HD
HETATM   15  H   UNL     1      61.625   9.567   2.316  1.00  0.00     0.277 HD
ENDBRANCH  11  12
ENDBRANCH   6  11
TORSDOF 2
ENDMDL
MODEL 2
REMARK VINA RESULT:      -4.7      2.068      2.843
REMARK  2 active torsions:
REMARK  status: ('A' for Active; 'I' for Inactive)
REMARK    1  A    between atoms: C_6  and  C_10 
REMARK    2  A    between atoms: N_8  and  C_10 
ROOT
HETATM    1  C   UNL     1      63.959   7.956   3.913  1.00  0.00    -0.024 A 
HETATM    2  C   UNL     1      63.957   9.004   4.839  1.00  0.00     0.075 A 
HETATM    3  O   UNL     1      64.812   9.070   5.908  1.00  0.00    -0.351 OA
HETATM    4  C   UNL     1      63.073   8.002   2.829  1.00  0.00     0.018 A 
HETATM    5  C   UNL     1      63.035  10.042   4.725  1.00  0.00     0.038 A 
HETATM    6  C   UNL     1      62.147   9.048   2.695  1.00  0.00    -0.032 A 
HETATM    7  C   UNL     1      62.132  10.065   3.658  1.00  0.00     0.011 A 
HETATM    8  C   UNL     1      64.901   6.796   4.060  1.00  0.00     0.043 C 
HETATM    9  C   UNL     1      65.939   8.194   5.806  1.00  0.00     0.176 C 
HETATM   10  C   UNL     1      65.510   6.780   5.454  1.00  0.00     0.031 C 
ENDROOT
BRANCH   6  11
HETATM   11  C   UNL     1      61.186   9.080   1.529  1.00  0.00     0.270 C 
BRANCH  11  12
HETATM   12  N   UNL     1      59.929   8.407   1.859  1.00  0.00    -0.075 N 
HETATM   13  C   UNL     1      59.286   7.883   0.665  1.00  0.00     0.267 C 
HETATM   14  H   UNL     1      59.303   9.074   2.310  1.00  0.00     0.277 HD
HETATM   15  H   UNL     1      60.134   7.628   2.484  1.00  0.00     0.277 HD
ENDBRANCH  11  12
ENDBRANCH   6  11
TORSDOF 2
ENDMDL
MODEL 3
REMARK VINA RESULT:      -4.5      2.799      5.098
REMARK  2 active torsions:
REMARK  status: ('A' for Active; 'I' for Inactive)
REMARK    1  A    between atoms: C_6  and  C_10 
REMARK    2  A    between atoms: N_8  and  C_10 
ROOT
HETATM    1  C   UNL     1      63.017   7.833   2.670  1.00  0.00    -0.024 A 
HETATM    2  C   UNL     1      62.388   9.065   2.868  1.00  0.00     0.075 A 
HETATM    3  O   UNL     1      61.567   9.652   1.940  1.00  0.00    -0.351 OA
HETATM    4  C   UNL     1      63.804   7.295   3.698  1.00  0.00     0.018 A 
HETATM    5  C   UNL     1      62.601   9.784   4.041  1.00  0.00     0.038 A 
HETATM    6  C   UNL     1      64.017   8.004   4.890  1.00  0.00    -0.032 A 
HETATM    7  C   UNL     1      63.413   9.258   5.049  1.00  0.00     0.011 A 
HETATM    8  C   UNL     1      62.851   7.076   1.383  1.00  0.00     0.043 C 
HETATM    9  C   UNL     1      61.109   8.758   0.921  1.00  0.00     0.176 C 
HETATM   10  C   UNL     1      62.260   7.978   0.310  1.00  0.00     0.031 C 
ENDROOT
BRANCH   6  11
HETATM   11  C   UNL     1      64.879   7.422   5.987  1.00  0.00     0.270 C 
BRANCH  11  12
HETATM   12  N   UNL     1      66.004   8.304   6.301  1.00  0.00    -0.075 N 
HETATM   13  C   UNL     1      67.209   7.886   5.602  1.00  0.00     0.267 C 
HETATM   14  H   UNL     1      66.176   8.279   7.306  1.00  0.00     0.277 HD
HETATM   15  H   UNL     1      65.768   9.249   6.000  1.00  0.00     0.277 HD
ENDBRANCH  11  12
ENDBRANCH   6  11
TORSDOF 2
ENDMDL
MODEL 4
REMARK VINA RESULT:      -4.5      2.459      4.756
REMARK  2 active torsions:
REMARK  status: ('A' for Active; 'I' for Inactive)
REMARK    1  A    between atoms: C_6  and  C_10 
REMARK    2  A    between atoms: N_8  and  C_10 
ROOT
HETATM    1  C   UNL     1      63.212   8.787   3.920  1.00  0.00    -0.024 A 
HETATM    2  C   UNL     1      64.183   9.081   4.882  1.00  0.00     0.075 A 
HETATM    3  O   UNL     1      64.154  10.206   5.665  1.00  0.00    -0.351 OA
HETATM    4  C   UNL     1      63.306   7.589   3.200  1.00  0.00     0.018 A 
HETATM    5  C   UNL     1      65.270   8.231   5.068  1.00  0.00     0.038 A 
HETATM    6  C   UNL     1      64.390   6.717   3.385  1.00  0.00    -0.032 A 
HETATM    7  C   UNL     1      65.375   7.053   4.323  1.00  0.00     0.011 A 
HETATM    8  C   UNL     1      62.070   9.728   3.660  1.00  0.00     0.043 C 
HETATM    9  C   UNL     1      62.885  10.865   5.690  1.00  0.00     0.176 C 
HETATM   10  C   UNL     1      62.348  11.086   4.286  1.00  0.00     0.031 C 
ENDROOT
BRANCH   6  11
HETATM   11  C   UNL     1      64.490   5.434   2.593  1.00  0.00     0.270 C 
BRANCH  11  12
HETATM   12  N   UNL     1      63.802   5.551   1.306  1.00  0.00    -0.075 N 
HETATM   13  C   UNL     1      64.303   4.575   0.352  1.00  0.00     0.267 C 
HETATM   14  H   UNL     1      63.952   6.489   0.933  1.00  0.00     0.277 HD
HETATM   15  H   UNL     1      62.808   5.378   1.454  1.00  0.00     0.277 HD
ENDBRANCH  11  12
ENDBRANCH   6  11
TORSDOF 2
ENDMDL
MODEL 5
REMARK VINA RESULT:      -4.4      2.634      4.999
REMARK  2 active torsions:
REMARK  status: ('A' for Active; 'I' for Inactive)
REMARK    1  A    between atoms: C_6  and  C_10 
REMARK    2  A    between atoms: N_8  and  C_10 
ROOT
HETATM    1  C   UNL     1      63.972   8.739   4.557  1.00  0.00    -0.024 A 
HETATM    2  C   UNL     1      63.661   7.900   3.482  1.00  0.00     0.075 A 
HETATM    3  O   UNL     1      62.634   8.142   2.607  1.00  0.00    -0.351 OA
HETATM    4  C   UNL     1      65.070   8.428   5.369  1.00  0.00     0.018 A 
HETATM    5  C   UNL     1      64.388   6.732   3.268  1.00  0.00     0.038 A 
HETATM    6  C   UNL     1      65.818   7.260   5.158  1.00  0.00    -0.032 A 
HETATM    7  C   UNL     1      65.462   6.410   4.103  1.00  0.00     0.011 A 
HETATM    8  C   UNL     1      63.155   9.968   4.841  1.00  0.00     0.043 C 
HETATM    9  C   UNL     1      62.139   9.484   2.647  1.00  0.00     0.176 C 
HETATM   10  C   UNL     1      61.844   9.923   4.070  1.00  0.00     0.031 C 
ENDROOT
BRANCH   6  11
HETATM   11  C   UNL     1      66.992   6.927   6.050  1.00  0.00     0.270 C 
BRANCH  11  12
HETATM   12  N   UNL     1      66.961   7.715   7.282  1.00  0.00    -0.075 N 
HETATM   13  C   UNL     1      66.907   6.855   8.454  1.00  0.00     0.267 C 
HETATM   14  H   UNL     1      66.137   8.317   7.272  1.00  0.00     0.277 HD
HETATM   15  H   UNL     1      67.813   8.273   7.331  1.00  0.00     0.277 HD
ENDBRANCH  11  12
ENDBRANCH   6  11
TORSDOF 2
ENDMDL
MODEL 6
REMARK VINA RESULT:      -4.3      1.972      2.612
REMARK  2 active torsions:
REMARK  status: ('A' for Active; 'I' for Inactive)
REMARK    1  A    between atoms: C_6  and  C_10 
REMARK    2  A    between atoms: N_8  and  C_10 
ROOT
HETATM    1  C   UNL     1      63.974   7.366   5.179  1.00  0.00    -0.024 A 
HETATM    2  C   UNL     1      64.306   8.719   5.294  1.00  0.00     0.075 A 
HETATM    3  O   UNL     1      65.406   9.172   5.975  1.00  0.00    -0.351 OA
HETATM    4  C   UNL     1      62.852   7.000   4.424  1.00  0.00     0.018 A 
HETATM    5  C   UNL     1      63.489   9.695   4.728  1.00  0.00     0.038 A 
HETATM    6  C   UNL     1      62.026   7.972   3.838  1.00  0.00    -0.032 A 
HETATM    7  C   UNL     1      62.353   9.325   4.003  1.00  0.00     0.011 A 
HETATM    8  C   UNL     1      64.807   6.305   5.841  1.00  0.00     0.043 C 
HETATM    9  C   UNL     1      66.381   8.160   6.245  1.00  0.00     0.176 C 
HETATM   10  C   UNL     1      65.744   6.929   6.865  1.00  0.00     0.031 C 
ENDROOT
BRANCH   6  11
HETATM   11  C   UNL     1      60.810   7.568   3.038  1.00  0.00     0.270 C 
BRANCH  11  12
HETATM   12  N   UNL     1      60.372   8.651   2.156  1.00  0.00    -0.075 N 
HETATM   13  C   UNL     1      60.356   8.221   0.766  1.00  0.00     0.267 C 
HETATM   14  H   UNL     1      61.013   9.439   2.253  1.00  0.00     0.277 HD
HETATM   15  H   UNL     1      59.426   8.921   2.421  1.00  0.00     0.277 HD
ENDBRANCH  11  12
ENDBRANCH   6  11
TORSDOF 2
ENDMDL
MODEL 7
REMARK VINA RESULT:      -3.8     11.593     12.886
REMARK  2 active torsions:
REMARK  status: ('A' for Active; 'I' for Inactive)
REMARK    1  A    between atoms: C_6  and  C_10 
REMARK    2  A    between atoms: N_8  and  C_10 
ROOT
HETATM    1  C   UNL     1      59.583   0.944  12.721  1.00  0.00    -0.024 A 
HETATM    2  C   UNL     1      59.051   1.035  11.431  1.00  0.00     0.075 A 
HETATM    3  O   UNL     1      57.889   1.701  11.138  1.00  0.00    -0.351 OA
HETATM    4  C   UNL     1      60.800   0.278  12.912  1.00  0.00     0.018 A 
HETATM    5  C   UNL     1      59.686   0.407  10.363  1.00  0.00     0.038 A 
HETATM    6  C   UNL     1      61.457  -0.349  11.842  1.00  0.00    -0.032 A 
HETATM    7  C   UNL     1      60.884  -0.284  10.565  1.00  0.00     0.011 A 
HETATM    8  C   UNL     1      58.874   1.559  13.895  1.00  0.00     0.043 C 
HETATM    9  C   UNL     1      57.457   2.597  12.166  1.00  0.00     0.176 C 
HETATM   10  C   UNL     1      57.443   1.917  13.524  1.00  0.00     0.031 C 
ENDROOT
BRANCH   6  11
HETATM   11  C   UNL     1      62.762  -1.078  12.062  1.00  0.00     0.270 C 
BRANCH  11  12
HETATM   12  N   UNL     1      63.592  -0.391  13.053  1.00  0.00    -0.075 N 
HETATM   13  C   UNL     1      64.419  -1.334  13.788  1.00  0.00     0.267 C 
HETATM   14  H   UNL     1      62.986   0.103  13.709  1.00  0.00     0.277 HD
HETATM   15  H   UNL     1      64.203   0.263  12.566  1.00  0.00     0.277 HD
ENDBRANCH  11  12
ENDBRANCH   6  11
TORSDOF 2
ENDMDL
MODEL 8
REMARK VINA RESULT:      -3.7     13.056     13.477
REMARK  2 active torsions:
REMARK  status: ('A' for Active; 'I' for Inactive)
REMARK    1  A    between atoms: C_6  and  C_10 
REMARK    2  A    between atoms: N_8  and  C_10 
ROOT
HETATM    1  C   UNL     1      58.176  -0.074  13.319  1.00  0.00    -0.024 A 
HETATM    2  C   UNL     1      58.940   0.817  12.560  1.00  0.00     0.075 A 
HETATM    3  O   UNL     1      60.193   0.527  12.088  1.00  0.00    -0.351 OA
HETATM    4  C   UNL     1      56.886   0.299  13.717  1.00  0.00     0.018 A 
HETATM    5  C   UNL     1      58.452   2.089  12.267  1.00  0.00     0.038 A 
HETATM    6  C   UNL     1      56.378   1.573  13.420  1.00  0.00    -0.032 A 
HETATM    7  C   UNL     1      57.177   2.468  12.696  1.00  0.00     0.011 A 
HETATM    8  C   UNL     1      58.714  -1.425  13.699  1.00  0.00     0.043 C 
HETATM    9  C   UNL     1      60.515  -0.867  12.112  1.00  0.00     0.176 C 
HETATM   10  C   UNL     1      60.216  -1.482  13.468  1.00  0.00     0.031 C 
ENDROOT
BRANCH   6  11
HETATM   11  C   UNL     1      54.990   1.972  13.866  1.00  0.00     0.270 C 
BRANCH  11  12
HETATM   12  N   UNL     1      55.025   3.187  14.683  1.00  0.00    -0.075 N 
HETATM   13  C   UNL     1      54.346   4.286  14.016  1.00  0.00     0.267 C 
HETATM   14  H   UNL     1      55.997   3.448  14.850  1.00  0.00     0.277 HD
HETATM   15  H   UNL     1      54.547   2.998  15.563  1.00  0.00     0.277 HD
ENDBRANCH  11  12
ENDBRANCH   6  11
TORSDOF 2
ENDMDL
MODEL 9
REMARK VINA RESULT:      -3.5     12.220     12.761
REMARK  2 active torsions:
REMARK  status: ('A' for Active; 'I' for Inactive)
REMARK    1  A    between atoms: C_6  and  C_10 
REMARK    2  A    between atoms: N_8  and  C_10 
ROOT
HETATM    1  C   UNL     1      58.790   0.729  11.387  1.00  0.00    -0.024 A 
HETATM    2  C   UNL     1      59.739   0.711  12.414  1.00  0.00     0.075 A 
HETATM    3  O   UNL     1      60.974   0.131  12.291  1.00  0.00    -0.351 OA
HETATM    4  C   UNL     1      57.571   1.386  11.596  1.00  0.00     0.018 A 
HETATM    5  C   UNL     1      59.445   1.274  13.653  1.00  0.00     0.038 A 
HETATM    6  C   UNL     1      57.266   1.968  12.836  1.00  0.00    -0.032 A 
HETATM    7  C   UNL     1      58.213   1.899  13.866  1.00  0.00     0.011 A 
HETATM    8  C   UNL     1      59.066   0.067  10.067  1.00  0.00     0.043 C 
HETATM    9  C   UNL     1      61.363  -0.128  10.939  1.00  0.00     0.176 C 
HETATM   10  C   UNL     1      60.270  -0.856  10.177  1.00  0.00     0.031 C 
ENDROOT
BRANCH   6  11
HETATM   11  C   UNL     1      55.942   2.662  13.056  1.00  0.00     0.270 C 
BRANCH  11  12
HETATM   12  N   UNL     1      55.505   2.543  14.448  1.00  0.00    -0.075 N 
HETATM   13  C   UNL     1      54.284   1.759  14.549  1.00  0.00     0.267 C 
HETATM   14  H   UNL     1      55.335   3.475  14.825  1.00  0.00     0.277 HD
HETATM   15  H   UNL     1      56.237   2.069  14.977  1.00  0.00     0.277 HD
ENDBRANCH  11  12
ENDBRANCH   6  11
TORSDOF 2
ENDMDL
