MODEL 1
REMARK VINA RESULT:      -4.9      0.000      0.000
REMARK  2 active torsions:
REMARK  status: ('A' for Active; 'I' for Inactive)
REMARK    1  A    between atoms: C_6  and  C_10 
REMARK    2  A    between atoms: N_8  and  C_10 
ROOT
HETATM    1  C   UNL     1      62.625   8.593   2.834  1.00  0.00    -0.024 A 
HETATM    2  C   UNL     1      62.086   9.268   1.735  1.00  0.00     0.075 A 
HETATM    3  O   UNL     1      61.872   8.678   0.516  1.00  0.00    -0.351 OA
HETATM    4  C   UNL     1      62.766   9.274   4.052  1.00  0.00     0.018 A 
HETATM    5  C   UNL     1      61.764  10.621   1.828  1.00  0.00     0.038 A 
HETATM    6  C   UNL     1      62.414  10.629   4.167  1.00  0.00    -0.032 A 
HETATM    7  C   UNL     1      61.929  11.300   3.037  1.00  0.00     0.011 A 
HETATM    8  C   UNL     1      63.031   7.151   2.732  1.00  0.00     0.043 C 
HETATM    9  C   UNL     1      61.887   7.247   0.550  1.00  0.00     0.176 C 
HETATM   10  C   UNL     1      63.116   6.726   1.273  1.00  0.00     0.031 C 
ENDROOT
BRANCH   6  11
HETATM   11  C   UNL     1      62.576  11.346   5.482  1.00  0.00     0.268 C 
BRANCH  11  12
HETATM   12  N   UNL     1      63.870  11.057   6.089  1.00  0.00    -0.075 N 
HETATM   13  H   UNL     1      64.177  11.862   6.636  1.00  0.00     0.274 HD
HETATM   14  H   UNL     1      64.553  10.864   5.357  1.00  0.00     0.274 HD
HETATM   15  H   UNL     1      63.786  10.244   6.699  1.00  0.00     0.274 HD
ENDBRANCH  11  12
ENDBRANCH   6  11
TORSDOF 2
ENDMDL
MODEL 2
REMARK VINA RESULT:      -4.9      1.137      2.132
REMARK  2 active torsions:
REMARK  status: ('A' for Active; 'I' for Inactive)
REMARK    1  A    between atoms: C_6  and  C_10 
REMARK    2  A    between atoms: N_8  and  C_10 
ROOT
HETATM    1  C   UNL     1      62.171   9.061   2.406  1.00  0.00    -0.024 A 
HETATM    2  C   UNL     1      62.975   7.964   2.731  1.00  0.00     0.075 A 
HETATM    3  O   UNL     1      63.150   6.884   1.905  1.00  0.00    -0.351 OA
HETATM    4  C   UNL     1      62.089  10.137   3.302  1.00  0.00     0.018 A 
HETATM    5  C   UNL     1      63.625   7.908   3.962  1.00  0.00     0.038 A 
HETATM    6  C   UNL     1      62.768  10.107   4.531  1.00  0.00    -0.032 A 
HETATM    7  C   UNL     1      63.521   8.973   4.861  1.00  0.00     0.011 A 
HETATM    8  C   UNL     1      61.417   9.109   1.109  1.00  0.00     0.043 C 
HETATM    9  C   UNL     1      62.761   7.119   0.548  1.00  0.00     0.176 C 
HETATM   10  C   UNL     1      61.372   7.728   0.470  1.00  0.00     0.031 C 
ENDROOT
BRANCH   6  11
HETATM   11  C   UNL     1      62.665  11.270   5.484  1.00  0.00     0.268 C 
BRANCH  11  12
HETATM   12  N   UNL     1      63.869  11.400   6.295  1.00  0.00    -0.075 N 
HETATM   13  H   UNL     1      64.668  11.029   5.780  1.00  0.00     0.274 HD
HETATM   14  H   UNL     1      63.753  10.878   7.163  1.00  0.00     0.274 HD
HETATM   15  H   UNL     1      64.031  12.384   6.509  1.00  0.00     0.274 HD
ENDBRANCH  11  12
ENDBRANCH   6  11
TORSDOF 2
ENDMDL
MODEL 3
REMARK VINA RESULT:      -4.5      3.345      4.384
REMARK  2 active torsions:
REMARK  status: ('A' for Active; 'I' for Inactive)
REMARK    1  A    between atoms: C_6  and  C_10 
REMARK    2  A    between atoms: N_8  and  C_10 
ROOT
HETATM    1  C   UNL     1      64.394   7.719   4.156  1.00  0.00    -0.024 A 
HETATM    2  C   UNL     1      64.469   8.767   5.078  1.00  0.00     0.075 A 
HETATM    3  O   UNL     1      65.457   8.874   6.023  1.00  0.00    -0.351 OA
HETATM    4  C   UNL     1      63.367   7.722   3.201  1.00  0.00     0.018 A 
HETATM    5  C   UNL     1      63.491   9.760   5.096  1.00  0.00     0.038 A 
HETATM    6  C   UNL     1      62.394   8.736   3.189  1.00  0.00    -0.032 A 
HETATM    7  C   UNL     1      62.456   9.744   4.158  1.00  0.00     0.011 A 
HETATM    8  C   UNL     1      65.406   6.611   4.161  1.00  0.00     0.043 C 
HETATM    9  C   UNL     1      66.602   8.055   5.763  1.00  0.00     0.176 C 
HETATM   10  C   UNL     1      66.199   6.622   5.461  1.00  0.00     0.031 C 
ENDROOT
BRANCH   6  11
HETATM   11  C   UNL     1      61.295   8.721   2.158  1.00  0.00     0.268 C 
BRANCH  11  12
HETATM   12  N   UNL     1      60.028   8.292   2.739  1.00  0.00    -0.075 N 
HETATM   13  H   UNL     1      59.256   8.689   2.203  1.00  0.00     0.274 HD
HETATM   14  H   UNL     1      59.971   8.613   3.705  1.00  0.00     0.274 HD
HETATM   15  H   UNL     1      59.970   7.274   2.715  1.00  0.00     0.274 HD
ENDBRANCH  11  12
ENDBRANCH   6  11
TORSDOF 2
ENDMDL
MODEL 4
REMARK VINA RESULT:      -4.4      2.584      3.949
REMARK  2 active torsions:
REMARK  status: ('A' for Active; 'I' for Inactive)
REMARK    1  A    between atoms: C_6  and  C_10 
REMARK    2  A    between atoms: N_8  and  C_10 
ROOT
HETATM    1  C   UNL     1      63.716   8.703   4.334  1.00  0.00    -0.024 A 
HETATM    2  C   UNL     1      63.569   7.750   3.322  1.00  0.00     0.075 A 
HETATM    3  O   UNL     1      62.564   7.784   2.391  1.00  0.00    -0.351 OA
HETATM    4  C   UNL     1      64.803   8.603   5.214  1.00  0.00     0.018 A 
HETATM    5  C   UNL     1      64.449   6.672   3.238  1.00  0.00     0.038 A 
HETATM    6  C   UNL     1      65.716   7.540   5.117  1.00  0.00    -0.032 A 
HETATM    7  C   UNL     1      65.516   6.565   4.132  1.00  0.00     0.011 A 
HETATM    8  C   UNL     1      62.742   9.837   4.475  1.00  0.00     0.043 C 
HETATM    9  C   UNL     1      61.903   9.050   2.294  1.00  0.00     0.176 C 
HETATM   10  C   UNL     1      61.486   9.561   3.661  1.00  0.00     0.031 C 
ENDROOT
BRANCH   6  11
HETATM   11  C   UNL     1      66.876   7.446   6.074  1.00  0.00     0.268 C 
BRANCH  11  12
HETATM   12  N   UNL     1      66.865   8.545   7.032  1.00  0.00    -0.075 N 
HETATM   13  H   UNL     1      65.903   8.833   7.208  1.00  0.00     0.274 HD
HETATM   14  H   UNL     1      67.392   9.331   6.654  1.00  0.00     0.274 HD
HETATM   15  H   UNL     1      67.292   8.239   7.907  1.00  0.00     0.274 HD
ENDBRANCH  11  12
ENDBRANCH   6  11
TORSDOF 2
ENDMDL
MODEL 5
REMARK VINA RESULT:      -4.3      3.310      4.288
REMARK  2 active torsions:
REMARK  status: ('A' for Active; 'I' for Inactive)
REMARK    1  A    between atoms: C_6  and  C_10 
REMARK    2  A    between atoms: N_8  and  C_10 
ROOT
HETATM    1  C   UNL     1      65.108   8.047   4.984  1.00  0.00    -0.024 A 
HETATM    2  C   UNL     1      64.928   7.013   4.061  1.00  0.00     0.075 A 
HETATM    3  O   UNL     1      65.764   5.931   3.965  1.00  0.00    -0.351 OA
HETATM    4  C   UNL     1      64.172   9.091   5.031  1.00  0.00     0.018 A 
HETATM    5  C   UNL     1      63.874   7.059   3.150  1.00  0.00     0.038 A 
HETATM    6  C   UNL     1      63.088   9.130   4.140  1.00  0.00    -0.032 A 
HETATM    7  C   UNL     1      62.959   8.113   3.186  1.00  0.00     0.011 A 
HETATM    8  C   UNL     1      66.271   8.043   5.933  1.00  0.00     0.043 C 
HETATM    9  C   UNL     1      66.608   5.744   5.106  1.00  0.00     0.176 C 
HETATM   10  C   UNL     1      67.317   7.032   5.485  1.00  0.00     0.031 C 
ENDROOT
BRANCH   6  11
HETATM   11  C   UNL     1      62.094  10.262   4.202  1.00  0.00     0.268 C 
BRANCH  11  12
HETATM   12  N   UNL     1      61.703  10.699   2.867  1.00  0.00    -0.075 N 
HETATM   13  H   UNL     1      61.303  11.636   2.919  1.00  0.00     0.274 HD
HETATM   14  H   UNL     1      61.010  10.054   2.488  1.00  0.00     0.274 HD
HETATM   15  H   UNL     1      62.522  10.713   2.259  1.00  0.00     0.274 HD
ENDBRANCH  11  12
ENDBRANCH   6  11
TORSDOF 2
ENDMDL
MODEL 6
REMARK VINA RESULT:      -4.2      4.115      5.671
REMARK  2 active torsions:
REMARK  status: ('A' for Active; 'I' for Inactive)
REMARK    1  A    between atoms: C_6  and  C_10 
REMARK    2  A    between atoms: N_8  and  C_10 
ROOT
HETATM    1  C   UNL     1      64.609   7.495   4.132  1.00  0.00    -0.024 A 
HETATM    2  C   UNL     1      65.165   8.337   5.100  1.00  0.00     0.075 A 
HETATM    3  O   UNL     1      64.551   9.476   5.555  1.00  0.00    -0.351 OA
HETATM    4  C   UNL     1      65.298   6.330   3.764  1.00  0.00     0.018 A 
HETATM    5  C   UNL     1      66.421   8.061   5.636  1.00  0.00     0.038 A 
HETATM    6  C   UNL     1      66.550   6.024   4.322  1.00  0.00    -0.032 A 
HETATM    7  C   UNL     1      67.113   6.911   5.248  1.00  0.00     0.011 A 
HETATM    8  C   UNL     1      63.284   7.810   3.503  1.00  0.00     0.043 C 
HETATM    9  C   UNL     1      63.154   9.545   5.251  1.00  0.00     0.176 C 
HETATM   10  C   UNL     1      62.893   9.254   3.784  1.00  0.00     0.031 C 
ENDROOT
BRANCH   6  11
HETATM   11  C   UNL     1      67.278   4.770   3.912  1.00  0.00     0.268 C 
BRANCH  11  12
HETATM   12  N   UNL     1      67.522   4.744   2.475  1.00  0.00    -0.075 N 
HETATM   13  H   UNL     1      67.236   3.840   2.097  1.00  0.00     0.274 HD
HETATM   14  H   UNL     1      68.516   4.887   2.296  1.00  0.00     0.274 HD
HETATM   15  H   UNL     1      66.985   5.485   2.025  1.00  0.00     0.274 HD
ENDBRANCH  11  12
ENDBRANCH   6  11
TORSDOF 2
ENDMDL
MODEL 7
REMARK VINA RESULT:      -4.2      4.161      5.276
REMARK  2 active torsions:
REMARK  status: ('A' for Active; 'I' for Inactive)
REMARK    1  A    between atoms: C_6  and  C_10 
REMARK    2  A    between atoms: N_8  and  C_10 
ROOT
HETATM    1  C   UNL     1      65.265   7.849   5.797  1.00  0.00    -0.024 A 
HETATM    2  C   UNL     1      64.573   6.826   6.453  1.00  0.00     0.075 A 
HETATM    3  O   UNL     1      65.179   5.901   7.261  1.00  0.00    -0.351 OA
HETATM    4  C   UNL     1      64.547   8.773   5.024  1.00  0.00     0.018 A 
HETATM    5  C   UNL     1      63.198   6.683   6.278  1.00  0.00     0.038 A 
HETATM    6  C   UNL     1      63.155   8.658   4.868  1.00  0.00    -0.032 A 
HETATM    7  C   UNL     1      62.491   7.592   5.488  1.00  0.00     0.011 A 
HETATM    8  C   UNL     1      66.754   7.981   5.927  1.00  0.00     0.043 C 
HETATM    9  C   UNL     1      66.496   6.270   7.684  1.00  0.00     0.176 C 
HETATM   10  C   UNL     1      67.351   6.707   6.508  1.00  0.00     0.031 C 
ENDROOT
BRANCH   6  11
HETATM   11  C   UNL     1      62.400   9.657   4.030  1.00  0.00     0.268 C 
BRANCH  11  12
HETATM   12  N   UNL     1      62.409  10.980   4.644  1.00  0.00    -0.075 N 
HETATM   13  H   UNL     1      62.563  10.888   5.649  1.00  0.00     0.274 HD
HETATM   14  H   UNL     1      61.513  11.437   4.479  1.00  0.00     0.274 HD
HETATM   15  H   UNL     1      63.157  11.540   4.237  1.00  0.00     0.274 HD
ENDBRANCH  11  12
ENDBRANCH   6  11
TORSDOF 2
ENDMDL
MODEL 8
REMARK VINA RESULT:      -4.1      2.021      3.797
REMARK  2 active torsions:
REMARK  status: ('A' for Active; 'I' for Inactive)
REMARK    1  A    between atoms: C_6  and  C_10 
REMARK    2  A    between atoms: N_8  and  C_10 
ROOT
HETATM    1  C   UNL     1      63.178   9.215   4.216  1.00  0.00    -0.024 A 
HETATM    2  C   UNL     1      62.864   8.617   2.992  1.00  0.00     0.075 A 
HETATM    3  O   UNL     1      62.135   9.239   2.012  1.00  0.00    -0.351 OA
HETATM    4  C   UNL     1      63.965   8.509   5.138  1.00  0.00     0.018 A 
HETATM    5  C   UNL     1      63.264   7.309   2.724  1.00  0.00     0.038 A 
HETATM    6  C   UNL     1      64.403   7.203   4.865  1.00  0.00    -0.032 A 
HETATM    7  C   UNL     1      64.027   6.603   3.656  1.00  0.00     0.011 A 
HETATM    8  C   UNL     1      62.704  10.601   4.544  1.00  0.00     0.043 C 
HETATM    9  C   UNL     1      62.038  10.659   2.170  1.00  0.00     0.176 C 
HETATM   10  C   UNL     1      61.608  11.029   3.578  1.00  0.00     0.031 C 
ENDROOT
BRANCH   6  11
HETATM   11  C   UNL     1      65.244   6.458   5.869  1.00  0.00     0.268 C 
BRANCH  11  12
HETATM   12  N   UNL     1      65.378   7.210   7.111  1.00  0.00    -0.075 N 
HETATM   13  H   UNL     1      64.452   7.447   7.467  1.00  0.00     0.274 HD
HETATM   14  H   UNL     1      65.904   8.066   6.935  1.00  0.00     0.274 HD
HETATM   15  H   UNL     1      65.872   6.643   7.800  1.00  0.00     0.274 HD
ENDBRANCH  11  12
ENDBRANCH   6  11
TORSDOF 2
ENDMDL
MODEL 9
REMARK VINA RESULT:      -4.1      5.668      6.870
REMARK  2 active torsions:
REMARK  status: ('A' for Active; 'I' for Inactive)
REMARK    1  A    between atoms: C_6  and  C_10 
REMARK    2  A    between atoms: N_8  and  C_10 
ROOT
HETATM    1  C   UNL     1      66.401   6.609   7.121  1.00  0.00    -0.024 A 
HETATM    2  C   UNL     1      67.155   5.797   6.269  1.00  0.00     0.075 A 
HETATM    3  O   UNL     1      68.074   4.882   6.713  1.00  0.00    -0.351 OA
HETATM    4  C   UNL     1      65.456   7.486   6.569  1.00  0.00     0.018 A 
HETATM    5  C   UNL     1      67.023   5.914   4.886  1.00  0.00     0.038 A 
HETATM    6  C   UNL     1      65.289   7.587   5.178  1.00  0.00    -0.032 A 
HETATM    7  C   UNL     1      66.096   6.806   4.342  1.00  0.00     0.011 A 
HETATM    8  C   UNL     1      66.575   6.537   8.610  1.00  0.00     0.043 C 
HETATM    9  C   UNL     1      67.942   4.550   8.099  1.00  0.00     0.176 C 
HETATM   10  C   UNL     1      67.858   5.798   8.960  1.00  0.00     0.031 C 
ENDROOT
BRANCH   6  11
HETATM   11  C   UNL     1      64.272   8.538   4.603  1.00  0.00     0.268 C 
BRANCH  11  12
HETATM   12  N   UNL     1      63.447   9.131   5.649  1.00  0.00    -0.075 N 
HETATM   13  H   UNL     1      62.657   9.617   5.225  1.00  0.00     0.274 HD
HETATM   14  H   UNL     1      64.005   9.794   6.186  1.00  0.00     0.274 HD
HETATM   15  H   UNL     1      63.102   8.397   6.268  1.00  0.00     0.274 HD
ENDBRANCH  11  12
ENDBRANCH   6  11
TORSDOF 2
ENDMDL
