MODEL 1
REMARK VINA RESULT:      -4.3      0.000      0.000
REMARK  2 active torsions:
REMARK  status: ('A' for Active; 'I' for Inactive)
REMARK    1  A    between atoms: CA_5  and  C_10 
REMARK    2  A    between atoms: C_10  and  O_11 
ROOT
HETATM    1  C   UNL     1      63.987   8.263   4.355  1.00  0.00     0.155 A 
HETATM    2  N   UNL     1      64.189   9.122   5.315  1.00  0.00    -0.337 N 
ATOM      3  HN  UNL     1      64.891   9.093   6.054  1.00  0.00     0.168 HD
HETATM    4  N   UNL     1      62.968   8.603   3.518  1.00  0.00    -0.311 N 
HETATM    5  CA  UNL     1      63.214  10.090   5.087  1.00  0.00     0.051 A 
HETATM    6  C   UNL     1      62.453   9.781   3.966  1.00  0.00     0.125 A 
HETATM    7  S   UNL     1      64.711   6.760   3.875  1.00  0.00    -0.064 SA
HETATM    8  C   UNL     1      62.719   7.725   2.490  1.00  0.00     0.106 A 
HETATM    9  C   UNL     1      63.561   6.675   2.525  1.00  0.00     0.071 A 
ENDROOT
BRANCH   5  10
HETATM   10  C   UNL     1      63.113  11.272   5.989  1.00  0.00     0.222 C 
BRANCH  10  11
HETATM   11  O   UNL     1      64.384  11.629   6.521  1.00  0.00    -0.395 OA
HETATM   12  H   UNL     1      64.341  12.529   6.882  1.00  0.00     0.209 HD
ENDBRANCH  10  11
ENDBRANCH   5  10
TORSDOF 2
ENDMDL
MODEL 2
REMARK VINA RESULT:      -4.2      1.573      1.895
REMARK  2 active torsions:
REMARK  status: ('A' for Active; 'I' for Inactive)
REMARK    1  A    between atoms: CA_5  and  C_10 
REMARK    2  A    between atoms: C_10  and  O_11 
ROOT
HETATM    1  C   UNL     1      62.341   9.347   3.261  1.00  0.00     0.155 A 
HETATM    2  N   UNL     1      62.138  10.417   3.977  1.00  0.00    -0.337 N 
ATOM      3  HN  UNL     1      61.484  11.180   3.805  1.00  0.00     0.168 HD
HETATM    4  N   UNL     1      63.286   8.512   3.775  1.00  0.00    -0.311 N 
HETATM    5  CA  UNL     1      63.032  10.267   5.035  1.00  0.00     0.051 A 
HETATM    6  C   UNL     1      63.746   9.080   4.924  1.00  0.00     0.125 A 
HETATM    7  S   UNL     1      61.692   8.716   1.780  1.00  0.00    -0.064 SA
HETATM    8  C   UNL     1      63.532   7.368   3.052  1.00  0.00     0.106 A 
HETATM    9  C   UNL     1      62.766   7.311   1.947  1.00  0.00     0.071 A 
ENDROOT
BRANCH   5  10
HETATM   10  C   UNL     1      63.106  11.307   6.100  1.00  0.00     0.222 C 
BRANCH  10  11
HETATM   11  O   UNL     1      64.452  11.555   6.490  1.00  0.00    -0.395 OA
HETATM   12  H   UNL     1      64.616  12.512   6.493  1.00  0.00     0.209 HD
ENDBRANCH  10  11
ENDBRANCH   5  10
TORSDOF 2
ENDMDL
MODEL 3
REMARK VINA RESULT:      -4.2      1.459      1.628
REMARK  2 active torsions:
REMARK  status: ('A' for Active; 'I' for Inactive)
REMARK    1  A    between atoms: CA_5  and  C_10 
REMARK    2  A    between atoms: C_10  and  O_11 
ROOT
HETATM    1  C   UNL     1      62.814   8.849   3.407  1.00  0.00     0.155 A 
HETATM    2  N   UNL     1      63.199   9.202   4.602  1.00  0.00    -0.337 N 
ATOM      3  HN  UNL     1      63.734   8.661   5.280  1.00  0.00     0.168 HD
HETATM    4  N   UNL     1      62.118   9.816   2.746  1.00  0.00    -0.311 N 
HETATM    5  CA  UNL     1      62.702  10.497   4.728  1.00  0.00     0.051 A 
HETATM    6  C   UNL     1      62.033  10.893   3.575  1.00  0.00     0.125 A 
HETATM    7  S   UNL     1      62.971   7.420   2.435  1.00  0.00    -0.064 SA
HETATM    8  C   UNL     1      61.691   9.487   1.480  1.00  0.00     0.106 A 
HETATM    9  C   UNL     1      62.060   8.236   1.147  1.00  0.00     0.071 A 
ENDROOT
BRANCH   5  10
HETATM   10  C   UNL     1      62.939  11.267   5.982  1.00  0.00     0.222 C 
BRANCH  10  11
HETATM   11  O   UNL     1      64.329  11.401   6.253  1.00  0.00    -0.395 OA
HETATM   12  H   UNL     1      64.693  10.538   6.510  1.00  0.00     0.209 HD
ENDBRANCH  10  11
ENDBRANCH   5  10
TORSDOF 2
ENDMDL
MODEL 4
REMARK VINA RESULT:      -3.8      2.225      2.898
REMARK  2 active torsions:
REMARK  status: ('A' for Active; 'I' for Inactive)
REMARK    1  A    between atoms: CA_5  and  C_10 
REMARK    2  A    between atoms: C_10  and  O_11 
ROOT
HETATM    1  C   UNL     1      63.544   9.194   4.656  1.00  0.00     0.155 A 
HETATM    2  N   UNL     1      64.388   9.216   5.650  1.00  0.00    -0.337 N 
ATOM      3  HN  UNL     1      64.459   9.897   6.405  1.00  0.00     0.168 HD
HETATM    4  N   UNL     1      63.710   8.134   3.818  1.00  0.00    -0.311 N 
HETATM    5  CA  UNL     1      65.171   8.086   5.429  1.00  0.00     0.051 A 
HETATM    6  C   UNL     1      64.752   7.400   4.295  1.00  0.00     0.125 A 
HETATM    7  S   UNL     1      62.236  10.206   4.129  1.00  0.00    -0.064 SA
HETATM    8  C   UNL     1      62.839   8.070   2.755  1.00  0.00     0.106 A 
HETATM    9  C   UNL     1      61.977   9.103   2.762  1.00  0.00     0.071 A 
ENDROOT
BRANCH   5  10
HETATM   10  C   UNL     1      66.276   7.750   6.371  1.00  0.00     0.222 C 
BRANCH  10  11
HETATM   11  O   UNL     1      66.828   8.920   6.962  1.00  0.00    -0.395 OA
HETATM   12  H   UNL     1      67.065   9.553   6.265  1.00  0.00     0.209 HD
ENDBRANCH  10  11
ENDBRANCH   5  10
TORSDOF 2
ENDMDL
MODEL 5
REMARK VINA RESULT:      -3.5      3.281      4.142
REMARK  2 active torsions:
REMARK  status: ('A' for Active; 'I' for Inactive)
REMARK    1  A    between atoms: CA_5  and  C_10 
REMARK    2  A    between atoms: C_10  and  O_11 
ROOT
HETATM    1  C   UNL     1      65.576   6.787   6.877  1.00  0.00     0.155 A 
HETATM    2  N   UNL     1      64.459   7.426   6.667  1.00  0.00    -0.337 N 
ATOM      3  HN  UNL     1      63.597   7.390   7.211  1.00  0.00     0.168 HD
HETATM    4  N   UNL     1      66.548   7.067   5.965  1.00  0.00    -0.311 N 
HETATM    5  CA  UNL     1      64.727   8.170   5.520  1.00  0.00     0.051 A 
HETATM    6  C   UNL     1      66.028   7.960   5.079  1.00  0.00     0.125 A 
HETATM    7  S   UNL     1      66.137   5.643   8.054  1.00  0.00    -0.064 SA
HETATM    8  C   UNL     1      67.746   6.415   6.148  1.00  0.00     0.106 A 
HETATM    9  C   UNL     1      67.707   5.607   7.223  1.00  0.00     0.071 A 
ENDROOT
BRANCH   5  10
HETATM   10  C   UNL     1      63.676   9.057   4.946  1.00  0.00     0.222 C 
BRANCH  10  11
HETATM   11  O   UNL     1      63.577  10.279   5.668  1.00  0.00    -0.395 OA
HETATM   12  H   UNL     1      63.807  10.124   6.599  1.00  0.00     0.209 HD
ENDBRANCH  10  11
ENDBRANCH   5  10
TORSDOF 2
ENDMDL
MODEL 6
REMARK VINA RESULT:      -3.4      2.365      2.659
REMARK  2 active torsions:
REMARK  status: ('A' for Active; 'I' for Inactive)
REMARK    1  A    between atoms: CA_5  and  C_10 
REMARK    2  A    between atoms: C_10  and  O_11 
ROOT
HETATM    1  C   UNL     1      64.397   7.979   5.676  1.00  0.00     0.155 A 
HETATM    2  N   UNL     1      64.242   9.248   5.420  1.00  0.00    -0.337 N 
ATOM      3  HN  UNL     1      64.906  10.008   5.563  1.00  0.00     0.168 HD
HETATM    4  N   UNL     1      63.313   7.218   5.359  1.00  0.00    -0.311 N 
HETATM    5  CA  UNL     1      62.949   9.314   4.907  1.00  0.00     0.051 A 
HETATM    6  C   UNL     1      62.363   8.054   4.856  1.00  0.00     0.125 A 
HETATM    7  S   UNL     1      65.670   7.003   6.339  1.00  0.00    -0.064 SA
HETATM    8  C   UNL     1      63.432   5.871   5.611  1.00  0.00     0.106 A 
HETATM    9  C   UNL     1      64.634   5.574   6.140  1.00  0.00     0.071 A 
ENDROOT
BRANCH   5  10
HETATM   10  C   UNL     1      62.383  10.626   4.481  1.00  0.00     0.222 C 
BRANCH  10  11
HETATM   11  O   UNL     1      61.186  10.456   3.731  1.00  0.00    -0.395 OA
HETATM   12  H   UNL     1      60.899  11.315   3.382  1.00  0.00     0.209 HD
ENDBRANCH  10  11
ENDBRANCH   5  10
TORSDOF 2
ENDMDL
MODEL 7
REMARK VINA RESULT:      -3.3      3.373      4.470
REMARK  2 active torsions:
REMARK  status: ('A' for Active; 'I' for Inactive)
REMARK    1  A    between atoms: CA_5  and  C_10 
REMARK    2  A    between atoms: C_10  and  O_11 
ROOT
HETATM    1  C   UNL     1      62.003   9.067   3.313  1.00  0.00     0.155 A 
HETATM    2  N   UNL     1      60.948   9.321   2.590  1.00  0.00    -0.337 N 
ATOM      3  HN  UNL     1      60.287  10.091   2.684  1.00  0.00     0.168 HD
HETATM    4  N   UNL     1      62.685   7.956   2.918  1.00  0.00    -0.311 N 
HETATM    5  CA  UNL     1      60.940   8.284   1.660  1.00  0.00     0.051 A 
HETATM    6  C   UNL     1      62.023   7.432   1.850  1.00  0.00     0.125 A 
HETATM    7  S   UNL     1      62.765   9.810   4.684  1.00  0.00    -0.064 SA
HETATM    8  C   UNL     1      63.807   7.650   3.652  1.00  0.00     0.106 A 
HETATM    9  C   UNL     1      64.004   8.539   4.643  1.00  0.00     0.071 A 
ENDROOT
BRANCH   5  10
HETATM   10  C   UNL     1      59.866   8.216   0.630  1.00  0.00     0.222 C 
BRANCH  10  11
HETATM   11  O   UNL     1      58.587   8.472   1.196  1.00  0.00    -0.395 OA
HETATM   12  H   UNL     1      57.902   8.052   0.651  1.00  0.00     0.209 HD
ENDBRANCH  10  11
ENDBRANCH   5  10
TORSDOF 2
ENDMDL
MODEL 8
REMARK VINA RESULT:      -3.3      2.946      3.046
REMARK  2 active torsions:
REMARK  status: ('A' for Active; 'I' for Inactive)
REMARK    1  A    between atoms: CA_5  and  C_10 
REMARK    2  A    between atoms: C_10  and  O_11 
ROOT
HETATM    1  C   UNL     1      61.349   8.139   3.367  1.00  0.00     0.155 A 
HETATM    2  N   UNL     1      61.198   9.423   3.536  1.00  0.00    -0.337 N 
ATOM      3  HN  UNL     1      60.765   9.912   4.319  1.00  0.00     0.168 HD
HETATM    4  N   UNL     1      61.984   7.808   2.209  1.00  0.00    -0.311 N 
HETATM    5  CA  UNL     1      61.771   9.966   2.389  1.00  0.00     0.051 A 
HETATM    6  C   UNL     1      62.271   8.969   1.558  1.00  0.00     0.125 A 
HETATM    7  S   UNL     1      60.928   6.720   4.273  1.00  0.00    -0.064 SA
HETATM    8  C   UNL     1      62.166   6.463   1.989  1.00  0.00     0.106 A 
HETATM    9  C   UNL     1      61.660   5.727   2.995  1.00  0.00     0.071 A 
ENDROOT
BRANCH   5  10
HETATM   10  C   UNL     1      61.801  11.443   2.199  1.00  0.00     0.222 C 
BRANCH  10  11
HETATM   11  O   UNL     1      61.879  12.125   3.446  1.00  0.00    -0.395 OA
HETATM   12  H   UNL     1      61.093  12.684   3.558  1.00  0.00     0.209 HD
ENDBRANCH  10  11
ENDBRANCH   5  10
TORSDOF 2
ENDMDL
MODEL 9
REMARK VINA RESULT:      -3.3      2.273      3.002
REMARK  2 active torsions:
REMARK  status: ('A' for Active; 'I' for Inactive)
REMARK    1  A    between atoms: CA_5  and  C_10 
REMARK    2  A    between atoms: C_10  and  O_11 
ROOT
HETATM    1  C   UNL     1      64.818   8.242   5.550  1.00  0.00     0.155 A 
HETATM    2  N   UNL     1      64.353   9.220   4.823  1.00  0.00    -0.337 N 
ATOM      3  HN  UNL     1      64.865   9.995   4.403  1.00  0.00     0.168 HD
HETATM    4  N   UNL     1      63.866   7.355   5.951  1.00  0.00    -0.311 N 
HETATM    5  CA  UNL     1      62.989   8.949   4.758  1.00  0.00     0.051 A 
HETATM    6  C   UNL     1      62.675   7.785   5.452  1.00  0.00     0.125 A 
HETATM    7  S   UNL     1      66.384   7.788   6.146  1.00  0.00    -0.064 SA
HETATM    8  C   UNL     1      64.312   6.306   6.721  1.00  0.00     0.106 A 
HETATM    9  C   UNL     1      65.640   6.377   6.927  1.00  0.00     0.071 A 
ENDROOT
BRANCH   5  10
HETATM   10  C   UNL     1      62.085   9.856   3.996  1.00  0.00     0.222 C 
BRANCH  10  11
HETATM   11  O   UNL     1      62.074  11.166   4.553  1.00  0.00    -0.395 OA
HETATM   12  H   UNL     1      62.838  11.273   5.142  1.00  0.00     0.209 HD
ENDBRANCH  10  11
ENDBRANCH   5  10
TORSDOF 2
ENDMDL
