MODEL 1
REMARK VINA RESULT:      -5.4      0.000      0.000
REMARK  3 active torsions:
REMARK  status: ('A' for Active; 'I' for Inactive)
REMARK    1  A    between atoms: N_1  and  C_2 
REMARK    2  A    between atoms: C_5  and  C_13 
REMARK    3  A    between atoms: O_9  and  C_13 
ROOT
HETATM    1  C   UNL     1      64.520   7.811   4.592  1.00  0.00     0.030 A 
HETATM    2  C   UNL     1      64.276   8.976   5.334  1.00  0.00     0.038 A 
HETATM    3  C   UNL     1      63.283   9.903   4.960  1.00  0.00    -0.033 A 
HETATM    4  C   UNL     1      63.712   7.593   3.466  1.00  0.00     0.029 A 
HETATM    5  C   UNL     1      62.712   8.491   3.088  1.00  0.00     0.003 A 
HETATM    6  C   UNL     1      62.500   9.645   3.831  1.00  0.00     0.009 A 
ENDROOT
BRANCH   1   7
HETATM    7  N   UNL     1      65.491   6.890   4.930  1.00  0.00    -0.377 N 
HETATM    8  C   UNL     1      65.462   6.105   6.172  1.00  0.00     0.149 C 
HETATM    9  C   UNL     1      66.620   6.495   7.102  1.00  0.00     0.187 C 
HETATM   10  O   UNL     1      67.888   6.439   6.428  1.00  0.00    -0.388 OA
HETATM   11  C   UNL     1      67.890   7.339   5.308  1.00  0.00     0.187 C 
HETATM   12  C   UNL     1      66.810   6.966   4.279  1.00  0.00     0.149 C 
ENDBRANCH   1   7
BRANCH   3  13
HETATM   13  C   UNL     1      63.083  11.166   5.754  1.00  0.00     0.203 C 
BRANCH  13  14
HETATM   14  O   UNL     1      64.279  11.536   6.425  1.00  0.00    -0.396 OA
HETATM   15  H   UNL     1      64.135  12.363   6.910  1.00  0.00     0.209 HD
ENDBRANCH  13  14
ENDBRANCH   3  13
TORSDOF 3
ENDMDL
MODEL 2
REMARK VINA RESULT:      -5.1      0.918      1.208
REMARK  3 active torsions:
REMARK  status: ('A' for Active; 'I' for Inactive)
REMARK    1  A    between atoms: N_1  and  C_2 
REMARK    2  A    between atoms: C_5  and  C_13 
REMARK    3  A    between atoms: O_9  and  C_13 
ROOT
HETATM    1  C   UNL     1      65.027   7.717   4.780  1.00  0.00     0.030 A 
HETATM    2  C   UNL     1      64.609   8.900   5.405  1.00  0.00     0.038 A 
HETATM    3  C   UNL     1      63.487   9.624   4.955  1.00  0.00    -0.033 A 
HETATM    4  C   UNL     1      64.263   7.267   3.692  1.00  0.00     0.029 A 
HETATM    5  C   UNL     1      63.138   7.960   3.242  1.00  0.00     0.003 A 
HETATM    6  C   UNL     1      62.753   9.138   3.868  1.00  0.00     0.009 A 
ENDROOT
BRANCH   1   7
HETATM    7  N   UNL     1      66.127   6.992   5.194  1.00  0.00    -0.377 N 
HETATM    8  C   UNL     1      66.240   5.535   5.034  1.00  0.00     0.149 C 
HETATM    9  C   UNL     1      66.241   4.826   6.397  1.00  0.00     0.187 C 
HETATM   10  O   UNL     1      67.230   5.377   7.283  1.00  0.00    -0.388 OA
HETATM   11  C   UNL     1      66.971   6.772   7.504  1.00  0.00     0.187 C 
HETATM   12  C   UNL     1      67.036   7.575   6.194  1.00  0.00     0.149 C 
ENDBRANCH   1   7
BRANCH   3  13
HETATM   13  C   UNL     1      63.097  10.916   5.621  1.00  0.00     0.203 C 
BRANCH  13  14
HETATM   14  O   UNL     1      64.210  11.498   6.285  1.00  0.00    -0.396 OA
HETATM   15  H   UNL     1      64.292  11.118   7.173  1.00  0.00     0.209 HD
ENDBRANCH  13  14
ENDBRANCH   3  13
TORSDOF 3
ENDMDL
MODEL 3
REMARK VINA RESULT:      -5.0      2.245      2.734
REMARK  3 active torsions:
REMARK  status: ('A' for Active; 'I' for Inactive)
REMARK    1  A    between atoms: N_1  and  C_2 
REMARK    2  A    between atoms: C_5  and  C_13 
REMARK    3  A    between atoms: O_9  and  C_13 
ROOT
HETATM    1  C   UNL     1      63.250   7.839   3.224  1.00  0.00     0.030 A 
HETATM    2  C   UNL     1      62.812   9.146   3.481  1.00  0.00     0.038 A 
HETATM    3  C   UNL     1      62.123   9.904   2.513  1.00  0.00    -0.033 A 
HETATM    4  C   UNL     1      62.951   7.304   1.962  1.00  0.00     0.029 A 
HETATM    5  C   UNL     1      62.255   8.032   0.996  1.00  0.00     0.003 A 
HETATM    6  C   UNL     1      61.846   9.331   1.268  1.00  0.00     0.009 A 
ENDROOT
BRANCH   1   7
HETATM    7  N   UNL     1      63.934   7.076   4.149  1.00  0.00    -0.377 N 
HETATM    8  C   UNL     1      63.268   6.279   5.189  1.00  0.00     0.149 C 
HETATM    9  C   UNL     1      63.568   6.832   6.590  1.00  0.00     0.187 C 
HETATM   10  O   UNL     1      64.980   6.984   6.812  1.00  0.00    -0.388 OA
HETATM   11  C   UNL     1      65.536   7.889   5.844  1.00  0.00     0.187 C 
HETATM   12  C   UNL     1      65.354   7.366   4.410  1.00  0.00     0.149 C 
ENDBRANCH   1   7
BRANCH   3  13
HETATM   13  C   UNL     1      61.712  11.322   2.808  1.00  0.00     0.203 C 
BRANCH  13  14
HETATM   14  O   UNL     1      62.106  12.192   1.757  1.00  0.00    -0.396 OA
HETATM   15  H   UNL     1      62.773  12.814   2.086  1.00  0.00     0.209 HD
ENDBRANCH  13  14
ENDBRANCH   3  13
TORSDOF 3
ENDMDL
MODEL 4
REMARK VINA RESULT:      -4.9      2.444      3.471
REMARK  3 active torsions:
REMARK  status: ('A' for Active; 'I' for Inactive)
REMARK    1  A    between atoms: N_1  and  C_2 
REMARK    2  A    between atoms: C_5  and  C_13 
REMARK    3  A    between atoms: O_9  and  C_13 
ROOT
HETATM    1  C   UNL     1      63.342   9.085   4.736  1.00  0.00     0.030 A 
HETATM    2  C   UNL     1      62.929   8.771   3.433  1.00  0.00     0.038 A 
HETATM    3  C   UNL     1      62.174   9.670   2.654  1.00  0.00    -0.033 A 
HETATM    4  C   UNL     1      62.990  10.351   5.228  1.00  0.00     0.029 A 
HETATM    5  C   UNL     1      62.257  11.263   4.465  1.00  0.00     0.003 A 
HETATM    6  C   UNL     1      61.846  10.922   3.183  1.00  0.00     0.009 A 
ENDROOT
BRANCH   1   7
HETATM    7  N   UNL     1      64.076   8.221   5.524  1.00  0.00    -0.377 N 
HETATM    8  C   UNL     1      65.535   8.081   5.427  1.00  0.00     0.149 C 
HETATM    9  C   UNL     1      65.926   6.689   4.909  1.00  0.00     0.187 C 
HETATM   10  O   UNL     1      65.307   5.642   5.675  1.00  0.00    -0.388 OA
HETATM   11  C   UNL     1      63.877   5.761   5.606  1.00  0.00     0.187 C 
HETATM   12  C   UNL     1      63.392   7.099   6.188  1.00  0.00     0.149 C 
ENDBRANCH   1   7
BRANCH   3  13
HETATM   13  C   UNL     1      61.707   9.278   1.278  1.00  0.00     0.203 C 
BRANCH  13  14
HETATM   14  O   UNL     1      60.336   8.904   1.297  1.00  0.00    -0.396 OA
HETATM   15  H   UNL     1      60.101   8.497   0.449  1.00  0.00     0.209 HD
ENDBRANCH  13  14
ENDBRANCH   3  13
TORSDOF 3
ENDMDL
MODEL 5
REMARK VINA RESULT:      -4.9      2.905      3.676
REMARK  3 active torsions:
REMARK  status: ('A' for Active; 'I' for Inactive)
REMARK    1  A    between atoms: N_1  and  C_2 
REMARK    2  A    between atoms: C_5  and  C_13 
REMARK    3  A    between atoms: O_9  and  C_13 
ROOT
HETATM    1  C   UNL     1      62.363   8.788   3.265  1.00  0.00     0.030 A 
HETATM    2  C   UNL     1      62.668   9.388   4.495  1.00  0.00     0.038 A 
HETATM    3  C   UNL     1      62.528  10.775   4.701  1.00  0.00    -0.033 A 
HETATM    4  C   UNL     1      61.888   9.628   2.246  1.00  0.00     0.029 A 
HETATM    5  C   UNL     1      61.727  11.002   2.436  1.00  0.00     0.003 A 
HETATM    6  C   UNL     1      62.051  11.575   3.659  1.00  0.00     0.009 A 
ENDROOT
BRANCH   1   7
HETATM    7  N   UNL     1      62.497   7.434   3.031  1.00  0.00    -0.377 N 
HETATM    8  C   UNL     1      63.443   6.578   3.761  1.00  0.00     0.149 C 
HETATM    9  C   UNL     1      64.546   6.050   2.832  1.00  0.00     0.187 C 
HETATM   10  O   UNL     1      64.000   5.419   1.662  1.00  0.00    -0.388 OA
HETATM   11  C   UNL     1      63.202   6.357   0.923  1.00  0.00     0.187 C 
HETATM   12  C   UNL     1      62.017   6.874   1.757  1.00  0.00     0.149 C 
ENDBRANCH   1   7
BRANCH   3  13
HETATM   13  C   UNL     1      62.912  11.390   6.021  1.00  0.00     0.203 C 
BRANCH  13  14
HETATM   14  O   UNL     1      64.321  11.361   6.202  1.00  0.00    -0.396 OA
HETATM   15  H   UNL     1      64.635  12.249   6.433  1.00  0.00     0.209 HD
ENDBRANCH  13  14
ENDBRANCH   3  13
TORSDOF 3
ENDMDL
MODEL 6
REMARK VINA RESULT:      -4.9      2.094      2.707
REMARK  3 active torsions:
REMARK  status: ('A' for Active; 'I' for Inactive)
REMARK    1  A    between atoms: N_1  and  C_2 
REMARK    2  A    between atoms: C_5  and  C_13 
REMARK    3  A    between atoms: O_9  and  C_13 
ROOT
HETATM    1  C   UNL     1      62.914   8.366   3.927  1.00  0.00     0.030 A 
HETATM    2  C   UNL     1      63.157   9.166   5.053  1.00  0.00     0.038 A 
HETATM    3  C   UNL     1      62.811  10.532   5.084  1.00  0.00    -0.033 A 
HETATM    4  C   UNL     1      62.287   8.980   2.832  1.00  0.00     0.029 A 
HETATM    5  C   UNL     1      61.921  10.327   2.850  1.00  0.00     0.003 A 
HETATM    6  C   UNL     1      62.187  11.103   3.971  1.00  0.00     0.009 A 
ENDROOT
BRANCH   1   7
HETATM    7  N   UNL     1      63.249   7.028   3.865  1.00  0.00    -0.377 N 
HETATM    8  C   UNL     1      62.254   5.946   3.866  1.00  0.00     0.149 C 
HETATM    9  C   UNL     1      62.351   5.104   5.147  1.00  0.00     0.187 C 
HETATM   10  O   UNL     1      63.691   4.640   5.380  1.00  0.00    -0.388 OA
HETATM   11  C   UNL     1      64.583   5.758   5.510  1.00  0.00     0.187 C 
HETATM   12  C   UNL     1      64.613   6.611   4.231  1.00  0.00     0.149 C 
ENDBRANCH   1   7
BRANCH   3  13
HETATM   13  C   UNL     1      63.131  11.370   6.292  1.00  0.00     0.203 C 
BRANCH  13  14
HETATM   14  O   UNL     1      64.536  11.507   6.455  1.00  0.00    -0.396 OA
HETATM   15  H   UNL     1      64.725  12.294   6.987  1.00  0.00     0.209 HD
ENDBRANCH  13  14
ENDBRANCH   3  13
TORSDOF 3
ENDMDL
MODEL 7
REMARK VINA RESULT:      -4.8      2.262      2.924
REMARK  3 active torsions:
REMARK  status: ('A' for Active; 'I' for Inactive)
REMARK    1  A    between atoms: N_1  and  C_2 
REMARK    2  A    between atoms: C_5  and  C_13 
REMARK    3  A    between atoms: O_9  and  C_13 
ROOT
HETATM    1  C   UNL     1      63.730   8.556   4.375  1.00  0.00     0.030 A 
HETATM    2  C   UNL     1      63.082   8.447   3.136  1.00  0.00     0.038 A 
HETATM    3  C   UNL     1      62.156   9.413   2.693  1.00  0.00    -0.033 A 
HETATM    4  C   UNL     1      63.434   9.686   5.152  1.00  0.00     0.029 A 
HETATM    5  C   UNL     1      62.532  10.662   4.723  1.00  0.00     0.003 A 
HETATM    6  C   UNL     1      61.891  10.524   3.498  1.00  0.00     0.009 A 
ENDROOT
BRANCH   1   7
HETATM    7  N   UNL     1      64.635   7.622   4.838  1.00  0.00    -0.377 N 
HETATM    8  C   UNL     1      64.250   6.456   5.646  1.00  0.00     0.149 C 
HETATM    9  C   UNL     1      64.817   6.555   7.069  1.00  0.00     0.187 C 
HETATM   10  O   UNL     1      66.233   6.795   7.063  1.00  0.00    -0.388 OA
HETATM   11  C   UNL     1      66.521   8.026   6.379  1.00  0.00     0.187 C 
HETATM   12  C   UNL     1      66.061   7.980   4.913  1.00  0.00     0.149 C 
ENDBRANCH   1   7
BRANCH   3  13
HETATM   13  C   UNL     1      61.444   9.237   1.379  1.00  0.00     0.203 C 
BRANCH  13  14
HETATM   14  O   UNL     1      60.137   8.715   1.577  1.00  0.00    -0.396 OA
HETATM   15  H   UNL     1      59.488   9.301   1.159  1.00  0.00     0.209 HD
ENDBRANCH  13  14
ENDBRANCH   3  13
TORSDOF 3
ENDMDL
MODEL 8
REMARK VINA RESULT:      -4.8      2.101      2.778
REMARK  3 active torsions:
REMARK  status: ('A' for Active; 'I' for Inactive)
REMARK    1  A    between atoms: N_1  and  C_2 
REMARK    2  A    between atoms: C_5  and  C_13 
REMARK    3  A    between atoms: O_9  and  C_13 
ROOT
HETATM    1  C   UNL     1      63.306   8.232   4.345  1.00  0.00     0.030 A 
HETATM    2  C   UNL     1      62.800   9.536   4.255  1.00  0.00     0.038 A 
HETATM    3  C   UNL     1      62.226  10.032   3.066  1.00  0.00    -0.033 A 
HETATM    4  C   UNL     1      63.196   7.425   3.202  1.00  0.00     0.029 A 
HETATM    5  C   UNL     1      62.616   7.892   2.020  1.00  0.00     0.003 A 
HETATM    6  C   UNL     1      62.137   9.194   1.951  1.00  0.00     0.009 A 
ENDROOT
BRANCH   1   7
HETATM    7  N   UNL     1      63.880   7.722   5.492  1.00  0.00    -0.377 N 
HETATM    8  C   UNL     1      65.325   7.754   5.755  1.00  0.00     0.149 C 
HETATM    9  C   UNL     1      65.918   6.337   5.770  1.00  0.00     0.187 C 
HETATM   10  O   UNL     1      65.200   5.469   6.663  1.00  0.00    -0.388 OA
HETATM   11  C   UNL     1      63.825   5.375   6.259  1.00  0.00     0.187 C 
HETATM   12  C   UNL     1      63.128   6.745   6.298  1.00  0.00     0.149 C 
ENDBRANCH   1   7
BRANCH   3  13
HETATM   13  C   UNL     1      61.738  11.453   2.993  1.00  0.00     0.203 C 
BRANCH  13  14
HETATM   14  O   UNL     1      62.119  12.056   1.763  1.00  0.00    -0.396 OA
HETATM   15  H   UNL     1      62.999  11.741   1.509  1.00  0.00     0.209 HD
ENDBRANCH  13  14
ENDBRANCH   3  13
TORSDOF 3
ENDMDL
MODEL 9
REMARK VINA RESULT:      -4.5      3.388      5.571
REMARK  3 active torsions:
REMARK  status: ('A' for Active; 'I' for Inactive)
REMARK    1  A    between atoms: N_1  and  C_2 
REMARK    2  A    between atoms: C_5  and  C_13 
REMARK    3  A    between atoms: O_9  and  C_13 
ROOT
HETATM    1  C   UNL     1      62.362   8.544   2.870  1.00  0.00     0.030 A 
HETATM    2  C   UNL     1      63.427   8.036   3.626  1.00  0.00     0.038 A 
HETATM    3  C   UNL     1      63.949   8.730   4.737  1.00  0.00    -0.033 A 
HETATM    4  C   UNL     1      61.816   9.770   3.280  1.00  0.00     0.029 A 
HETATM    5  C   UNL     1      62.308  10.464   4.387  1.00  0.00     0.003 A 
HETATM    6  C   UNL     1      63.375   9.948   5.112  1.00  0.00     0.009 A 
ENDROOT
BRANCH   1   7
HETATM    7  N   UNL     1      61.836   7.891   1.773  1.00  0.00    -0.377 N 
HETATM    8  C   UNL     1      61.066   8.571   0.721  1.00  0.00     0.149 C 
HETATM    9  C   UNL     1      59.602   8.104   0.716  1.00  0.00     0.187 C 
HETATM   10  O   UNL     1      59.500   6.672   0.656  1.00  0.00    -0.388 OA
HETATM   11  C   UNL     1      60.154   6.084   1.792  1.00  0.00     0.187 C 
HETATM   12  C   UNL     1      61.651   6.432   1.827  1.00  0.00     0.149 C 
ENDBRANCH   1   7
BRANCH   3  13
HETATM   13  C   UNL     1      65.125   8.176   5.496  1.00  0.00     0.203 C 
BRANCH  13  14
HETATM   14  O   UNL     1      65.770   9.197   6.245  1.00  0.00    -0.396 OA
HETATM   15  H   UNL     1      65.724  10.034   5.757  1.00  0.00     0.209 HD
ENDBRANCH  13  14
ENDBRANCH   3  13
TORSDOF 3
ENDMDL
