MODEL 1
REMARK VINA RESULT:      -5.1      0.000      0.000
REMARK  5 active torsions:
REMARK  status: ('A' for Active; 'I' for Inactive)
REMARK    1  A    between atoms: N_1  and  C_2 
REMARK    2  A    between atoms: N_7  and  C_11 
REMARK    3  A    between atoms: N_7  and  C_12 
REMARK    4  A    between atoms: C_8  and  C_11 
REMARK    5  A    between atoms: C_12  and  C_13 
ROOT
HETATM    1  C   UNL     1      64.121   7.930   3.965  1.00  0.00     0.030 A 
HETATM    2  C   UNL     1      64.741   6.762   3.497  1.00  0.00     0.030 A 
HETATM    3  C   UNL     1      64.752   8.581   5.035  1.00  0.00     0.030 A 
HETATM    4  C   UNL     1      65.919   6.261   4.071  1.00  0.00     0.011 A 
HETATM    5  C   UNL     1      65.934   8.096   5.610  1.00  0.00     0.011 A 
HETATM    6  C   UNL     1      66.525   6.919   5.142  1.00  0.00    -0.033 A 
ENDROOT
BRANCH   6   7
HETATM    7  C   UNL     1      67.796   6.384   5.757  1.00  0.00     0.270 C 
BRANCH   7   8
HETATM    8  N   UNL     1      67.667   4.973   6.121  1.00  0.00    -0.071 N 
HETATM    9  H   UNL     1      68.572   4.516   6.015  1.00  0.00     0.277 HD
HETATM   10  H   UNL     1      66.973   4.542   5.508  1.00  0.00     0.277 HD
BRANCH   8  11
HETATM   11  C   UNL     1      67.217   4.826   7.505  1.00  0.00     0.232 C 
BRANCH  11  12
HETATM   12  C   UNL     1      67.920   5.819   8.435  1.00  0.00     0.023 C 
HETATM   13  C   UNL     1      66.964   6.587   9.337  1.00  0.00     0.007 C 
ENDBRANCH  11  12
ENDBRANCH   8  11
ENDBRANCH   7   8
ENDBRANCH   6   7
BRANCH   1  14
HETATM   14  N   UNL     1      62.954   8.412   3.403  1.00  0.00    -0.381 N 
HETATM   15  C   UNL     1      62.429   7.899   2.135  1.00  0.00     0.123 C 
HETATM   16  C   UNL     1      62.330   9.042   1.129  1.00  0.00     0.020 C 
HETATM   17  C   UNL     1      61.501  10.196   1.693  1.00  0.00     0.003 C 
HETATM   18  C   UNL     1      62.039  10.647   3.050  1.00  0.00     0.020 C 
HETATM   19  C   UNL     1      62.169   9.476   4.028  1.00  0.00     0.123 C 
ENDBRANCH   1  14
TORSDOF 5
ENDMDL
MODEL 2
REMARK VINA RESULT:      -5.1      1.355      6.658
REMARK  5 active torsions:
REMARK  status: ('A' for Active; 'I' for Inactive)
REMARK    1  A    between atoms: N_1  and  C_2 
REMARK    2  A    between atoms: N_7  and  C_11 
REMARK    3  A    between atoms: N_7  and  C_12 
REMARK    4  A    between atoms: C_8  and  C_11 
REMARK    5  A    between atoms: C_12  and  C_13 
ROOT
HETATM    1  C   UNL     1      65.132   7.169   4.823  1.00  0.00     0.030 A 
HETATM    2  C   UNL     1      64.976   6.644   3.532  1.00  0.00     0.030 A 
HETATM    3  C   UNL     1      64.018   7.828   5.363  1.00  0.00     0.030 A 
HETATM    4  C   UNL     1      63.781   6.779   2.811  1.00  0.00     0.011 A 
HETATM    5  C   UNL     1      62.815   7.961   4.656  1.00  0.00     0.011 A 
HETATM    6  C   UNL     1      62.687   7.448   3.362  1.00  0.00    -0.033 A 
ENDROOT
BRANCH   6   7
HETATM    7  C   UNL     1      61.398   7.590   2.589  1.00  0.00     0.270 C 
BRANCH   7   8
HETATM    8  N   UNL     1      60.954   8.983   2.530  1.00  0.00    -0.071 N 
HETATM    9  H   UNL     1      61.007   9.390   3.463  1.00  0.00     0.277 HD
HETATM   10  H   UNL     1      59.994   9.003   2.184  1.00  0.00     0.277 HD
BRANCH   8  11
HETATM   11  C   UNL     1      61.791   9.762   1.619  1.00  0.00     0.232 C 
BRANCH  11  12
HETATM   12  C   UNL     1      61.840  11.239   2.021  1.00  0.00     0.023 C 
HETATM   13  C   UNL     1      61.914  11.457   3.526  1.00  0.00     0.007 C 
ENDBRANCH  11  12
ENDBRANCH   8  11
ENDBRANCH   7   8
ENDBRANCH   6   7
BRANCH   1  14
HETATM   14  N   UNL     1      66.316   7.043   5.524  1.00  0.00    -0.381 N 
HETATM   15  C   UNL     1      67.359   6.094   5.129  1.00  0.00     0.123 C 
HETATM   16  C   UNL     1      67.618   5.119   6.274  1.00  0.00     0.020 C 
HETATM   17  C   UNL     1      67.953   5.868   7.564  1.00  0.00     0.003 C 
HETATM   18  C   UNL     1      66.876   6.900   7.896  1.00  0.00     0.020 C 
HETATM   19  C   UNL     1      66.605   7.839   6.718  1.00  0.00     0.123 C 
ENDBRANCH   1  14
TORSDOF 5
ENDMDL
MODEL 3
REMARK VINA RESULT:      -4.9      1.553      6.901
REMARK  5 active torsions:
REMARK  status: ('A' for Active; 'I' for Inactive)
REMARK    1  A    between atoms: N_1  and  C_2 
REMARK    2  A    between atoms: N_7  and  C_11 
REMARK    3  A    between atoms: N_7  and  C_12 
REMARK    4  A    between atoms: C_8  and  C_11 
REMARK    5  A    between atoms: C_12  and  C_13 
ROOT
HETATM    1  C   UNL     1      64.650   6.975   6.122  1.00  0.00     0.030 A 
HETATM    2  C   UNL     1      63.257   6.845   6.020  1.00  0.00     0.030 A 
HETATM    3  C   UNL     1      65.201   8.156   5.606  1.00  0.00     0.030 A 
HETATM    4  C   UNL     1      62.457   7.830   5.422  1.00  0.00     0.011 A 
HETATM    5  C   UNL     1      64.412   9.152   5.016  1.00  0.00     0.011 A 
HETATM    6  C   UNL     1      63.028   8.994   4.905  1.00  0.00    -0.033 A 
ENDROOT
BRANCH   6   7
HETATM    7  C   UNL     1      62.167  10.058   4.266  1.00  0.00     0.270 C 
BRANCH   7   8
HETATM    8  N   UNL     1      61.377   9.521   3.159  1.00  0.00    -0.071 N 
HETATM    9  H   UNL     1      60.390   9.708   3.331  1.00  0.00     0.277 HD
HETATM   10  H   UNL     1      61.546   8.516   3.098  1.00  0.00     0.277 HD
BRANCH   8  11
HETATM   11  C   UNL     1      61.766  10.134   1.890  1.00  0.00     0.232 C 
BRANCH  11  12
HETATM   12  C   UNL     1      62.226   9.086   0.873  1.00  0.00     0.023 C 
HETATM   13  C   UNL     1      62.415   7.700   1.472  1.00  0.00     0.007 C 
ENDBRANCH  11  12
ENDBRANCH   8  11
ENDBRANCH   7   8
ENDBRANCH   6   7
BRANCH   1  14
HETATM   14  N   UNL     1      65.433   5.995   6.701  1.00  0.00    -0.381 N 
HETATM   15  C   UNL     1      66.116   6.198   7.982  1.00  0.00     0.123 C 
HETATM   16  C   UNL     1      67.620   6.027   7.786  1.00  0.00     0.020 C 
HETATM   17  C   UNL     1      67.938   4.674   7.149  1.00  0.00     0.003 C 
HETATM   18  C   UNL     1      67.147   4.475   5.858  1.00  0.00     0.020 C 
HETATM   19  C   UNL     1      65.646   4.692   6.071  1.00  0.00     0.123 C 
ENDBRANCH   1  14
TORSDOF 5
ENDMDL
MODEL 4
REMARK VINA RESULT:      -4.8      2.042      6.385
REMARK  5 active torsions:
REMARK  status: ('A' for Active; 'I' for Inactive)
REMARK    1  A    between atoms: N_1  and  C_2 
REMARK    2  A    between atoms: N_7  and  C_11 
REMARK    3  A    between atoms: N_7  and  C_12 
REMARK    4  A    between atoms: C_8  and  C_11 
REMARK    5  A    between atoms: C_12  and  C_13 
ROOT
HETATM    1  C   UNL     1      65.172   7.695   4.717  1.00  0.00     0.030 A 
HETATM    2  C   UNL     1      64.379   8.804   5.046  1.00  0.00     0.030 A 
HETATM    3  C   UNL     1      64.725   6.910   3.644  1.00  0.00     0.030 A 
HETATM    4  C   UNL     1      63.197   9.107   4.355  1.00  0.00     0.011 A 
HETATM    5  C   UNL     1      63.552   7.208   2.939  1.00  0.00     0.011 A 
HETATM    6  C   UNL     1      62.765   8.306   3.296  1.00  0.00    -0.033 A 
ENDROOT
BRANCH   6   7
HETATM    7  C   UNL     1      61.495   8.635   2.547  1.00  0.00     0.270 C 
BRANCH   7   8
HETATM    8  N   UNL     1      60.311   8.457   3.388  1.00  0.00    -0.071 N 
HETATM    9  H   UNL     1      59.563   9.057   3.042  1.00  0.00     0.277 HD
HETATM   10  H   UNL     1      60.555   8.705   4.348  1.00  0.00     0.277 HD
BRANCH   8  11
HETATM   11  C   UNL     1      59.857   7.067   3.369  1.00  0.00     0.232 C 
BRANCH  11  12
HETATM   12  C   UNL     1      59.677   6.512   4.784  1.00  0.00     0.023 C 
HETATM   13  C   UNL     1      60.957   5.945   5.382  1.00  0.00     0.007 C 
ENDBRANCH  11  12
ENDBRANCH   8  11
ENDBRANCH   7   8
ENDBRANCH   6   7
BRANCH   1  14
HETATM   14  N   UNL     1      66.329   7.394   5.410  1.00  0.00    -0.381 N 
HETATM   15  C   UNL     1      67.306   6.421   4.913  1.00  0.00     0.123 C 
HETATM   16  C   UNL     1      67.467   5.299   5.935  1.00  0.00     0.020 C 
HETATM   17  C   UNL     1      67.833   5.861   7.309  1.00  0.00     0.003 C 
HETATM   18  C   UNL     1      66.831   6.926   7.752  1.00  0.00     0.020 C 
HETATM   19  C   UNL     1      66.654   8.017   6.693  1.00  0.00     0.123 C 
ENDBRANCH   1  14
TORSDOF 5
ENDMDL
MODEL 5
REMARK VINA RESULT:      -4.7      1.576      2.029
REMARK  5 active torsions:
REMARK  status: ('A' for Active; 'I' for Inactive)
REMARK    1  A    between atoms: N_1  and  C_2 
REMARK    2  A    between atoms: N_7  and  C_11 
REMARK    3  A    between atoms: N_7  and  C_12 
REMARK    4  A    between atoms: C_8  and  C_11 
REMARK    5  A    between atoms: C_12  and  C_13 
ROOT
HETATM    1  C   UNL     1      63.074   8.311   3.660  1.00  0.00     0.030 A 
HETATM    2  C   UNL     1      63.883   7.197   3.388  1.00  0.00     0.030 A 
HETATM    3  C   UNL     1      63.516   9.161   4.684  1.00  0.00     0.030 A 
HETATM    4  C   UNL     1      65.059   6.935   4.106  1.00  0.00     0.011 A 
HETATM    5  C   UNL     1      64.695   8.916   5.402  1.00  0.00     0.011 A 
HETATM    6  C   UNL     1      65.475   7.789   5.128  1.00  0.00    -0.033 A 
ENDROOT
BRANCH   6   7
HETATM    7  C   UNL     1      66.744   7.512   5.898  1.00  0.00     0.270 C 
BRANCH   7   8
HETATM    8  N   UNL     1      66.560   7.716   7.335  1.00  0.00    -0.071 N 
HETATM    9  H   UNL     1      65.937   8.510   7.482  1.00  0.00     0.277 HD
HETATM   10  H   UNL     1      67.473   7.893   7.757  1.00  0.00     0.277 HD
BRANCH   8  11
HETATM   11  C   UNL     1      65.981   6.531   7.964  1.00  0.00     0.232 C 
BRANCH  11  12
HETATM   12  C   UNL     1      67.021   5.423   8.148  1.00  0.00     0.023 C 
HETATM   13  C   UNL     1      68.075   5.748   9.197  1.00  0.00     0.007 C 
ENDBRANCH  11  12
ENDBRANCH   8  11
ENDBRANCH   7   8
ENDBRANCH   6   7
BRANCH   1  14
HETATM   14  N   UNL     1      61.910   8.557   2.958  1.00  0.00    -0.381 N 
HETATM   15  C   UNL     1      60.621   7.988   3.361  1.00  0.00     0.123 C 
HETATM   16  C   UNL     1      60.068   7.133   2.224  1.00  0.00     0.020 C 
HETATM   17  C   UNL     1      59.985   7.937   0.926  1.00  0.00     0.003 C 
HETATM   18  C   UNL     1      61.331   8.574   0.587  1.00  0.00     0.020 C 
HETATM   19  C   UNL     1      61.885   9.391   1.757  1.00  0.00     0.123 C 
ENDBRANCH   1  14
TORSDOF 5
ENDMDL
MODEL 6
REMARK VINA RESULT:      -4.4      2.077      7.029
REMARK  5 active torsions:
REMARK  status: ('A' for Active; 'I' for Inactive)
REMARK    1  A    between atoms: N_1  and  C_2 
REMARK    2  A    between atoms: N_7  and  C_11 
REMARK    3  A    between atoms: N_7  and  C_12 
REMARK    4  A    between atoms: C_8  and  C_11 
REMARK    5  A    between atoms: C_12  and  C_13 
ROOT
HETATM    1  C   UNL     1      64.343   7.888   4.926  1.00  0.00     0.030 A 
HETATM    2  C   UNL     1      64.113   7.137   3.764  1.00  0.00     0.030 A 
HETATM    3  C   UNL     1      63.598   9.069   5.059  1.00  0.00     0.030 A 
HETATM    4  C   UNL     1      63.202   7.547   2.779  1.00  0.00     0.011 A 
HETATM    5  C   UNL     1      62.677   9.483   4.087  1.00  0.00     0.011 A 
HETATM    6  C   UNL     1      62.478   8.731   2.926  1.00  0.00    -0.033 A 
ENDROOT
BRANCH   6   7
HETATM    7  C   UNL     1      61.492   9.170   1.870  1.00  0.00     0.270 C 
BRANCH   7   8
HETATM    8  N   UNL     1      61.735   8.499   0.592  1.00  0.00    -0.071 N 
HETATM    9  H   UNL     1      62.555   7.900   0.681  1.00  0.00     0.277 HD
HETATM   10  H   UNL     1      61.887   9.211  -0.124  1.00  0.00     0.277 HD
BRANCH   8  11
HETATM   11  C   UNL     1      60.587   7.684   0.200  1.00  0.00     0.232 C 
BRANCH  11  12
HETATM   12  C   UNL     1      59.338   8.040   1.011  1.00  0.00     0.023 C 
HETATM   13  C   UNL     1      58.279   6.946   1.007  1.00  0.00     0.007 C 
ENDBRANCH  11  12
ENDBRANCH   8  11
ENDBRANCH   7   8
ENDBRANCH   6   7
BRANCH   1  14
HETATM   14  N   UNL     1      65.251   7.486   5.887  1.00  0.00    -0.381 N 
HETATM   15  C   UNL     1      66.575   8.100   6.014  1.00  0.00     0.123 C 
HETATM   16  C   UNL     1      67.649   7.030   5.834  1.00  0.00     0.020 C 
HETATM   17  C   UNL     1      67.434   5.871   6.808  1.00  0.00     0.003 C 
HETATM   18  C   UNL     1      66.016   5.313   6.693  1.00  0.00     0.020 C 
HETATM   19  C   UNL     1      64.959   6.411   6.835  1.00  0.00     0.123 C 
ENDBRANCH   1  14
TORSDOF 5
ENDMDL
MODEL 7
REMARK VINA RESULT:      -4.2      3.379      4.330
REMARK  5 active torsions:
REMARK  status: ('A' for Active; 'I' for Inactive)
REMARK    1  A    between atoms: N_1  and  C_2 
REMARK    2  A    between atoms: N_7  and  C_11 
REMARK    3  A    between atoms: N_7  and  C_12 
REMARK    4  A    between atoms: C_8  and  C_11 
REMARK    5  A    between atoms: C_12  and  C_13 
ROOT
HETATM    1  C   UNL     1      61.095   7.074   4.725  1.00  0.00     0.030 A 
HETATM    2  C   UNL     1      61.907   6.717   5.812  1.00  0.00     0.030 A 
HETATM    3  C   UNL     1      61.676   7.920   3.770  1.00  0.00     0.030 A 
HETATM    4  C   UNL     1      63.221   7.189   5.949  1.00  0.00     0.011 A 
HETATM    5  C   UNL     1      62.991   8.390   3.890  1.00  0.00     0.011 A 
HETATM    6  C   UNL     1      63.776   8.039   4.991  1.00  0.00    -0.033 A 
ENDROOT
BRANCH   6   7
HETATM    7  C   UNL     1      65.192   8.543   5.134  1.00  0.00     0.270 C 
BRANCH   7   8
HETATM    8  N   UNL     1      65.756   8.205   6.441  1.00  0.00    -0.071 N 
HETATM    9  H   UNL     1      65.107   7.596   6.937  1.00  0.00     0.277 HD
HETATM   10  H   UNL     1      65.907   9.069   6.963  1.00  0.00     0.277 HD
BRANCH   8  11
HETATM   11  C   UNL     1      67.040   7.520   6.298  1.00  0.00     0.232 C 
BRANCH  11  12
HETATM   12  C   UNL     1      67.288   7.080   4.853  1.00  0.00     0.023 C 
HETATM   13  C   UNL     1      67.293   5.569   4.671  1.00  0.00     0.007 C 
ENDBRANCH  11  12
ENDBRANCH   8  11
ENDBRANCH   7   8
ENDBRANCH   6   7
BRANCH   1  14
HETATM   14  N   UNL     1      59.798   6.616   4.602  1.00  0.00    -0.381 N 
HETATM   15  C   UNL     1      58.895   7.101   3.555  1.00  0.00     0.123 C 
HETATM   16  C   UNL     1      57.662   7.729   4.200  1.00  0.00     0.020 C 
HETATM   17  C   UNL     1      56.988   6.748   5.160  1.00  0.00     0.003 C 
HETATM   18  C   UNL     1      57.985   6.210   6.186  1.00  0.00     0.020 C 
HETATM   19  C   UNL     1      59.231   5.624   5.516  1.00  0.00     0.123 C 
ENDBRANCH   1  14
TORSDOF 5
ENDMDL
MODEL 8
REMARK VINA RESULT:      -4.2      4.728      6.371
REMARK  5 active torsions:
REMARK  status: ('A' for Active; 'I' for Inactive)
REMARK    1  A    between atoms: N_1  and  C_2 
REMARK    2  A    between atoms: N_7  and  C_11 
REMARK    3  A    between atoms: N_7  and  C_12 
REMARK    4  A    between atoms: C_8  and  C_11 
REMARK    5  A    between atoms: C_12  and  C_13 
ROOT
HETATM    1  C   UNL     1      59.508   6.149   6.008  1.00  0.00     0.030 A 
HETATM    2  C   UNL     1      59.708   6.483   4.660  1.00  0.00     0.030 A 
HETATM    3  C   UNL     1      60.661   6.046   6.799  1.00  0.00     0.030 A 
HETATM    4  C   UNL     1      60.989   6.687   4.125  1.00  0.00     0.011 A 
HETATM    5  C   UNL     1      61.944   6.257   6.278  1.00  0.00     0.011 A 
HETATM    6  C   UNL     1      62.124   6.569   4.928  1.00  0.00    -0.033 A 
ENDROOT
BRANCH   6   7
HETATM    7  C   UNL     1      63.503   6.794   4.354  1.00  0.00     0.270 C 
BRANCH   7   8
HETATM    8  N   UNL     1      63.686   8.179   3.919  1.00  0.00    -0.071 N 
HETATM    9  H   UNL     1      62.845   8.492   3.437  1.00  0.00     0.277 HD
HETATM   10  H   UNL     1      64.493   8.219   3.295  1.00  0.00     0.277 HD
BRANCH   8  11
HETATM   11  C   UNL     1      63.939   9.058   5.060  1.00  0.00     0.232 C 
BRANCH  11  12
HETATM   12  C   UNL     1      62.938  10.215   5.114  1.00  0.00     0.023 C 
HETATM   13  C   UNL     1      62.033  10.293   3.893  1.00  0.00     0.007 C 
ENDBRANCH  11  12
ENDBRANCH   8  11
ENDBRANCH   7   8
ENDBRANCH   6   7
BRANCH   1  14
HETATM   14  N   UNL     1      58.245   5.937   6.527  1.00  0.00    -0.381 N 
HETATM   15  C   UNL     1      57.173   5.319   5.742  1.00  0.00     0.123 C 
HETATM   16  C   UNL     1      55.995   6.284   5.645  1.00  0.00     0.020 C 
HETATM   17  C   UNL     1      55.536   6.728   7.034  1.00  0.00     0.003 C 
HETATM   18  C   UNL     1      56.701   7.295   7.843  1.00  0.00     0.020 C 
HETATM   19  C   UNL     1      57.886   6.326   7.891  1.00  0.00     0.123 C 
ENDBRANCH   1  14
TORSDOF 5
ENDMDL
MODEL 9
REMARK VINA RESULT:      -4.1      2.234      7.032
REMARK  5 active torsions:
REMARK  status: ('A' for Active; 'I' for Inactive)
REMARK    1  A    between atoms: N_1  and  C_2 
REMARK    2  A    between atoms: N_7  and  C_11 
REMARK    3  A    between atoms: N_7  and  C_12 
REMARK    4  A    between atoms: C_8  and  C_11 
REMARK    5  A    between atoms: C_12  and  C_13 
ROOT
HETATM    1  C   UNL     1      63.855   6.399   5.642  1.00  0.00     0.030 A 
HETATM    2  C   UNL     1      63.844   7.293   4.561  1.00  0.00     0.030 A 
HETATM    3  C   UNL     1      62.604   5.939   6.077  1.00  0.00     0.030 A 
HETATM    4  C   UNL     1      62.653   7.720   3.957  1.00  0.00     0.011 A 
HETATM    5  C   UNL     1      61.407   6.350   5.475  1.00  0.00     0.011 A 
HETATM    6  C   UNL     1      61.418   7.258   4.413  1.00  0.00    -0.033 A 
ENDROOT
BRANCH   6   7
HETATM    7  C   UNL     1      60.134   7.711   3.759  1.00  0.00     0.270 C 
BRANCH   7   8
HETATM    8  N   UNL     1      60.392   8.519   2.566  1.00  0.00    -0.071 N 
HETATM    9  H   UNL     1      61.379   8.769   2.540  1.00  0.00     0.277 HD
HETATM   10  H   UNL     1      59.810   9.357   2.610  1.00  0.00     0.277 HD
BRANCH   8  11
HETATM   11  C   UNL     1      60.053   7.782   1.350  1.00  0.00     0.232 C 
BRANCH  11  12
HETATM   12  C   UNL     1      61.183   7.844   0.319  1.00  0.00     0.023 C 
HETATM   13  C   UNL     1      62.226   8.909   0.624  1.00  0.00     0.007 C 
ENDBRANCH  11  12
ENDBRANCH   8  11
ENDBRANCH   7   8
ENDBRANCH   6   7
BRANCH   1  14
HETATM   14  N   UNL     1      65.031   5.992   6.241  1.00  0.00    -0.381 N 
HETATM   15  C   UNL     1      65.487   6.544   7.519  1.00  0.00     0.123 C 
HETATM   16  C   UNL     1      66.855   7.194   7.332  1.00  0.00     0.020 C 
HETATM   17  C   UNL     1      67.850   6.207   6.721  1.00  0.00     0.003 C 
HETATM   18  C   UNL     1      67.300   5.600   5.431  1.00  0.00     0.020 C 
HETATM   19  C   UNL     1      65.911   4.992   5.635  1.00  0.00     0.123 C 
ENDBRANCH   1  14
TORSDOF 5
ENDMDL
