MODEL 1
REMARK VINA RESULT:      -4.8      0.000      0.000
REMARK  2 active torsions:
REMARK  status: ('A' for Active; 'I' for Inactive)
REMARK    1  A    between atoms: N_1  and  C_2 
REMARK    2  A    between atoms: C_5  and  N_6 
ROOT
HETATM    1  C   UNL     1      62.901   8.728   3.808  1.00  0.00     0.032 A 
HETATM    2  C   UNL     1      62.439  10.028   3.546  1.00  0.00     0.058 A 
HETATM    3  C   UNL     1      61.974  10.422   2.283  1.00  0.00     0.027 A 
HETATM    4  C   UNL     1      62.844   7.812   2.749  1.00  0.00     0.029 A 
HETATM    5  C   UNL     1      62.331   8.167   1.498  1.00  0.00     0.004 A 
HETATM    6  C   UNL     1      61.875   9.463   1.279  1.00  0.00     0.029 A 
ENDROOT
BRANCH   1   7
HETATM    7  N   UNL     1      63.398   8.358   5.042  1.00  0.00    -0.377 N 
HETATM    8  C   UNL     1      62.640   7.543   6.001  1.00  0.00     0.149 C 
HETATM    9  C   UNL     1      63.384   6.230   6.283  1.00  0.00     0.187 C 
HETATM   10  O   UNL     1      64.727   6.477   6.733  1.00  0.00    -0.388 OA
HETATM   11  C   UNL     1      65.463   7.192   5.725  1.00  0.00     0.187 C 
HETATM   12  C   UNL     1      64.815   8.548   5.393  1.00  0.00     0.149 C 
ENDBRANCH   1   7
BRANCH   3  13
HETATM   13  N   UNL     1      61.400  11.689   2.107  1.00  0.00    -0.399 N 
HETATM   14  H   UNL     1      61.253  12.042   1.199  1.00  0.00     0.156 HD
HETATM   15  H   UNL     1      61.143  12.227   2.891  1.00  0.00     0.156 HD
ENDBRANCH   3  13
TORSDOF 2
ENDMDL
MODEL 2
REMARK VINA RESULT:      -4.8      1.126      1.783
REMARK  2 active torsions:
REMARK  status: ('A' for Active; 'I' for Inactive)
REMARK    1  A    between atoms: N_1  and  C_2 
REMARK    2  A    between atoms: C_5  and  N_6 
ROOT
HETATM    1  C   UNL     1      62.899   9.206   4.161  1.00  0.00     0.032 A 
HETATM    2  C   UNL     1      62.781   8.655   2.875  1.00  0.00     0.058 A 
HETATM    3  C   UNL     1      62.181   9.345   1.812  1.00  0.00     0.027 A 
HETATM    4  C   UNL     1      62.417  10.509   4.336  1.00  0.00     0.029 A 
HETATM    5  C   UNL     1      61.867  11.237   3.278  1.00  0.00     0.004 A 
HETATM    6  C   UNL     1      61.776  10.660   2.015  1.00  0.00     0.029 A 
ENDROOT
BRANCH   1   7
HETATM    7  N   UNL     1      63.453   8.505   5.214  1.00  0.00    -0.377 N 
HETATM    8  C   UNL     1      62.665   7.652   6.114  1.00  0.00     0.149 C 
HETATM    9  C   UNL     1      63.157   6.201   6.033  1.00  0.00     0.187 C 
HETATM   10  O   UNL     1      64.566   6.111   6.306  1.00  0.00    -0.388 OA
HETATM   11  C   UNL     1      65.307   6.882   5.345  1.00  0.00     0.187 C 
HETATM   12  C   UNL     1      64.911   8.369   5.371  1.00  0.00     0.149 C 
ENDBRANCH   1   7
BRANCH   3  13
HETATM   13  N   UNL     1      62.209   8.807   0.518  1.00  0.00    -0.399 N 
HETATM   14  H   UNL     1      63.071   8.614   0.082  1.00  0.00     0.156 HD
HETATM   15  H   UNL     1      61.366   8.622   0.043  1.00  0.00     0.156 HD
ENDBRANCH   3  13
TORSDOF 2
ENDMDL
MODEL 3
REMARK VINA RESULT:      -4.3      1.449      2.136
REMARK  2 active torsions:
REMARK  status: ('A' for Active; 'I' for Inactive)
REMARK    1  A    between atoms: N_1  and  C_2 
REMARK    2  A    between atoms: C_5  and  N_6 
ROOT
HETATM    1  C   UNL     1      62.463   8.566   3.479  1.00  0.00     0.032 A 
HETATM    2  C   UNL     1      62.415   9.765   4.208  1.00  0.00     0.058 A 
HETATM    3  C   UNL     1      62.165  11.005   3.602  1.00  0.00     0.027 A 
HETATM    4  C   UNL     1      62.211   8.652   2.104  1.00  0.00     0.029 A 
HETATM    5  C   UNL     1      61.903   9.868   1.489  1.00  0.00     0.004 A 
HETATM    6  C   UNL     1      61.856  11.035   2.246  1.00  0.00     0.029 A 
ENDROOT
BRANCH   1   7
HETATM    7  N   UNL     1      62.751   7.353   4.074  1.00  0.00    -0.377 N 
HETATM    8  C   UNL     1      64.042   7.058   4.710  1.00  0.00     0.149 C 
HETATM    9  C   UNL     1      63.839   6.748   6.199  1.00  0.00     0.187 C 
HETATM   10  O   UNL     1      62.893   5.681   6.386  1.00  0.00    -0.388 OA
HETATM   11  C   UNL     1      61.617   6.049   5.835  1.00  0.00     0.187 C 
HETATM   12  C   UNL     1      61.705   6.348   4.327  1.00  0.00     0.149 C 
ENDBRANCH   1   7
BRANCH   3  13
HETATM   13  N   UNL     1      61.995  12.152   4.390  1.00  0.00    -0.399 N 
HETATM   14  H   UNL     1      61.166  12.680   4.319  1.00  0.00     0.156 HD
HETATM   15  H   UNL     1      62.703  12.431   5.014  1.00  0.00     0.156 HD
ENDBRANCH   3  13
TORSDOF 2
ENDMDL
MODEL 4
REMARK VINA RESULT:      -4.3      2.442      4.971
REMARK  2 active torsions:
REMARK  status: ('A' for Active; 'I' for Inactive)
REMARK    1  A    between atoms: N_1  and  C_2 
REMARK    2  A    between atoms: C_5  and  N_6 
ROOT
HETATM    1  C   UNL     1      64.652   7.662   4.445  1.00  0.00     0.032 A 
HETATM    2  C   UNL     1      65.206   8.252   5.593  1.00  0.00     0.058 A 
HETATM    3  C   UNL     1      66.484   7.923   6.067  1.00  0.00     0.027 A 
HETATM    4  C   UNL     1      65.454   6.741   3.759  1.00  0.00     0.029 A 
HETATM    5  C   UNL     1      66.752   6.441   4.180  1.00  0.00     0.004 A 
HETATM    6  C   UNL     1      67.270   7.053   5.317  1.00  0.00     0.029 A 
ENDROOT
BRANCH   1   7
HETATM    7  N   UNL     1      63.376   7.958   4.008  1.00  0.00    -0.377 N 
HETATM    8  C   UNL     1      62.519   8.964   4.651  1.00  0.00     0.149 C 
HETATM    9  C   UNL     1      62.177  10.081   3.656  1.00  0.00     0.187 C 
HETATM   10  O   UNL     1      61.576   9.550   2.462  1.00  0.00    -0.388 OA
HETATM   11  C   UNL     1      62.485   8.644   1.811  1.00  0.00     0.187 C 
HETATM   12  C   UNL     1      62.866   7.461   2.719  1.00  0.00     0.149 C 
ENDBRANCH   1   7
BRANCH   3  13
HETATM   13  N   UNL     1      67.044   8.636   7.136  1.00  0.00    -0.399 N 
HETATM   14  H   UNL     1      66.512   9.320   7.604  1.00  0.00     0.156 HD
HETATM   15  H   UNL     1      67.969   8.453   7.420  1.00  0.00     0.156 HD
ENDBRANCH   3  13
TORSDOF 2
ENDMDL
MODEL 5
REMARK VINA RESULT:      -4.2      1.821      2.858
REMARK  2 active torsions:
REMARK  status: ('A' for Active; 'I' for Inactive)
REMARK    1  A    between atoms: N_1  and  C_2 
REMARK    2  A    between atoms: C_5  and  N_6 
ROOT
HETATM    1  C   UNL     1      64.099   8.098   4.478  1.00  0.00     0.032 A 
HETATM    2  C   UNL     1      63.497   7.839   3.236  1.00  0.00     0.058 A 
HETATM    3  C   UNL     1      62.475   8.643   2.711  1.00  0.00     0.027 A 
HETATM    4  C   UNL     1      63.655   9.233   5.169  1.00  0.00     0.029 A 
HETATM    5  C   UNL     1      62.679  10.081   4.639  1.00  0.00     0.004 A 
HETATM    6  C   UNL     1      62.112   9.796   3.401  1.00  0.00     0.029 A 
ENDROOT
BRANCH   1   7
HETATM    7  N   UNL     1      65.075   7.279   5.009  1.00  0.00    -0.377 N 
HETATM    8  C   UNL     1      66.265   6.856   4.259  1.00  0.00     0.149 C 
HETATM    9  C   UNL     1      67.536   7.355   4.959  1.00  0.00     0.187 C 
HETATM   10  O   UNL     1      67.583   6.920   6.328  1.00  0.00    -0.388 OA
HETATM   11  C   UNL     1      66.452   7.434   7.051  1.00  0.00     0.187 C 
HETATM   12  C   UNL     1      65.118   6.960   6.446  1.00  0.00     0.149 C 
ENDBRANCH   1   7
BRANCH   3  13
HETATM   13  N   UNL     1      62.001   8.421   1.410  1.00  0.00    -0.399 N 
HETATM   14  H   UNL     1      62.349   8.958   0.661  1.00  0.00     0.156 HD
HETATM   15  H   UNL     1      61.321   7.729   1.245  1.00  0.00     0.156 HD
ENDBRANCH   3  13
TORSDOF 2
ENDMDL
MODEL 6
REMARK VINA RESULT:      -4.2      1.943      2.168
REMARK  2 active torsions:
REMARK  status: ('A' for Active; 'I' for Inactive)
REMARK    1  A    between atoms: N_1  and  C_2 
REMARK    2  A    between atoms: C_5  and  N_6 
ROOT
HETATM    1  C   UNL     1      61.999   8.395   3.657  1.00  0.00     0.032 A 
HETATM    2  C   UNL     1      60.830   7.643   3.462  1.00  0.00     0.058 A 
HETATM    3  C   UNL     1      60.112   7.663   2.258  1.00  0.00     0.027 A 
HETATM    4  C   UNL     1      62.450   9.154   2.569  1.00  0.00     0.029 A 
HETATM    5  C   UNL     1      61.783   9.145   1.341  1.00  0.00     0.004 A 
HETATM    6  C   UNL     1      60.632   8.380   1.184  1.00  0.00     0.029 A 
ENDROOT
BRANCH   1   7
HETATM    7  N   UNL     1      62.678   8.404   4.859  1.00  0.00    -0.377 N 
HETATM    8  C   UNL     1      62.446   7.415   5.920  1.00  0.00     0.149 C 
HETATM    9  C   UNL     1      63.733   6.628   6.200  1.00  0.00     0.187 C 
HETATM   10  O   UNL     1      64.825   7.508   6.518  1.00  0.00    -0.388 OA
HETATM   11  C   UNL     1      65.082   8.395   5.416  1.00  0.00     0.187 C 
HETATM   12  C   UNL     1      63.856   9.261   5.075  1.00  0.00     0.149 C 
ENDBRANCH   1   7
BRANCH   3  13
HETATM   13  N   UNL     1      59.029   6.793   2.068  1.00  0.00    -0.399 N 
HETATM   14  H   UNL     1      59.003   5.929   2.540  1.00  0.00     0.156 HD
HETATM   15  H   UNL     1      58.295   7.045   1.462  1.00  0.00     0.156 HD
ENDBRANCH   3  13
TORSDOF 2
ENDMDL
MODEL 7
REMARK VINA RESULT:      -4.2      1.797      2.778
REMARK  2 active torsions:
REMARK  status: ('A' for Active; 'I' for Inactive)
REMARK    1  A    between atoms: N_1  and  C_2 
REMARK    2  A    between atoms: C_5  and  N_6 
ROOT
HETATM    1  C   UNL     1      63.061   8.720   4.204  1.00  0.00     0.032 A 
HETATM    2  C   UNL     1      62.389   9.338   3.136  1.00  0.00     0.058 A 
HETATM    3  C   UNL     1      61.919  10.657   3.204  1.00  0.00     0.027 A 
HETATM    4  C   UNL     1      63.279   9.499   5.348  1.00  0.00     0.029 A 
HETATM    5  C   UNL     1      62.870  10.834   5.416  1.00  0.00     0.004 A 
HETATM    6  C   UNL     1      62.215  11.414   4.333  1.00  0.00     0.029 A 
ENDROOT
BRANCH   1   7
HETATM    7  N   UNL     1      63.483   7.407   4.147  1.00  0.00    -0.377 N 
HETATM    8  C   UNL     1      63.303   6.457   5.253  1.00  0.00     0.149 C 
HETATM    9  C   UNL     1      62.430   5.279   4.802  1.00  0.00     0.187 C 
HETATM   10  O   UNL     1      62.974   4.643   3.633  1.00  0.00    -0.388 OA
HETATM   11  C   UNL     1      63.043   5.582   2.545  1.00  0.00     0.187 C 
HETATM   12  C   UNL     1      63.931   6.793   2.886  1.00  0.00     0.149 C 
ENDBRANCH   1   7
BRANCH   3  13
HETATM   13  N   UNL     1      61.376  11.271   2.066  1.00  0.00    -0.399 N 
HETATM   14  H   UNL     1      60.412  11.196   1.879  1.00  0.00     0.156 HD
HETATM   15  H   UNL     1      61.958  11.776   1.453  1.00  0.00     0.156 HD
ENDBRANCH   3  13
TORSDOF 2
ENDMDL
MODEL 8
REMARK VINA RESULT:      -4.1      2.515      5.813
REMARK  2 active torsions:
REMARK  status: ('A' for Active; 'I' for Inactive)
REMARK    1  A    between atoms: N_1  and  C_2 
REMARK    2  A    between atoms: C_5  and  N_6 
ROOT
HETATM    1  C   UNL     1      65.259   7.226   6.134  1.00  0.00     0.032 A 
HETATM    2  C   UNL     1      65.320   6.310   7.197  1.00  0.00     0.058 A 
HETATM    3  C   UNL     1      66.497   5.630   7.538  1.00  0.00     0.027 A 
HETATM    4  C   UNL     1      66.450   7.464   5.437  1.00  0.00     0.029 A 
HETATM    5  C   UNL     1      67.648   6.841   5.795  1.00  0.00     0.004 A 
HETATM    6  C   UNL     1      67.671   5.946   6.861  1.00  0.00     0.029 A 
ENDROOT
BRANCH   1   7
HETATM    7  N   UNL     1      64.086   7.861   5.776  1.00  0.00    -0.377 N 
HETATM    8  C   UNL     1      64.027   8.930   4.770  1.00  0.00     0.149 C 
HETATM    9  C   UNL     1      63.128   8.506   3.600  1.00  0.00     0.187 C 
HETATM   10  O   UNL     1      61.819   8.128   4.058  1.00  0.00    -0.388 OA
HETATM   11  C   UNL     1      61.914   7.016   4.965  1.00  0.00     0.187 C 
HETATM   12  C   UNL     1      62.771   7.351   6.199  1.00  0.00     0.149 C 
ENDBRANCH   1   7
BRANCH   3  13
HETATM   13  N   UNL     1      66.541   4.830   8.689  1.00  0.00    -0.399 N 
HETATM   14  H   UNL     1      67.175   5.041   9.412  1.00  0.00     0.156 HD
HETATM   15  H   UNL     1      65.938   4.056   8.775  1.00  0.00     0.156 HD
ENDBRANCH   3  13
TORSDOF 2
ENDMDL
MODEL 9
REMARK VINA RESULT:      -4.0      2.609      5.171
REMARK  2 active torsions:
REMARK  status: ('A' for Active; 'I' for Inactive)
REMARK    1  A    between atoms: N_1  and  C_2 
REMARK    2  A    between atoms: C_5  and  N_6 
ROOT
HETATM    1  C   UNL     1      63.945   8.045   3.983  1.00  0.00     0.032 A 
HETATM    2  C   UNL     1      64.581   6.891   3.496  1.00  0.00     0.058 A 
HETATM    3  C   UNL     1      65.783   6.409   4.035  1.00  0.00     0.027 A 
HETATM    4  C   UNL     1      64.550   8.688   5.070  1.00  0.00     0.029 A 
HETATM    5  C   UNL     1      65.717   8.193   5.660  1.00  0.00     0.004 A 
HETATM    6  C   UNL     1      66.313   7.042   5.155  1.00  0.00     0.029 A 
ENDROOT
BRANCH   1   7
HETATM    7  N   UNL     1      62.785   8.538   3.421  1.00  0.00    -0.377 N 
HETATM    8  C   UNL     1      62.047   9.681   3.975  1.00  0.00     0.149 C 
HETATM    9  C   UNL     1      61.991  10.822   2.950  1.00  0.00     0.187 C 
HETATM   10  O   UNL     1      61.432  10.377   1.703  1.00  0.00    -0.388 OA
HETATM   11  C   UNL     1      62.237   9.324   1.146  1.00  0.00     0.187 C 
HETATM   12  C   UNL     1      62.328   8.110   2.088  1.00  0.00     0.149 C 
ENDBRANCH   1   7
BRANCH   3  13
HETATM   13  N   UNL     1      66.306   5.182   3.604  1.00  0.00    -0.399 N 
HETATM   14  H   UNL     1      65.835   4.344   3.817  1.00  0.00     0.156 HD
HETATM   15  H   UNL     1      67.145   5.157   3.090  1.00  0.00     0.156 HD
ENDBRANCH   3  13
TORSDOF 2
ENDMDL
