MODEL 1
REMARK VINA RESULT:      -5.1      0.000      0.000
REMARK  3 active torsions:
REMARK  status: ('A' for Active; 'I' for Inactive)
REMARK    1  A    between atoms: N_1  and  C_2 
REMARK    2  A    between atoms: N_7  and  C_11 
REMARK    3  A    between atoms: C_8  and  C_11 
ROOT
HETATM    1  C   UNL     1      65.292   7.628   4.884  1.00  0.00     0.030 A 
HETATM    2  C   UNL     1      64.759   6.954   3.775  1.00  0.00     0.030 A 
HETATM    3  C   UNL     1      64.620   8.794   5.282  1.00  0.00     0.030 A 
HETATM    4  C   UNL     1      63.618   7.413   3.101  1.00  0.00     0.011 A 
HETATM    5  C   UNL     1      63.473   9.256   4.624  1.00  0.00     0.011 A 
HETATM    6  C   UNL     1      62.962   8.573   3.518  1.00  0.00    -0.033 A 
ENDROOT
BRANCH   1   7
HETATM    7  N   UNL     1      66.418   7.182   5.548  1.00  0.00    -0.381 N 
HETATM    8  C   UNL     1      66.776   7.648   6.887  1.00  0.00     0.123 C 
HETATM    9  C   UNL     1      66.922   6.439   7.816  1.00  0.00     0.020 C 
HETATM   10  C   UNL     1      67.871   5.387   7.245  1.00  0.00     0.003 C 
HETATM   11  C   UNL     1      67.476   5.002   5.818  1.00  0.00     0.020 C 
HETATM   12  C   UNL     1      67.354   6.239   4.935  1.00  0.00     0.123 C 
ENDBRANCH   1   7
BRANCH   6  13
HETATM   13  C   UNL     1      61.728   9.070   2.802  1.00  0.00     0.270 C 
BRANCH  13  14
HETATM   14  N   UNL     1      61.430  10.460   3.151  1.00  0.00    -0.075 N 
HETATM   15  C   UNL     1      61.787  11.363   2.068  1.00  0.00     0.267 C 
HETATM   16  H   UNL     1      61.959  10.714   3.985  1.00  0.00     0.277 HD
HETATM   17  H   UNL     1      60.428  10.541   3.321  1.00  0.00     0.277 HD
ENDBRANCH  13  14
ENDBRANCH   6  13
TORSDOF 3
ENDMDL
MODEL 2
REMARK VINA RESULT:      -5.0      1.396      6.164
REMARK  3 active torsions:
REMARK  status: ('A' for Active; 'I' for Inactive)
REMARK    1  A    between atoms: N_1  and  C_2 
REMARK    2  A    between atoms: N_7  and  C_11 
REMARK    3  A    between atoms: C_8  and  C_11 
ROOT
HETATM    1  C   UNL     1      64.084   7.988   4.061  1.00  0.00     0.030 A 
HETATM    2  C   UNL     1      64.662   6.788   3.622  1.00  0.00     0.030 A 
HETATM    3  C   UNL     1      64.728   8.630   5.130  1.00  0.00     0.030 A 
HETATM    4  C   UNL     1      65.820   6.257   4.210  1.00  0.00     0.011 A 
HETATM    5  C   UNL     1      65.890   8.116   5.720  1.00  0.00     0.011 A 
HETATM    6  C   UNL     1      66.446   6.916   5.270  1.00  0.00    -0.033 A 
ENDROOT
BRANCH   1   7
HETATM    7  N   UNL     1      62.942   8.511   3.487  1.00  0.00    -0.381 N 
HETATM    8  C   UNL     1      62.159   9.571   4.122  1.00  0.00     0.123 C 
HETATM    9  C   UNL     1      62.031  10.749   3.152  1.00  0.00     0.020 C 
HETATM   10  C   UNL     1      61.503  10.313   1.786  1.00  0.00     0.003 C 
HETATM   11  C   UNL     1      62.327   9.156   1.218  1.00  0.00     0.020 C 
HETATM   12  C   UNL     1      62.415   8.009   2.218  1.00  0.00     0.123 C 
ENDBRANCH   1   7
BRANCH   6  13
HETATM   13  C   UNL     1      67.697   6.355   5.905  1.00  0.00     0.270 C 
BRANCH  13  14
HETATM   14  N   UNL     1      67.752   6.657   7.336  1.00  0.00    -0.075 N 
HETATM   15  C   UNL     1      67.214   5.561   8.126  1.00  0.00     0.267 C 
HETATM   16  H   UNL     1      67.207   7.500   7.520  1.00  0.00     0.277 HD
HETATM   17  H   UNL     1      68.728   6.796   7.599  1.00  0.00     0.277 HD
ENDBRANCH  13  14
ENDBRANCH   6  13
TORSDOF 3
ENDMDL
MODEL 3
REMARK VINA RESULT:      -4.9      0.899      1.988
REMARK  3 active torsions:
REMARK  status: ('A' for Active; 'I' for Inactive)
REMARK    1  A    between atoms: N_1  and  C_2 
REMARK    2  A    between atoms: N_7  and  C_11 
REMARK    3  A    between atoms: C_8  and  C_11 
ROOT
HETATM    1  C   UNL     1      64.514   7.108   4.831  1.00  0.00     0.030 A 
HETATM    2  C   UNL     1      64.030   8.377   5.182  1.00  0.00     0.030 A 
HETATM    3  C   UNL     1      64.121   6.623   3.574  1.00  0.00     0.030 A 
HETATM    4  C   UNL     1      63.203   9.124   4.329  1.00  0.00     0.011 A 
HETATM    5  C   UNL     1      63.305   7.362   2.708  1.00  0.00     0.011 A 
HETATM    6  C   UNL     1      62.830   8.622   3.080  1.00  0.00    -0.033 A 
ENDROOT
BRANCH   1   7
HETATM    7  N   UNL     1      65.324   6.369   5.670  1.00  0.00    -0.381 N 
HETATM    8  C   UNL     1      66.357   5.464   5.167  1.00  0.00     0.123 C 
HETATM    9  C   UNL     1      67.706   5.853   5.779  1.00  0.00     0.020 C 
HETATM   10  C   UNL     1      67.640   5.942   7.303  1.00  0.00     0.003 C 
HETATM   11  C   UNL     1      66.493   6.847   7.756  1.00  0.00     0.020 C 
HETATM   12  C   UNL     1      65.174   6.411   7.124  1.00  0.00     0.123 C 
ENDBRANCH   1   7
BRANCH   6  13
HETATM   13  C   UNL     1      61.945   9.422   2.153  1.00  0.00     0.270 C 
BRANCH  13  14
HETATM   14  N   UNL     1      61.447  10.635   2.802  1.00  0.00    -0.075 N 
HETATM   15  C   UNL     1      61.786  11.821   2.032  1.00  0.00     0.267 C 
HETATM   16  H   UNL     1      61.862  10.710   3.731  1.00  0.00     0.277 HD
HETATM   17  H   UNL     1      60.431  10.572   2.867  1.00  0.00     0.277 HD
ENDBRANCH  13  14
ENDBRANCH   6  13
TORSDOF 3
ENDMDL
MODEL 4
REMARK VINA RESULT:      -4.8      0.965      1.834
REMARK  3 active torsions:
REMARK  status: ('A' for Active; 'I' for Inactive)
REMARK    1  A    between atoms: N_1  and  C_2 
REMARK    2  A    between atoms: N_7  and  C_11 
REMARK    3  A    between atoms: C_8  and  C_11 
ROOT
HETATM    1  C   UNL     1      65.208   7.645   4.737  1.00  0.00     0.030 A 
HETATM    2  C   UNL     1      64.422   8.774   5.014  1.00  0.00     0.030 A 
HETATM    3  C   UNL     1      64.762   6.823   3.691  1.00  0.00     0.030 A 
HETATM    4  C   UNL     1      63.259   9.070   4.289  1.00  0.00     0.011 A 
HETATM    5  C   UNL     1      63.608   7.113   2.952  1.00  0.00     0.011 A 
HETATM    6  C   UNL     1      62.837   8.240   3.249  1.00  0.00    -0.033 A 
ENDROOT
BRANCH   1   7
HETATM    7  N   UNL     1      66.352   7.348   5.451  1.00  0.00    -0.381 N 
HETATM    8  C   UNL     1      66.660   7.976   6.736  1.00  0.00     0.123 C 
HETATM    9  C   UNL     1      66.873   6.884   7.789  1.00  0.00     0.020 C 
HETATM   10  C   UNL     1      67.898   5.844   7.338  1.00  0.00     0.003 C 
HETATM   11  C   UNL     1      67.550   5.286   5.957  1.00  0.00     0.020 C 
HETATM   12  C   UNL     1      67.357   6.413   4.947  1.00  0.00     0.123 C 
ENDBRANCH   1   7
BRANCH   6  13
HETATM   13  C   UNL     1      61.589   8.555   2.458  1.00  0.00     0.270 C 
BRANCH  13  14
HETATM   14  N   UNL     1      60.426   8.712   3.334  1.00  0.00    -0.075 N 
HETATM   15  C   UNL     1      59.881   7.420   3.721  1.00  0.00     0.267 C 
HETATM   16  H   UNL     1      59.707   9.242   2.841  1.00  0.00     0.277 HD
HETATM   17  H   UNL     1      60.721   9.203   4.177  1.00  0.00     0.277 HD
ENDBRANCH  13  14
ENDBRANCH   6  13
TORSDOF 3
ENDMDL
MODEL 5
REMARK VINA RESULT:      -4.3      1.816      6.292
REMARK  3 active torsions:
REMARK  status: ('A' for Active; 'I' for Inactive)
REMARK    1  A    between atoms: N_1  and  C_2 
REMARK    2  A    between atoms: N_7  and  C_11 
REMARK    3  A    between atoms: C_8  and  C_11 
ROOT
HETATM    1  C   UNL     1      63.527   7.601   3.113  1.00  0.00     0.030 A 
HETATM    2  C   UNL     1      64.475   6.597   3.359  1.00  0.00     0.030 A 
HETATM    3  C   UNL     1      63.513   8.674   4.018  1.00  0.00     0.030 A 
HETATM    4  C   UNL     1      65.363   6.658   4.443  1.00  0.00     0.011 A 
HETATM    5  C   UNL     1      64.401   8.752   5.098  1.00  0.00     0.011 A 
HETATM    6  C   UNL     1      65.334   7.738   5.328  1.00  0.00    -0.033 A 
ENDROOT
BRANCH   1   7
HETATM    7  N   UNL     1      62.648   7.542   2.049  1.00  0.00    -0.381 N 
HETATM    8  C   UNL     1      62.016   6.295   1.621  1.00  0.00     0.123 C 
HETATM    9  C   UNL     1      60.495   6.477   1.626  1.00  0.00     0.020 C 
HETATM   10  C   UNL     1      60.061   7.705   0.827  1.00  0.00     0.003 C 
HETATM   11  C   UNL     1      60.816   8.956   1.281  1.00  0.00     0.020 C 
HETATM   12  C   UNL     1      62.323   8.723   1.249  1.00  0.00     0.123 C 
ENDBRANCH   1   7
BRANCH   6  13
HETATM   13  C   UNL     1      66.291   7.815   6.494  1.00  0.00     0.270 C 
BRANCH  13  14
HETATM   14  N   UNL     1      65.804   7.045   7.639  1.00  0.00    -0.075 N 
HETATM   15  C   UNL     1      66.880   6.751   8.572  1.00  0.00     0.267 C 
HETATM   16  H   UNL     1      65.405   6.168   7.304  1.00  0.00     0.277 HD
HETATM   17  H   UNL     1      65.098   7.599   8.123  1.00  0.00     0.277 HD
ENDBRANCH  13  14
ENDBRANCH   6  13
TORSDOF 3
ENDMDL
MODEL 6
REMARK VINA RESULT:      -4.3      3.987      6.495
REMARK  3 active torsions:
REMARK  status: ('A' for Active; 'I' for Inactive)
REMARK    1  A    between atoms: N_1  and  C_2 
REMARK    2  A    between atoms: N_7  and  C_11 
REMARK    3  A    between atoms: C_8  and  C_11 
ROOT
HETATM    1  C   UNL     1      61.769   7.575   4.447  1.00  0.00     0.030 A 
HETATM    2  C   UNL     1      60.505   6.998   4.256  1.00  0.00     0.030 A 
HETATM    3  C   UNL     1      62.506   7.100   5.542  1.00  0.00     0.030 A 
HETATM    4  C   UNL     1      60.002   6.001   5.106  1.00  0.00     0.011 A 
HETATM    5  C   UNL     1      62.021   6.098   6.392  1.00  0.00     0.011 A 
HETATM    6  C   UNL     1      60.757   5.541   6.187  1.00  0.00    -0.033 A 
ENDROOT
BRANCH   1   7
HETATM    7  N   UNL     1      62.264   8.559   3.615  1.00  0.00    -0.381 N 
HETATM    8  C   UNL     1      62.513   8.332   2.191  1.00  0.00     0.123 C 
HETATM    9  C   UNL     1      61.740   9.372   1.375  1.00  0.00     0.020 C 
HETATM   10  C   UNL     1      62.029  10.798   1.841  1.00  0.00     0.003 C 
HETATM   11  C   UNL     1      61.817  10.941   3.349  1.00  0.00     0.020 C 
HETATM   12  C   UNL     1      62.615   9.889   4.113  1.00  0.00     0.123 C 
ENDBRANCH   1   7
BRANCH   6  13
HETATM   13  C   UNL     1      60.227   4.463   7.103  1.00  0.00     0.270 C 
BRANCH  13  14
HETATM   14  N   UNL     1      59.582   5.035   8.286  1.00  0.00    -0.075 N 
HETATM   15  C   UNL     1      58.147   4.796   8.270  1.00  0.00     0.267 C 
HETATM   16  H   UNL     1      59.752   6.040   8.304  1.00  0.00     0.277 HD
HETATM   17  H   UNL     1      59.974   4.589   9.114  1.00  0.00     0.277 HD
ENDBRANCH  13  14
ENDBRANCH   6  13
TORSDOF 3
ENDMDL
MODEL 7
REMARK VINA RESULT:      -4.1      1.985      6.484
REMARK  3 active torsions:
REMARK  status: ('A' for Active; 'I' for Inactive)
REMARK    1  A    between atoms: N_1  and  C_2 
REMARK    2  A    between atoms: N_7  and  C_11 
REMARK    3  A    between atoms: C_8  and  C_11 
ROOT
HETATM    1  C   UNL     1      62.234   8.011   3.953  1.00  0.00     0.030 A 
HETATM    2  C   UNL     1      61.965   6.939   4.817  1.00  0.00     0.030 A 
HETATM    3  C   UNL     1      63.452   8.678   4.156  1.00  0.00     0.030 A 
HETATM    4  C   UNL     1      62.859   6.550   5.826  1.00  0.00     0.011 A 
HETATM    5  C   UNL     1      64.358   8.293   5.153  1.00  0.00     0.011 A 
HETATM    6  C   UNL     1      64.067   7.227   6.006  1.00  0.00    -0.033 A 
ENDROOT
BRANCH   1   7
HETATM    7  N   UNL     1      61.355   8.398   2.961  1.00  0.00    -0.381 N 
HETATM    8  C   UNL     1      61.756   9.260   1.850  1.00  0.00     0.123 C 
HETATM    9  C   UNL     1      61.435   8.556   0.528  1.00  0.00     0.020 C 
HETATM   10  C   UNL     1      59.981   8.089   0.466  1.00  0.00     0.003 C 
HETATM   11  C   UNL     1      59.614   7.254   1.694  1.00  0.00     0.020 C 
HETATM   12  C   UNL     1      59.946   8.005   2.980  1.00  0.00     0.123 C 
ENDBRANCH   1   7
BRANCH   6  13
HETATM   13  C   UNL     1      65.038   6.811   7.086  1.00  0.00     0.270 C 
BRANCH  13  14
HETATM   14  N   UNL     1      66.272   7.596   7.028  1.00  0.00    -0.075 N 
HETATM   15  C   UNL     1      67.375   6.805   6.504  1.00  0.00     0.267 C 
HETATM   16  H   UNL     1      66.508   7.915   7.968  1.00  0.00     0.277 HD
HETATM   17  H   UNL     1      66.120   8.389   6.406  1.00  0.00     0.277 HD
ENDBRANCH  13  14
ENDBRANCH   6  13
TORSDOF 3
ENDMDL
MODEL 8
REMARK VINA RESULT:      -4.1      3.318      6.584
REMARK  3 active torsions:
REMARK  status: ('A' for Active; 'I' for Inactive)
REMARK    1  A    between atoms: N_1  and  C_2 
REMARK    2  A    between atoms: N_7  and  C_11 
REMARK    3  A    between atoms: C_8  and  C_11 
ROOT
HETATM    1  C   UNL     1      61.265   7.059   4.728  1.00  0.00     0.030 A 
HETATM    2  C   UNL     1      61.976   7.692   3.698  1.00  0.00     0.030 A 
HETATM    3  C   UNL     1      61.952   6.886   5.939  1.00  0.00     0.030 A 
HETATM    4  C   UNL     1      63.298   8.132   3.864  1.00  0.00     0.011 A 
HETATM    5  C   UNL     1      63.268   7.330   6.122  1.00  0.00     0.011 A 
HETATM    6  C   UNL     1      63.961   7.953   5.081  1.00  0.00    -0.033 A 
ENDROOT
BRANCH   1   7
HETATM    7  N   UNL     1      59.965   6.622   4.566  1.00  0.00    -0.381 N 
HETATM    8  C   UNL     1      59.381   5.570   5.399  1.00  0.00     0.123 C 
HETATM    9  C   UNL     1      58.105   6.102   6.057  1.00  0.00     0.020 C 
HETATM   10  C   UNL     1      57.139   6.700   5.036  1.00  0.00     0.003 C 
HETATM   11  C   UNL     1      57.837   7.738   4.155  1.00  0.00     0.020 C 
HETATM   12  C   UNL     1      59.094   7.155   3.519  1.00  0.00     0.123 C 
ENDBRANCH   1   7
BRANCH   6  13
HETATM   13  C   UNL     1      65.382   8.430   5.271  1.00  0.00     0.270 C 
BRANCH  13  14
HETATM   14  N   UNL     1      65.906   8.042   6.581  1.00  0.00    -0.075 N 
HETATM   15  C   UNL     1      67.004   7.097   6.449  1.00  0.00     0.267 C 
HETATM   16  H   UNL     1      65.158   7.610   7.124  1.00  0.00     0.277 HD
HETATM   17  H   UNL     1      66.254   8.878   7.049  1.00  0.00     0.277 HD
ENDBRANCH  13  14
ENDBRANCH   6  13
TORSDOF 3
ENDMDL
MODEL 9
REMARK VINA RESULT:      -4.0      4.739      7.288
REMARK  3 active torsions:
REMARK  status: ('A' for Active; 'I' for Inactive)
REMARK    1  A    between atoms: N_1  and  C_2 
REMARK    2  A    between atoms: N_7  and  C_11 
REMARK    3  A    between atoms: C_8  and  C_11 
ROOT
HETATM    1  C   UNL     1      59.837   7.209   3.988  1.00  0.00     0.030 A 
HETATM    2  C   UNL     1      60.084   6.299   5.026  1.00  0.00     0.030 A 
HETATM    3  C   UNL     1      58.502   7.610   3.821  1.00  0.00     0.030 A 
HETATM    4  C   UNL     1      59.061   5.816   5.855  1.00  0.00     0.011 A 
HETATM    5  C   UNL     1      57.473   7.143   4.649  1.00  0.00     0.011 A 
HETATM    6  C   UNL     1      57.741   6.233   5.674  1.00  0.00    -0.033 A 
ENDROOT
BRANCH   1   7
HETATM    7  N   UNL     1      60.841   7.684   3.167  1.00  0.00    -0.381 N 
HETATM    8  C   UNL     1      60.953   7.299   1.760  1.00  0.00     0.123 C 
HETATM    9  C   UNL     1      60.962   8.562   0.894  1.00  0.00     0.020 C 
HETATM   10  C   UNL     1      62.018   9.566   1.354  1.00  0.00     0.003 C 
HETATM   11  C   UNL     1      61.884   9.865   2.848  1.00  0.00     0.020 C 
HETATM   12  C   UNL     1      61.889   8.575   3.663  1.00  0.00     0.123 C 
ENDBRANCH   1   7
BRANCH   6  13
HETATM   13  C   UNL     1      56.634   5.722   6.566  1.00  0.00     0.270 C 
BRANCH  13  14
HETATM   14  N   UNL     1      55.860   6.823   7.142  1.00  0.00    -0.075 N 
HETATM   15  C   UNL     1      54.604   6.347   7.701  1.00  0.00     0.267 C 
HETATM   16  H   UNL     1      55.661   7.508   6.412  1.00  0.00     0.277 HD
HETATM   17  H   UNL     1      56.408   7.245   7.891  1.00  0.00     0.277 HD
ENDBRANCH  13  14
ENDBRANCH   6  13
TORSDOF 3
ENDMDL
