MODEL 1
REMARK VINA RESULT:      -4.3      0.000      0.000
REMARK  2 active torsions:
REMARK  status: ('A' for Active; 'I' for Inactive)
REMARK    1  A    between atoms: C_6  and  C_12 
REMARK    2  A    between atoms: N_11  and  C_12 
ROOT
HETATM    1  N   UNL     1      62.777   8.439   2.712  1.00  0.00    -0.317 N 
HETATM    2  C   UNL     1      62.027   9.564   3.036  1.00  0.00     0.111 A 
HETATM    3  C   UNL     1      63.779   7.916   3.525  1.00  0.00     0.106 A 
HETATM    4  N   UNL     1      61.145   9.843   2.098  1.00  0.00    -0.351 N 
ATOM      5  HN  UNL     1      60.474  10.612   2.087  1.00  0.00     0.166 HD
HETATM    6  C   UNL     1      64.064   8.511   4.703  1.00  0.00    -0.017 A 
HETATM    7  C   UNL     1      62.329  10.209   4.266  1.00  0.00     0.050 A 
HETATM    8  C   UNL     1      63.303   9.718   5.058  1.00  0.00     0.014 A 
HETATM    9  C   UNL     1      61.322   8.878   1.139  1.00  0.00     0.107 A 
HETATM   10  C   UNL     1      62.325   8.006   1.491  1.00  0.00     0.115 A 
ENDROOT
BRANCH   6  11
HETATM   11  C   UNL     1      65.132   8.018   5.646  1.00  0.00     0.271 C 
BRANCH  11  12
HETATM   12  N   UNL     1      64.552   7.290   6.778  1.00  0.00    -0.075 N 
HETATM   13  C   UNL     1      65.574   6.564   7.517  1.00  0.00     0.267 C 
HETATM   14  H   UNL     1      63.860   6.628   6.428  1.00  0.00     0.277 HD
HETATM   15  H   UNL     1      64.118   7.966   7.407  1.00  0.00     0.277 HD
ENDBRANCH  11  12
ENDBRANCH   6  11
TORSDOF 2
ENDMDL
MODEL 2
REMARK VINA RESULT:      -4.3      1.335      4.798
REMARK  2 active torsions:
REMARK  status: ('A' for Active; 'I' for Inactive)
REMARK    1  A    between atoms: C_6  and  C_12 
REMARK    2  A    between atoms: N_11  and  C_12 
ROOT
HETATM    1  N   UNL     1      63.686   8.191   3.845  1.00  0.00    -0.317 N 
HETATM    2  C   UNL     1      63.531   9.229   4.756  1.00  0.00     0.111 A 
HETATM    3  C   UNL     1      62.948   8.075   2.670  1.00  0.00     0.106 A 
HETATM    4  N   UNL     1      64.353   9.102   5.778  1.00  0.00    -0.351 N 
ATOM      5  HN  UNL     1      64.443   9.724   6.582  1.00  0.00     0.166 HD
HETATM    6  C   UNL     1      62.021   9.008   2.367  1.00  0.00    -0.017 A 
HETATM    7  C   UNL     1      62.546  10.209   4.457  1.00  0.00     0.050 A 
HETATM    8  C   UNL     1      61.819  10.104   3.327  1.00  0.00     0.014 A 
HETATM    9  C   UNL     1      65.062   7.954   5.530  1.00  0.00     0.107 A 
HETATM   10  C   UNL     1      64.666   7.371   4.349  1.00  0.00     0.115 A 
ENDROOT
BRANCH   6  11
HETATM   11  C   UNL     1      61.175   8.964   1.120  1.00  0.00     0.271 C 
BRANCH  11  12
HETATM   12  N   UNL     1      59.785   8.620   1.428  1.00  0.00    -0.075 N 
HETATM   13  C   UNL     1      59.289   7.581   0.537  1.00  0.00     0.267 C 
HETATM   14  H   UNL     1      59.206   9.453   1.323  1.00  0.00     0.277 HD
HETATM   15  H   UNL     1      59.744   8.271   2.386  1.00  0.00     0.277 HD
ENDBRANCH  11  12
ENDBRANCH   6  11
TORSDOF 2
ENDMDL
MODEL 3
REMARK VINA RESULT:      -4.3      1.226      2.154
REMARK  2 active torsions:
REMARK  status: ('A' for Active; 'I' for Inactive)
REMARK    1  A    between atoms: C_6  and  C_12 
REMARK    2  A    between atoms: N_11  and  C_12 
ROOT
HETATM    1  N   UNL     1      62.387  10.006   3.908  1.00  0.00    -0.317 N 
HETATM    2  C   UNL     1      62.231   9.446   2.645  1.00  0.00     0.111 A 
HETATM    3  C   UNL     1      62.826   9.294   5.021  1.00  0.00     0.106 A 
HETATM    4  N   UNL     1      61.808  10.336   1.771  1.00  0.00    -0.351 N 
ATOM      5  HN  UNL     1      61.613  10.188   0.780  1.00  0.00     0.166 HD
HETATM    6  C   UNL     1      63.126   7.983   4.903  1.00  0.00    -0.017 A 
HETATM    7  C   UNL     1      62.528   8.063   2.511  1.00  0.00     0.050 A 
HETATM    8  C   UNL     1      62.945   7.361   3.583  1.00  0.00     0.014 A 
HETATM    9  C   UNL     1      61.685  11.505   2.478  1.00  0.00     0.107 A 
HETATM   10  C   UNL     1      62.029  11.326   3.797  1.00  0.00     0.115 A 
ENDROOT
BRANCH   6  11
HETATM   11  C   UNL     1      63.606   7.134   6.052  1.00  0.00     0.271 C 
BRANCH  11  12
HETATM   12  N   UNL     1      64.880   7.623   6.584  1.00  0.00    -0.075 N 
HETATM   13  C   UNL     1      65.551   6.599   7.370  1.00  0.00     0.267 C 
HETATM   14  H   UNL     1      64.704   8.435   7.175  1.00  0.00     0.277 HD
HETATM   15  H   UNL     1      65.482   7.874   5.799  1.00  0.00     0.277 HD
ENDBRANCH  11  12
ENDBRANCH   6  11
TORSDOF 2
ENDMDL
MODEL 4
REMARK VINA RESULT:      -4.1      1.510      5.098
REMARK  2 active torsions:
REMARK  status: ('A' for Active; 'I' for Inactive)
REMARK    1  A    between atoms: C_6  and  C_12 
REMARK    2  A    between atoms: N_11  and  C_12 
ROOT
HETATM    1  N   UNL     1      64.739   8.084   5.415  1.00  0.00    -0.317 N 
HETATM    2  C   UNL     1      64.115   7.218   6.306  1.00  0.00     0.111 A 
HETATM    3  C   UNL     1      64.081   8.728   4.371  1.00  0.00     0.106 A 
HETATM    4  N   UNL     1      64.963   6.749   7.198  1.00  0.00    -0.351 N 
ATOM      5  HN  UNL     1      64.765   6.099   7.959  1.00  0.00     0.166 HD
HETATM    6  C   UNL     1      62.759   8.523   4.185  1.00  0.00    -0.017 A 
HETATM    7  C   UNL     1      62.728   6.982   6.110  1.00  0.00     0.050 A 
HETATM    8  C   UNL     1      62.080   7.592   5.098  1.00  0.00     0.014 A 
HETATM    9  C   UNL     1      66.170   7.321   6.884  1.00  0.00     0.107 A 
HETATM   10  C   UNL     1      66.060   8.141   5.786  1.00  0.00     0.115 A 
ENDROOT
BRANCH   6  11
HETATM   11  C   UNL     1      61.965   9.175   3.082  1.00  0.00     0.271 C 
BRANCH  11  12
HETATM   12  N   UNL     1      61.705  10.587   3.373  1.00  0.00    -0.075 N 
HETATM   13  C   UNL     1      61.753  11.392   2.161  1.00  0.00     0.267 C 
HETATM   14  H   UNL     1      62.409  10.928   4.027  1.00  0.00     0.277 HD
HETATM   15  H   UNL     1      60.771  10.666   3.776  1.00  0.00     0.277 HD
ENDBRANCH  11  12
ENDBRANCH   6  11
TORSDOF 2
ENDMDL
MODEL 5
REMARK VINA RESULT:      -4.0      2.363      6.091
REMARK  2 active torsions:
REMARK  status: ('A' for Active; 'I' for Inactive)
REMARK    1  A    between atoms: C_6  and  C_12 
REMARK    2  A    between atoms: N_11  and  C_12 
ROOT
HETATM    1  N   UNL     1      65.870   6.471   7.299  1.00  0.00    -0.317 N 
HETATM    2  C   UNL     1      67.146   6.757   6.826  1.00  0.00     0.111 A 
HETATM    3  C   UNL     1      64.701   6.931   6.699  1.00  0.00     0.106 A 
HETATM    4  N   UNL     1      68.075   6.195   7.573  1.00  0.00    -0.351 N 
ATOM      5  HN  UNL     1      69.086   6.247   7.448  1.00  0.00     0.166 HD
HETATM    6  C   UNL     1      64.775   7.703   5.594  1.00  0.00    -0.017 A 
HETATM    7  C   UNL     1      67.237   7.581   5.673  1.00  0.00     0.050 A 
HETATM    8  C   UNL     1      66.113   8.042   5.088  1.00  0.00     0.014 A 
HETATM    9  C   UNL     1      67.391   5.527   8.557  1.00  0.00     0.107 A 
HETATM   10  C   UNL     1      66.033   5.686   8.413  1.00  0.00     0.115 A 
ENDROOT
BRANCH   6  11
HETATM   11  C   UNL     1      63.564   8.248   4.880  1.00  0.00     0.271 C 
BRANCH  11  12
HETATM   12  N   UNL     1      62.976   9.375   5.606  1.00  0.00    -0.075 N 
HETATM   13  C   UNL     1      62.571  10.436   4.695  1.00  0.00     0.267 C 
HETATM   14  H   UNL     1      63.665   9.745   6.261  1.00  0.00     0.277 HD
HETATM   15  H   UNL     1      62.149   9.042   6.103  1.00  0.00     0.277 HD
ENDBRANCH  11  12
ENDBRANCH   6  11
TORSDOF 2
ENDMDL
MODEL 6
REMARK VINA RESULT:      -4.0      1.626      2.628
REMARK  2 active torsions:
REMARK  status: ('A' for Active; 'I' for Inactive)
REMARK    1  A    between atoms: C_6  and  C_12 
REMARK    2  A    between atoms: N_11  and  C_12 
ROOT
HETATM    1  N   UNL     1      63.747   9.165   4.740  1.00  0.00    -0.317 N 
HETATM    2  C   UNL     1      63.214   8.484   3.652  1.00  0.00     0.111 A 
HETATM    3  C   UNL     1      64.868   8.740   5.447  1.00  0.00     0.106 A 
HETATM    4  N   UNL     1      62.158   9.102   3.165  1.00  0.00    -0.351 N 
ATOM      5  HN  UNL     1      61.582   8.816   2.372  1.00  0.00     0.166 HD
HETATM    6  C   UNL     1      65.499   7.603   5.081  1.00  0.00    -0.017 A 
HETATM    7  C   UNL     1      63.859   7.277   3.267  1.00  0.00     0.050 A 
HETATM    8  C   UNL     1      64.940   6.849   3.949  1.00  0.00     0.014 A 
HETATM    9  C   UNL     1      61.996  10.215   3.952  1.00  0.00     0.107 A 
HETATM   10  C   UNL     1      62.958  10.272   4.932  1.00  0.00     0.115 A 
ENDROOT
BRANCH   6  11
HETATM   11  C   UNL     1      66.717   7.065   5.786  1.00  0.00     0.271 C 
BRANCH  11  12
HETATM   12  N   UNL     1      66.959   7.768   7.049  1.00  0.00    -0.075 N 
HETATM   13  C   UNL     1      66.721   6.898   8.191  1.00  0.00     0.267 C 
HETATM   14  H   UNL     1      66.334   8.572   7.107  1.00  0.00     0.277 HD
HETATM   15  H   UNL     1      67.934   8.067   7.069  1.00  0.00     0.277 HD
ENDBRANCH  11  12
ENDBRANCH   6  11
TORSDOF 2
ENDMDL
MODEL 7
REMARK VINA RESULT:      -4.0      2.217      3.329
REMARK  2 active torsions:
REMARK  status: ('A' for Active; 'I' for Inactive)
REMARK    1  A    between atoms: C_6  and  C_12 
REMARK    2  A    between atoms: N_11  and  C_12 
ROOT
HETATM    1  N   UNL     1      62.548   9.375   3.371  1.00  0.00    -0.317 N 
HETATM    2  C   UNL     1      61.964  10.039   2.299  1.00  0.00     0.111 A 
HETATM    3  C   UNL     1      63.040   8.075   3.303  1.00  0.00     0.106 A 
HETATM    4  N   UNL     1      61.588  11.257   2.631  1.00  0.00    -0.351 N 
ATOM      5  HN  UNL     1      61.136  11.951   2.035  1.00  0.00     0.166 HD
HETATM    6  C   UNL     1      62.961   7.390   2.142  1.00  0.00    -0.017 A 
HETATM    7  C   UNL     1      61.860   9.323   1.076  1.00  0.00     0.050 A 
HETATM    8  C   UNL     1      62.325   8.060   0.998  1.00  0.00     0.014 A 
HETATM    9  C   UNL     1      61.935  11.394   3.952  1.00  0.00     0.107 A 
HETATM   10  C   UNL     1      62.521  10.247   4.432  1.00  0.00     0.115 A 
ENDROOT
BRANCH   6  11
HETATM   11  C   UNL     1      63.465   5.979   1.974  1.00  0.00     0.271 C 
BRANCH  11  12
HETATM   12  N   UNL     1      64.680   5.747   2.758  1.00  0.00    -0.075 N 
HETATM   13  C   UNL     1      64.530   4.596   3.636  1.00  0.00     0.267 C 
HETATM   14  H   UNL     1      64.874   6.574   3.323  1.00  0.00     0.277 HD
HETATM   15  H   UNL     1      65.449   5.564   2.113  1.00  0.00     0.277 HD
ENDBRANCH  11  12
ENDBRANCH   6  11
TORSDOF 2
ENDMDL
MODEL 8
REMARK VINA RESULT:      -3.9      4.027      6.370
REMARK  2 active torsions:
REMARK  status: ('A' for Active; 'I' for Inactive)
REMARK    1  A    between atoms: C_6  and  C_12 
REMARK    2  A    between atoms: N_11  and  C_12 
ROOT
HETATM    1  N   UNL     1      65.609   5.336   6.965  1.00  0.00    -0.317 N 
HETATM    2  C   UNL     1      65.838   6.624   7.436  1.00  0.00     0.111 A 
HETATM    3  C   UNL     1      66.306   4.215   7.406  1.00  0.00     0.106 A 
HETATM    4  N   UNL     1      65.040   7.499   6.857  1.00  0.00    -0.351 N 
ATOM      5  HN  UNL     1      65.003   8.506   7.020  1.00  0.00     0.166 HD
HETATM    6  C   UNL     1      67.267   4.350   8.345  1.00  0.00    -0.017 A 
HETATM    7  C   UNL     1      66.858   6.782   8.412  1.00  0.00     0.050 A 
HETATM    8  C   UNL     1      67.547   5.706   8.841  1.00  0.00     0.014 A 
HETATM    9  C   UNL     1      64.272   6.767   5.988  1.00  0.00     0.107 A 
HETATM   10  C   UNL     1      64.607   5.434   6.032  1.00  0.00     0.115 A 
ENDROOT
BRANCH   6  11
HETATM   11  C   UNL     1      68.073   3.195   8.881  1.00  0.00     0.271 C 
BRANCH  11  12
HETATM   12  N   UNL     1      67.210   2.094   9.313  1.00  0.00    -0.075 N 
HETATM   13  C   UNL     1      67.708   1.482  10.536  1.00  0.00     0.267 C 
HETATM   14  H   UNL     1      67.178   1.389   8.577  1.00  0.00     0.277 HD
HETATM   15  H   UNL     1      66.278   2.468   9.495  1.00  0.00     0.277 HD
ENDBRANCH  11  12
ENDBRANCH   6  11
TORSDOF 2
ENDMDL
MODEL 9
REMARK VINA RESULT:      -3.7      2.698      6.035
REMARK  2 active torsions:
REMARK  status: ('A' for Active; 'I' for Inactive)
REMARK    1  A    between atoms: C_6  and  C_12 
REMARK    2  A    between atoms: N_11  and  C_12 
ROOT
HETATM    1  N   UNL     1      65.759   6.236   7.401  1.00  0.00    -0.317 N 
HETATM    2  C   UNL     1      66.701   7.258   7.379  1.00  0.00     0.111 A 
HETATM    3  C   UNL     1      64.694   6.144   6.510  1.00  0.00     0.106 A 
HETATM    4  N   UNL     1      67.603   7.105   8.326  1.00  0.00    -0.351 N 
ATOM      5  HN  UNL     1      68.399   7.711   8.528  1.00  0.00     0.166 HD
HETATM    6  C   UNL     1      64.537   7.085   5.554  1.00  0.00    -0.017 A 
HETATM    7  C   UNL     1      66.538   8.263   6.388  1.00  0.00     0.050 A 
HETATM    8  C   UNL     1      65.506   8.191   5.524  1.00  0.00     0.014 A 
HETATM    9  C   UNL     1      67.244   5.956   8.984  1.00  0.00     0.107 A 
HETATM   10  C   UNL     1      66.108   5.406   8.438  1.00  0.00     0.115 A 
ENDROOT
BRANCH   6  11
HETATM   11  C   UNL     1      63.415   7.069   4.548  1.00  0.00     0.271 C 
BRANCH  11  12
HETATM   12  N   UNL     1      63.925   7.133   3.176  1.00  0.00    -0.075 N 
HETATM   13  C   UNL     1      64.359   5.823   2.713  1.00  0.00     0.267 C 
HETATM   14  H   UNL     1      64.716   7.776   3.145  1.00  0.00     0.277 HD
HETATM   15  H   UNL     1      63.172   7.458   2.568  1.00  0.00     0.277 HD
ENDBRANCH  11  12
ENDBRANCH   6  11
TORSDOF 2
ENDMDL
