MODEL 1
REMARK VINA RESULT:      -5.2      0.000      0.000
REMARK  1 active torsions:
REMARK  status: ('A' for Active; 'I' for Inactive)
REMARK    1  A    between atoms: N_1  and  C_3 
ROOT
HETATM    1  N   UNL     1      61.742  11.746   3.953  1.00  0.00    -0.191 NA
HETATM    2  C   UNL     1      64.475   7.868   5.002  1.00  0.00     0.031 A 
HETATM    3  C   UNL     1      62.258  10.706   3.955  1.00  0.00     0.099 C 
HETATM    4  C   UNL     1      63.818   9.105   4.970  1.00  0.00     0.052 A 
HETATM    5  C   UNL     1      62.897   9.424   3.960  1.00  0.00     0.046 A 
HETATM    6  C   UNL     1      64.169   6.959   3.978  1.00  0.00     0.029 A 
HETATM    7  C   UNL     1      63.246   7.258   2.970  1.00  0.00     0.004 A 
HETATM    8  C   UNL     1      62.610   8.495   2.960  1.00  0.00     0.023 A 
ENDROOT
BRANCH   2   9
HETATM    9  N   UNL     1      65.374   7.543   5.994  1.00  0.00    -0.377 N 
HETATM   10  C   UNL     1      66.765   8.019   6.016  1.00  0.00     0.149 C 
HETATM   11  C   UNL     1      67.735   6.829   5.994  1.00  0.00     0.187 C 
HETATM   12  O   UNL     1      67.455   5.903   7.058  1.00  0.00    -0.388 OA
HETATM   13  C   UNL     1      66.116   5.393   6.936  1.00  0.00     0.187 C 
HETATM   14  C   UNL     1      65.068   6.519   7.007  1.00  0.00     0.149 C 
ENDBRANCH   2   9
TORSDOF 1
ENDMDL
MODEL 2
REMARK VINA RESULT:      -5.0      1.621      2.675
REMARK  1 active torsions:
REMARK  status: ('A' for Active; 'I' for Inactive)
REMARK    1  A    between atoms: N_1  and  C_3 
ROOT
HETATM    1  N   UNL     1      60.781   8.697   0.809  1.00  0.00    -0.191 NA
HETATM    2  C   UNL     1      63.817   8.610   4.601  1.00  0.00     0.031 A 
HETATM    3  C   UNL     1      61.381   8.949   1.770  1.00  0.00     0.099 C 
HETATM    4  C   UNL     1      63.081   8.353   3.437  1.00  0.00     0.052 A 
HETATM    5  C   UNL     1      62.122   9.258   2.957  1.00  0.00     0.046 A 
HETATM    6  C   UNL     1      63.554   9.818   5.266  1.00  0.00     0.029 A 
HETATM    7  C   UNL     1      62.608  10.735   4.793  1.00  0.00     0.004 A 
HETATM    8  C   UNL     1      61.889  10.453   3.637  1.00  0.00     0.023 A 
ENDROOT
BRANCH   2   9
HETATM    9  N   UNL     1      64.766   7.732   5.076  1.00  0.00    -0.377 N 
HETATM   10  C   UNL     1      64.440   6.529   5.856  1.00  0.00     0.149 C 
HETATM   11  C   UNL     1      65.111   6.591   7.235  1.00  0.00     0.187 C 
HETATM   12  O   UNL     1      66.529   6.804   7.122  1.00  0.00    -0.388 OA
HETATM   13  C   UNL     1      66.794   8.040   6.437  1.00  0.00     0.187 C 
HETATM   14  C   UNL     1      66.204   8.043   5.015  1.00  0.00     0.149 C 
ENDBRANCH   2   9
TORSDOF 1
ENDMDL
MODEL 3
REMARK VINA RESULT:      -4.7      3.104      4.043
REMARK  1 active torsions:
REMARK  status: ('A' for Active; 'I' for Inactive)
REMARK    1  A    between atoms: N_1  and  C_3 
ROOT
HETATM    1  N   UNL     1      57.369   7.246   1.279  1.00  0.00    -0.191 NA
HETATM    2  C   UNL     1      61.741   8.291   3.122  1.00  0.00     0.031 A 
HETATM    3  C   UNL     1      58.485   7.530   1.425  1.00  0.00     0.099 C 
HETATM    4  C   UNL     1      60.404   7.939   2.900  1.00  0.00     0.052 A 
HETATM    5  C   UNL     1      59.862   7.881   1.606  1.00  0.00     0.046 A 
HETATM    6  C   UNL     1      62.518   8.582   1.989  1.00  0.00     0.029 A 
HETATM    7  C   UNL     1      61.995   8.519   0.694  1.00  0.00     0.004 A 
HETATM    8  C   UNL     1      60.663   8.170   0.502  1.00  0.00     0.023 A 
ENDROOT
BRANCH   2   9
HETATM    9  N   UNL     1      62.285   8.343   4.387  1.00  0.00    -0.377 N 
HETATM   10  C   UNL     1      63.233   9.379   4.820  1.00  0.00     0.149 C 
HETATM   11  C   UNL     1      64.558   8.739   5.256  1.00  0.00     0.187 C 
HETATM   12  O   UNL     1      64.350   7.730   6.260  1.00  0.00    -0.388 OA
HETATM   13  C   UNL     1      63.494   6.692   5.753  1.00  0.00     0.187 C 
HETATM   14  C   UNL     1      62.114   7.238   5.345  1.00  0.00     0.149 C 
ENDBRANCH   2   9
TORSDOF 1
ENDMDL
MODEL 4
REMARK VINA RESULT:      -4.5      2.578      5.705
REMARK  1 active torsions:
REMARK  status: ('A' for Active; 'I' for Inactive)
REMARK    1  A    between atoms: N_1  and  C_3 
ROOT
HETATM    1  N   UNL     1      66.952   4.189   8.824  1.00  0.00    -0.191 NA
HETATM    2  C   UNL     1      65.034   7.500   5.829  1.00  0.00     0.031 A 
HETATM    3  C   UNL     1      66.784   5.009   8.018  1.00  0.00     0.099 C 
HETATM    4  C   UNL     1      65.284   6.521   6.800  1.00  0.00     0.052 A 
HETATM    5  C   UNL     1      66.575   6.019   7.025  1.00  0.00     0.046 A 
HETATM    6  C   UNL     1      66.136   7.958   5.090  1.00  0.00     0.029 A 
HETATM    7  C   UNL     1      67.430   7.473   5.309  1.00  0.00     0.004 A 
HETATM    8  C   UNL     1      67.650   6.500   6.277  1.00  0.00     0.023 A 
ENDROOT
BRANCH   2   9
HETATM    9  N   UNL     1      63.772   8.005   5.606  1.00  0.00    -0.377 N 
HETATM   10  C   UNL     1      62.537   7.285   5.952  1.00  0.00     0.149 C 
HETATM   11  C   UNL     1      61.686   7.056   4.695  1.00  0.00     0.187 C 
HETATM   12  O   UNL     1      61.427   8.289   4.003  1.00  0.00    -0.388 OA
HETATM   13  C   UNL     1      62.663   8.905   3.602  1.00  0.00     0.187 C 
HETATM   14  C   UNL     1      63.559   9.226   4.812  1.00  0.00     0.149 C 
ENDBRANCH   2   9
TORSDOF 1
ENDMDL
MODEL 5
REMARK VINA RESULT:      -4.4      3.118      5.519
REMARK  1 active torsions:
REMARK  status: ('A' for Active; 'I' for Inactive)
REMARK    1  A    between atoms: N_1  and  C_3 
ROOT
HETATM    1  N   UNL     1      65.573   3.992   1.787  1.00  0.00    -0.191 NA
HETATM    2  C   UNL     1      64.181   7.954   4.230  1.00  0.00     0.031 A 
HETATM    3  C   UNL     1      65.520   4.914   2.491  1.00  0.00     0.099 C 
HETATM    4  C   UNL     1      64.283   6.826   3.406  1.00  0.00     0.052 A 
HETATM    5  C   UNL     1      65.453   6.052   3.358  1.00  0.00     0.046 A 
HETATM    6  C   UNL     1      65.303   8.276   5.009  1.00  0.00     0.029 A 
HETATM    7  C   UNL     1      66.473   7.509   4.979  1.00  0.00     0.004 A 
HETATM    8  C   UNL     1      66.549   6.395   4.150  1.00  0.00     0.023 A 
ENDROOT
BRANCH   2   9
HETATM    9  N   UNL     1      63.034   8.715   4.290  1.00  0.00    -0.377 N 
HETATM   10  C   UNL     1      62.096   8.859   3.167  1.00  0.00     0.149 C 
HETATM   11  C   UNL     1      61.974  10.335   2.762  1.00  0.00     0.187 C 
HETATM   12  O   UNL     1      61.619  11.161   3.884  1.00  0.00    -0.388 OA
HETATM   13  C   UNL     1      62.617  11.059   4.914  1.00  0.00     0.187 C 
HETATM   14  C   UNL     1      62.764   9.614   5.424  1.00  0.00     0.149 C 
ENDBRANCH   2   9
TORSDOF 1
ENDMDL
MODEL 6
REMARK VINA RESULT:      -4.4      3.545      6.062
REMARK  1 active torsions:
REMARK  status: ('A' for Active; 'I' for Inactive)
REMARK    1  A    between atoms: N_1  and  C_3 
ROOT
HETATM    1  N   UNL     1      64.106   7.184   6.877  1.00  0.00    -0.191 NA
HETATM    2  C   UNL     1      61.614   8.942   3.094  1.00  0.00     0.031 A 
HETATM    3  C   UNL     1      63.586   7.872   6.099  1.00  0.00     0.099 C 
HETATM    4  C   UNL     1      62.244   8.150   4.063  1.00  0.00     0.052 A 
HETATM    5  C   UNL     1      62.944   8.718   5.139  1.00  0.00     0.046 A 
HETATM    6  C   UNL     1      61.713  10.334   3.249  1.00  0.00     0.029 A 
HETATM    7  C   UNL     1      62.399  10.914   4.321  1.00  0.00     0.004 A 
HETATM    8  C   UNL     1      63.018  10.105   5.267  1.00  0.00     0.023 A 
ENDROOT
BRANCH   2   9
HETATM    9  N   UNL     1      60.918   8.394   2.040  1.00  0.00    -0.377 N 
HETATM   10  C   UNL     1      59.667   7.638   2.199  1.00  0.00     0.149 C 
HETATM   11  C   UNL     1      59.834   6.212   1.657  1.00  0.00     0.187 C 
HETATM   12  O   UNL     1      60.302   6.217   0.297  1.00  0.00    -0.388 OA
HETATM   13  C   UNL     1      61.574   6.883   0.211  1.00  0.00     0.187 C 
HETATM   14  C   UNL     1      61.486   8.346   0.682  1.00  0.00     0.149 C 
ENDBRANCH   2   9
TORSDOF 1
ENDMDL
MODEL 7
REMARK VINA RESULT:      -4.3      3.530      5.439
REMARK  1 active torsions:
REMARK  status: ('A' for Active; 'I' for Inactive)
REMARK    1  A    between atoms: N_1  and  C_3 
ROOT
HETATM    1  N   UNL     1      63.150  11.229   6.113  1.00  0.00    -0.191 NA
HETATM    2  C   UNL     1      63.094   7.692   2.781  1.00  0.00     0.031 A 
HETATM    3  C   UNL     1      63.374  10.282   5.479  1.00  0.00     0.099 C 
HETATM    4  C   UNL     1      62.867   8.831   3.566  1.00  0.00     0.052 A 
HETATM    5  C   UNL     1      63.649   9.114   4.697  1.00  0.00     0.046 A 
HETATM    6  C   UNL     1      64.142   6.846   3.177  1.00  0.00     0.029 A 
HETATM    7  C   UNL     1      64.935   7.120   4.296  1.00  0.00     0.004 A 
HETATM    8  C   UNL     1      64.687   8.255   5.059  1.00  0.00     0.023 A 
ENDROOT
BRANCH   2   9
HETATM    9  N   UNL     1      62.338   7.410   1.665  1.00  0.00    -0.377 N 
HETATM   10  C   UNL     1      61.785   8.443   0.777  1.00  0.00     0.149 C 
HETATM   11  C   UNL     1      60.254   8.341   0.730  1.00  0.00     0.187 C 
HETATM   12  O   UNL     1      59.826   7.018   0.366  1.00  0.00    -0.388 OA
HETATM   13  C   UNL     1      60.312   6.057   1.319  1.00  0.00     0.187 C 
HETATM   14  C   UNL     1      61.850   6.049   1.388  1.00  0.00     0.149 C 
ENDBRANCH   2   9
TORSDOF 1
ENDMDL
MODEL 8
REMARK VINA RESULT:      -4.1      4.629      6.564
REMARK  1 active torsions:
REMARK  status: ('A' for Active; 'I' for Inactive)
REMARK    1  A    between atoms: N_1  and  C_3 
ROOT
HETATM    1  N   UNL     1      64.089   9.572   5.364  1.00  0.00    -0.191 NA
HETATM    2  C   UNL     1      60.342   7.735   2.876  1.00  0.00     0.031 A 
HETATM    3  C   UNL     1      63.324   9.285   4.539  1.00  0.00     0.099 C 
HETATM    4  C   UNL     1      61.281   8.116   3.843  1.00  0.00     0.052 A 
HETATM    5  C   UNL     1      62.379   8.931   3.523  1.00  0.00     0.046 A 
HETATM    6  C   UNL     1      60.547   8.206   1.569  1.00  0.00     0.029 A 
HETATM    7  C   UNL     1      61.631   9.027   1.238  1.00  0.00     0.004 A 
HETATM    8  C   UNL     1      62.550   9.388   2.217  1.00  0.00     0.023 A 
ENDROOT
BRANCH   2   9
HETATM    9  N   UNL     1      59.257   6.943   3.181  1.00  0.00    -0.377 N 
HETATM   10  C   UNL     1      58.341   6.397   2.169  1.00  0.00     0.149 C 
HETATM   11  C   UNL     1      56.910   6.892   2.424  1.00  0.00     0.187 C 
HETATM   12  O   UNL     1      56.484   6.600   3.766  1.00  0.00    -0.388 OA
HETATM   13  C   UNL     1      57.356   7.236   4.716  1.00  0.00     0.187 C 
HETATM   14  C   UNL     1      58.810   6.751   4.570  1.00  0.00     0.149 C 
ENDBRANCH   2   9
TORSDOF 1
ENDMDL
MODEL 9
REMARK VINA RESULT:      -3.9      4.115      5.096
REMARK  1 active torsions:
REMARK  status: ('A' for Active; 'I' for Inactive)
REMARK    1  A    between atoms: N_1  and  C_3 
ROOT
HETATM    1  N   UNL     1      61.863  10.306   1.685  1.00  0.00    -0.191 NA
HETATM    2  C   UNL     1      61.649   6.972   5.214  1.00  0.00     0.031 A 
HETATM    3  C   UNL     1      62.098   9.602   2.579  1.00  0.00     0.099 C 
HETATM    4  C   UNL     1      61.412   7.829   4.131  1.00  0.00     0.052 A 
HETATM    5  C   UNL     1      62.386   8.733   3.681  1.00  0.00     0.046 A 
HETATM    6  C   UNL     1      62.907   7.057   5.828  1.00  0.00     0.029 A 
HETATM    7  C   UNL     1      63.892   7.947   5.384  1.00  0.00     0.004 A 
HETATM    8  C   UNL     1      63.630   8.789   4.310  1.00  0.00     0.023 A 
ENDROOT
BRANCH   2   9
HETATM    9  N   UNL     1      60.702   6.075   5.658  1.00  0.00    -0.377 N 
HETATM   10  C   UNL     1      59.426   5.834   4.968  1.00  0.00     0.149 C 
HETATM   11  C   UNL     1      58.249   6.157   5.898  1.00  0.00     0.187 C 
HETATM   12  O   UNL     1      58.346   5.437   7.140  1.00  0.00    -0.388 OA
HETATM   13  C   UNL     1      59.565   5.781   7.820  1.00  0.00     0.187 C 
HETATM   14  C   UNL     1      60.807   5.434   6.979  1.00  0.00     0.149 C 
ENDBRANCH   2   9
TORSDOF 1
ENDMDL
