MODEL 1
REMARK VINA RESULT:      -4.9      0.000      0.000
REMARK  2 active torsions:
REMARK  status: ('A' for Active; 'I' for Inactive)
REMARK    1  A    between atoms: C_6  and  C_11 
REMARK    2  A    between atoms: C_11  and  O_12 
ROOT
HETATM    1  N   UNL     1      62.632   8.934   3.047  1.00  0.00    -0.317 N 
HETATM    2  C   UNL     1      62.031   9.711   2.062  1.00  0.00     0.111 A 
HETATM    3  C   UNL     1      62.929   9.398   4.325  1.00  0.00     0.107 A 
HETATM    4  N   UNL     1      61.857   9.025   0.950  1.00  0.00    -0.351 N 
ATOM      5  HN  UNL     1      61.440   9.354   0.080  1.00  0.00     0.166 HD
HETATM    6  C   UNL     1      62.634  10.673   4.655  1.00  0.00    -0.019 A 
HETATM    7  C   UNL     1      61.718  11.055   2.402  1.00  0.00     0.050 A 
HETATM    8  C   UNL     1      62.002  11.517   3.636  1.00  0.00     0.014 A 
HETATM    9  C   UNL     1      62.357   7.777   1.212  1.00  0.00     0.107 A 
HETATM   10  C   UNL     1      62.845   7.696   2.497  1.00  0.00     0.115 A 
ENDROOT
BRANCH   6  11
HETATM   11  C   UNL     1      62.899  11.262   6.009  1.00  0.00     0.204 C 
BRANCH  11  12
HETATM   12  O   UNL     1      64.299  11.378   6.222  1.00  0.00    -0.396 OA
HETATM   13  H   UNL     1      64.508  11.139   7.139  1.00  0.00     0.209 HD
ENDBRANCH  11  12
ENDBRANCH   6  11
TORSDOF 2
ENDMDL
MODEL 2
REMARK VINA RESULT:      -4.7      0.992      1.960
REMARK  2 active torsions:
REMARK  status: ('A' for Active; 'I' for Inactive)
REMARK    1  A    between atoms: C_6  and  C_11 
REMARK    2  A    between atoms: C_11  and  O_12 
ROOT
HETATM    1  N   UNL     1      62.211   9.463   2.720  1.00  0.00    -0.317 N 
HETATM    2  C   UNL     1      62.940   8.282   2.814  1.00  0.00     0.111 A 
HETATM    3  C   UNL     1      62.207  10.450   3.702  1.00  0.00     0.107 A 
HETATM    4  N   UNL     1      62.771   7.528   1.747  1.00  0.00    -0.351 N 
ATOM      5  HN  UNL     1      63.191   6.618   1.561  1.00  0.00     0.166 HD
HETATM    6  C   UNL     1      62.938  10.277   4.823  1.00  0.00    -0.019 A 
HETATM    7  C   UNL     1      63.712   8.092   3.993  1.00  0.00     0.050 A 
HETATM    8  C   UNL     1      63.715   9.040   4.951  1.00  0.00     0.014 A 
HETATM    9  C   UNL     1      61.913   8.228   0.941  1.00  0.00     0.107 A 
HETATM   10  C   UNL     1      61.549   9.423   1.520  1.00  0.00     0.115 A 
ENDROOT
BRANCH   6  11
HETATM   11  C   UNL     1      63.012  11.288   5.929  1.00  0.00     0.204 C 
BRANCH  11  12
HETATM   12  O   UNL     1      64.349  11.400   6.396  1.00  0.00    -0.396 OA
HETATM   13  H   UNL     1      64.348  11.506   7.361  1.00  0.00     0.209 HD
ENDBRANCH  11  12
ENDBRANCH   6  11
TORSDOF 2
ENDMDL
MODEL 3
REMARK VINA RESULT:      -4.6      1.599      2.069
REMARK  2 active torsions:
REMARK  status: ('A' for Active; 'I' for Inactive)
REMARK    1  A    between atoms: C_6  and  C_11 
REMARK    2  A    between atoms: C_11  and  O_12 
ROOT
HETATM    1  N   UNL     1      64.096   8.021   4.157  1.00  0.00    -0.317 N 
HETATM    2  C   UNL     1      63.175   7.914   3.121  1.00  0.00     0.111 A 
HETATM    3  C   UNL     1      64.111   9.067   5.076  1.00  0.00     0.107 A 
HETATM    4  N   UNL     1      63.382   6.827   2.406  1.00  0.00    -0.351 N 
ATOM      5  HN  UNL     1      62.851   6.511   1.594  1.00  0.00     0.166 HD
HETATM    6  C   UNL     1      63.193  10.052   4.977  1.00  0.00    -0.019 A 
HETATM    7  C   UNL     1      62.206   8.949   3.010  1.00  0.00     0.050 A 
HETATM    8  C   UNL     1      62.210   9.968   3.892  1.00  0.00     0.014 A 
HETATM    9  C   UNL     1      64.462   6.214   2.984  1.00  0.00     0.107 A 
HETATM   10  C   UNL     1      64.924   6.931   4.064  1.00  0.00     0.115 A 
ENDROOT
BRANCH   6  11
HETATM   11  C   UNL     1      63.116  11.212   5.926  1.00  0.00     0.204 C 
BRANCH  11  12
HETATM   12  O   UNL     1      64.403  11.490   6.459  1.00  0.00    -0.396 OA
HETATM   13  H   UNL     1      64.668  10.775   7.057  1.00  0.00     0.209 HD
ENDBRANCH  11  12
ENDBRANCH   6  11
TORSDOF 2
ENDMDL
MODEL 4
REMARK VINA RESULT:      -4.4      2.311      3.538
REMARK  2 active torsions:
REMARK  status: ('A' for Active; 'I' for Inactive)
REMARK    1  A    between atoms: C_6  and  C_11 
REMARK    2  A    between atoms: C_11  and  O_12 
ROOT
HETATM    1  N   UNL     1      62.896   8.078   4.186  1.00  0.00    -0.317 N 
HETATM    2  C   UNL     1      63.077   8.766   5.380  1.00  0.00     0.111 A 
HETATM    3  C   UNL     1      62.467   8.676   3.004  1.00  0.00     0.107 A 
HETATM    4  N   UNL     1      63.494   7.963   6.338  1.00  0.00    -0.351 N 
ATOM      5  HN  UNL     1      63.704   8.211   7.305  1.00  0.00     0.166 HD
HETATM    6  C   UNL     1      62.199   9.999   2.988  1.00  0.00    -0.019 A 
HETATM    7  C   UNL     1      62.795  10.160   5.371  1.00  0.00     0.050 A 
HETATM    8  C   UNL     1      62.378  10.751   4.234  1.00  0.00     0.014 A 
HETATM    9  C   UNL     1      63.583   6.725   5.760  1.00  0.00     0.107 A 
HETATM   10  C   UNL     1      63.216   6.767   4.433  1.00  0.00     0.115 A 
ENDROOT
BRANCH   6  11
HETATM   11  C   UNL     1      61.748  10.738   1.763  1.00  0.00     0.204 C 
BRANCH  11  12
HETATM   12  O   UNL     1      62.095  12.112   1.870  1.00  0.00    -0.396 OA
HETATM   13  H   UNL     1      61.452  12.647   1.378  1.00  0.00     0.209 HD
ENDBRANCH  11  12
ENDBRANCH   6  11
TORSDOF 2
ENDMDL
MODEL 5
REMARK VINA RESULT:      -4.4      1.577      2.185
REMARK  2 active torsions:
REMARK  status: ('A' for Active; 'I' for Inactive)
REMARK    1  A    between atoms: C_6  and  C_11 
REMARK    2  A    between atoms: C_11  and  O_12 
ROOT
HETATM    1  N   UNL     1      62.768   8.551   2.737  1.00  0.00    -0.317 N 
HETATM    2  C   UNL     1      62.058   9.701   3.062  1.00  0.00     0.111 A 
HETATM    3  C   UNL     1      63.724   7.971   3.567  1.00  0.00     0.107 A 
HETATM    4  N   UNL     1      61.213  10.029   2.106  1.00  0.00    -0.351 N 
ATOM      5  HN  UNL     1      60.573  10.823   2.091  1.00  0.00     0.166 HD
HETATM    6  C   UNL     1      64.003   8.539   4.759  1.00  0.00    -0.019 A 
HETATM    7  C   UNL     1      62.347  10.306   4.316  1.00  0.00     0.050 A 
HETATM    8  C   UNL     1      63.271   9.756   5.128  1.00  0.00     0.014 A 
HETATM    9  C   UNL     1      61.377   9.076   1.135  1.00  0.00     0.107 A 
HETATM   10  C   UNL     1      62.334   8.155   1.498  1.00  0.00     0.115 A 
ENDROOT
BRANCH   6  11
HETATM   11  C   UNL     1      65.004   7.983   5.729  1.00  0.00     0.204 C 
BRANCH  11  12
HETATM   12  O   UNL     1      65.824   9.028   6.234  1.00  0.00    -0.396 OA
HETATM   13  H   UNL     1      66.619   9.110   5.684  1.00  0.00     0.209 HD
ENDBRANCH  11  12
ENDBRANCH   6  11
TORSDOF 2
ENDMDL
MODEL 6
REMARK VINA RESULT:      -4.3      2.655      4.175
REMARK  2 active torsions:
REMARK  status: ('A' for Active; 'I' for Inactive)
REMARK    1  A    between atoms: C_6  and  C_11 
REMARK    2  A    between atoms: C_11  and  O_12 
ROOT
HETATM    1  N   UNL     1      62.745   9.624   3.948  1.00  0.00    -0.317 N 
HETATM    2  C   UNL     1      62.263  10.903   3.692  1.00  0.00     0.111 A 
HETATM    3  C   UNL     1      62.759   8.599   3.006  1.00  0.00     0.107 A 
HETATM    4  N   UNL     1      62.373  11.678   4.751  1.00  0.00    -0.351 N 
ATOM      5  HN  UNL     1      62.099  12.657   4.833  1.00  0.00     0.166 HD
HETATM    6  C   UNL     1      62.278   8.828   1.766  1.00  0.00    -0.019 A 
HETATM    7  C   UNL     1      61.754  11.152   2.387  1.00  0.00     0.050 A 
HETATM    8  C   UNL     1      61.761  10.168   1.467  1.00  0.00     0.014 A 
HETATM    9  C   UNL     1      62.935  10.890   5.720  1.00  0.00     0.107 A 
HETATM   10  C   UNL     1      63.170   9.617   5.252  1.00  0.00     0.115 A 
ENDROOT
BRANCH   6  11
HETATM   11  C   UNL     1      62.264   7.795   0.678  1.00  0.00     0.204 C 
BRANCH  11  12
HETATM   12  O   UNL     1      60.926   7.414   0.388  1.00  0.00    -0.396 OA
HETATM   13  H   UNL     1      60.335   8.169   0.534  1.00  0.00     0.209 HD
ENDBRANCH  11  12
ENDBRANCH   6  11
TORSDOF 2
ENDMDL
MODEL 7
REMARK VINA RESULT:      -4.1      1.790      3.177
REMARK  2 active torsions:
REMARK  status: ('A' for Active; 'I' for Inactive)
REMARK    1  A    between atoms: C_6  and  C_11 
REMARK    2  A    between atoms: C_11  and  O_12 
ROOT
HETATM    1  N   UNL     1      62.420   9.876   3.901  1.00  0.00    -0.317 N 
HETATM    2  C   UNL     1      62.259   9.458   2.584  1.00  0.00     0.111 A 
HETATM    3  C   UNL     1      62.869   9.048   4.926  1.00  0.00     0.107 A 
HETATM    4  N   UNL     1      61.829  10.441   1.819  1.00  0.00    -0.351 N 
ATOM      5  HN  UNL     1      61.632  10.405   0.819  1.00  0.00     0.166 HD
HETATM    6  C   UNL     1      63.168   7.759   4.658  1.00  0.00    -0.019 A 
HETATM    7  C   UNL     1      62.571   8.101   2.295  1.00  0.00     0.050 A 
HETATM    8  C   UNL     1      63.005   7.289   3.278  1.00  0.00     0.014 A 
HETATM    9  C   UNL     1      61.703  11.521   2.652  1.00  0.00     0.107 A 
HETATM   10  C   UNL     1      62.058  11.198   3.943  1.00  0.00     0.115 A 
ENDROOT
BRANCH   6  11
HETATM   11  C   UNL     1      63.673   6.793   5.689  1.00  0.00     0.204 C 
BRANCH  11  12
HETATM   12  O   UNL     1      63.769   7.437   6.952  1.00  0.00    -0.396 OA
HETATM   13  H   UNL     1      62.915   7.837   7.178  1.00  0.00     0.209 HD
ENDBRANCH  11  12
ENDBRANCH   6  11
TORSDOF 2
ENDMDL
MODEL 8
REMARK VINA RESULT:      -4.0      2.664      4.183
REMARK  2 active torsions:
REMARK  status: ('A' for Active; 'I' for Inactive)
REMARK    1  A    between atoms: C_6  and  C_11 
REMARK    2  A    between atoms: C_11  and  O_12 
ROOT
HETATM    1  N   UNL     1      62.525   9.355   3.303  1.00  0.00    -0.317 N 
HETATM    2  C   UNL     1      61.960   9.990   2.202  1.00  0.00     0.111 A 
HETATM    3  C   UNL     1      63.024   8.055   3.276  1.00  0.00     0.107 A 
HETATM    4  N   UNL     1      61.577  11.214   2.499  1.00  0.00    -0.351 N 
ATOM      5  HN  UNL     1      61.137  11.893   1.877  1.00  0.00     0.166 HD
HETATM    6  C   UNL     1      62.965   7.344   2.131  1.00  0.00    -0.019 A 
HETATM    7  C   UNL     1      61.894   9.246   0.992  1.00  0.00     0.050 A 
HETATM    8  C   UNL     1      62.372   7.986   0.953  1.00  0.00     0.014 A 
HETATM    9  C   UNL     1      61.893  11.382   3.821  1.00  0.00     0.107 A 
HETATM   10  C   UNL     1      62.476  10.249   4.342  1.00  0.00     0.115 A 
ENDROOT
BRANCH   6  11
HETATM   11  C   UNL     1      63.489   5.944   1.996  1.00  0.00     0.204 C 
BRANCH  11  12
HETATM   12  O   UNL     1      63.737   5.648   0.629  1.00  0.00    -0.396 OA
HETATM   13  H   UNL     1      63.665   4.692   0.486  1.00  0.00     0.209 HD
ENDBRANCH  11  12
ENDBRANCH   6  11
TORSDOF 2
ENDMDL
MODEL 9
REMARK VINA RESULT:      -3.9      7.045      8.166
REMARK  2 active torsions:
REMARK  status: ('A' for Active; 'I' for Inactive)
REMARK    1  A    between atoms: C_6  and  C_11 
REMARK    2  A    between atoms: C_11  and  O_12 
ROOT
HETATM    1  N   UNL     1      67.659   4.486   7.104  1.00  0.00    -0.317 N 
HETATM    2  C   UNL     1      67.242   4.523   8.430  1.00  0.00     0.111 A 
HETATM    3  C   UNL     1      67.631   5.586   6.252  1.00  0.00     0.107 A 
HETATM    4  N   UNL     1      67.382   3.349   9.010  1.00  0.00    -0.351 N 
ATOM      5  HN  UNL     1      67.155   3.104   9.974  1.00  0.00     0.166 HD
HETATM    6  C   UNL     1      67.170   6.770   6.709  1.00  0.00    -0.019 A 
HETATM    7  C   UNL     1      66.755   5.767   8.919  1.00  0.00     0.050 A 
HETATM    8  C   UNL     1      66.720   6.839   8.103  1.00  0.00     0.014 A 
HETATM    9  C   UNL     1      67.898   2.527   8.044  1.00  0.00     0.107 A 
HETATM   10  C   UNL     1      68.075   3.202   6.858  1.00  0.00     0.115 A 
ENDROOT
BRANCH   6  11
HETATM   11  C   UNL     1      67.114   8.016   5.875  1.00  0.00     0.204 C 
BRANCH  11  12
HETATM   12  O   UNL     1      66.072   8.864   6.339  1.00  0.00    -0.396 OA
HETATM   13  H   UNL     1      66.177   9.747   5.951  1.00  0.00     0.209 HD
ENDBRANCH  11  12
ENDBRANCH   6  11
TORSDOF 2
ENDMDL
