MODEL 1
REMARK VINA RESULT:      -5.0      0.000      0.000
REMARK  1 active torsions:
REMARK  status: ('A' for Active; 'I' for Inactive)
REMARK    1  A    between atoms: C_1  and  C_5 
ROOT
HETATM    1  N   UNL     1      65.832   4.805   7.956  1.00  0.00    -0.191 NA
HETATM    2  C   UNL     1      65.317   5.631   7.322  1.00  0.00     0.099 C 
HETATM    3  C   UNL     1      63.441   8.561   4.875  1.00  0.00    -0.002 A 
HETATM    4  C   UNL     1      64.830   8.575   5.081  1.00  0.00     0.016 A 
HETATM    5  C   UNL     1      62.681   7.590   5.546  1.00  0.00     0.016 A 
HETATM    6  C   UNL     1      64.682   6.640   6.528  1.00  0.00     0.044 A 
HETATM    7  C   UNL     1      63.295   6.634   6.363  1.00  0.00     0.023 A 
HETATM    8  C   UNL     1      65.448   7.623   5.897  1.00  0.00     0.023 A 
ENDROOT
BRANCH   3   9
HETATM    9  C   UNL     1      62.802   9.499   3.956  1.00  0.00     0.085 A 
HETATM   10  O   UNL     1      62.622   9.064   2.672  1.00  0.00    -0.322 OA
HETATM   11  C   UNL     1      61.971  10.044   1.996  1.00  0.00     0.142 A 
HETATM   12  C   UNL     1      61.731  11.116   2.820  1.00  0.00     0.027 A 
HETATM   13  C   UNL     1      62.272  10.770   4.082  1.00  0.00     0.040 A 
ENDBRANCH   3   9
TORSDOF 1
ENDMDL
MODEL 2
REMARK VINA RESULT:      -4.9      0.877      1.750
REMARK  1 active torsions:
REMARK  status: ('A' for Active; 'I' for Inactive)
REMARK    1  A    between atoms: C_1  and  C_5 
ROOT
HETATM    1  N   UNL     1      66.309   5.037   8.454  1.00  0.00    -0.191 NA
HETATM    2  C   UNL     1      65.753   5.689   7.669  1.00  0.00     0.099 C 
HETATM    3  C   UNL     1      63.678   8.172   4.910  1.00  0.00    -0.002 A 
HETATM    4  C   UNL     1      63.040   7.078   5.515  1.00  0.00     0.016 A 
HETATM    5  C   UNL     1      65.035   8.390   5.193  1.00  0.00     0.016 A 
HETATM    6  C   UNL     1      65.064   6.502   6.712  1.00  0.00     0.044 A 
HETATM    7  C   UNL     1      65.724   7.565   6.090  1.00  0.00     0.023 A 
HETATM    8  C   UNL     1      63.724   6.250   6.411  1.00  0.00     0.023 A 
ENDROOT
BRANCH   3   9
HETATM    9  C   UNL     1      62.944   9.090   4.041  1.00  0.00     0.085 A 
HETATM   10  O   UNL     1      62.621  10.306   4.578  1.00  0.00    -0.322 OA
HETATM   11  C   UNL     1      62.001  11.027   3.610  1.00  0.00     0.142 A 
HETATM   12  C   UNL     1      61.907  10.295   2.452  1.00  0.00     0.027 A 
HETATM   13  C   UNL     1      62.509   9.043   2.730  1.00  0.00     0.040 A 
ENDBRANCH   3   9
TORSDOF 1
ENDMDL
MODEL 3
REMARK VINA RESULT:      -4.8      3.404      5.786
REMARK  1 active torsions:
REMARK  status: ('A' for Active; 'I' for Inactive)
REMARK    1  A    between atoms: C_1  and  C_5 
ROOT
HETATM    1  N   UNL     1      61.314  12.433   1.701  1.00  0.00    -0.191 NA
HETATM    2  C   UNL     1      61.699  11.565   2.372  1.00  0.00     0.099 C 
HETATM    3  C   UNL     1      63.256   8.437   4.796  1.00  0.00    -0.002 A 
HETATM    4  C   UNL     1      62.956   8.219   3.442  1.00  0.00     0.016 A 
HETATM    5  C   UNL     1      62.973   9.698   5.343  1.00  0.00     0.016 A 
HETATM    6  C   UNL     1      62.189  10.501   3.197  1.00  0.00     0.044 A 
HETATM    7  C   UNL     1      62.448  10.725   4.551  1.00  0.00     0.023 A 
HETATM    8  C   UNL     1      62.430   9.241   2.646  1.00  0.00     0.023 A 
ENDROOT
BRANCH   3   9
HETATM    9  C   UNL     1      63.887   7.399   5.609  1.00  0.00     0.085 A 
HETATM   10  O   UNL     1      65.001   7.770   6.310  1.00  0.00    -0.322 OA
HETATM   11  C   UNL     1      65.402   6.697   7.037  1.00  0.00     0.142 A 
HETATM   12  C   UNL     1      64.568   5.629   6.814  1.00  0.00     0.027 A 
HETATM   13  C   UNL     1      63.595   6.077   5.889  1.00  0.00     0.040 A 
ENDBRANCH   3   9
TORSDOF 1
ENDMDL
MODEL 4
REMARK VINA RESULT:      -4.7      2.178      2.964
REMARK  1 active torsions:
REMARK  status: ('A' for Active; 'I' for Inactive)
REMARK    1  A    between atoms: C_1  and  C_5 
ROOT
HETATM    1  N   UNL     1      66.578   8.294   6.890  1.00  0.00    -0.191 NA
HETATM    2  C   UNL     1      65.761   8.291   6.064  1.00  0.00     0.099 C 
HETATM    3  C   UNL     1      62.674   8.199   3.139  1.00  0.00    -0.002 A 
HETATM    4  C   UNL     1      63.665   7.205   3.173  1.00  0.00     0.016 A 
HETATM    5  C   UNL     1      62.763   9.256   4.058  1.00  0.00     0.016 A 
HETATM    6  C   UNL     1      64.743   8.279   5.056  1.00  0.00     0.044 A 
HETATM    7  C   UNL     1      63.786   9.296   5.013  1.00  0.00     0.023 A 
HETATM    8  C   UNL     1      64.690   7.241   4.124  1.00  0.00     0.023 A 
ENDROOT
BRANCH   3   9
HETATM    9  C   UNL     1      61.553   8.120   2.205  1.00  0.00     0.085 A 
HETATM   10  O   UNL     1      60.455   7.424   2.632  1.00  0.00    -0.322 OA
HETATM   11  C   UNL     1      59.514   7.512   1.658  1.00  0.00     0.142 A 
HETATM   12  C   UNL     1      59.986   8.248   0.600  1.00  0.00     0.027 A 
HETATM   13  C   UNL     1      61.303   8.636   0.947  1.00  0.00     0.040 A 
ENDBRANCH   3   9
TORSDOF 1
ENDMDL
MODEL 5
REMARK VINA RESULT:      -4.7      3.307      5.586
REMARK  1 active torsions:
REMARK  status: ('A' for Active; 'I' for Inactive)
REMARK    1  A    between atoms: C_1  and  C_5 
ROOT
HETATM    1  N   UNL     1      60.987   8.774   1.037  1.00  0.00    -0.191 NA
HETATM    2  C   UNL     1      61.782   8.597   1.866  1.00  0.00     0.099 C 
HETATM    3  C   UNL     1      64.585   7.857   4.977  1.00  0.00    -0.002 A 
HETATM    4  C   UNL     1      63.763   8.995   5.003  1.00  0.00     0.016 A 
HETATM    5  C   UNL     1      64.500   7.002   3.869  1.00  0.00     0.016 A 
HETATM    6  C   UNL     1      62.751   8.368   2.895  1.00  0.00     0.044 A 
HETATM    7  C   UNL     1      63.588   7.251   2.836  1.00  0.00     0.023 A 
HETATM    8  C   UNL     1      62.852   9.249   3.974  1.00  0.00     0.023 A 
ENDROOT
BRANCH   3   9
HETATM    9  C   UNL     1      65.477   7.542   6.091  1.00  0.00     0.085 A 
HETATM   10  O   UNL     1      64.905   6.932   7.173  1.00  0.00    -0.322 OA
HETATM   11  C   UNL     1      65.893   6.674   8.066  1.00  0.00     0.142 A 
HETATM   12  C   UNL     1      67.101   7.115   7.585  1.00  0.00     0.027 A 
HETATM   13  C   UNL     1      66.834   7.682   6.315  1.00  0.00     0.040 A 
ENDBRANCH   3   9
TORSDOF 1
ENDMDL
MODEL 6
REMARK VINA RESULT:      -4.6      3.375      5.718
REMARK  1 active torsions:
REMARK  status: ('A' for Active; 'I' for Inactive)
REMARK    1  A    between atoms: C_1  and  C_5 
ROOT
HETATM    1  N   UNL     1      61.310   9.118   1.062  1.00  0.00    -0.191 NA
HETATM    2  C   UNL     1      62.019   8.753   1.907  1.00  0.00     0.099 C 
HETATM    3  C   UNL     1      64.737   7.489   4.925  1.00  0.00    -0.002 A 
HETATM    4  C   UNL     1      64.464   6.675   3.814  1.00  0.00     0.016 A 
HETATM    5  C   UNL     1      64.044   8.704   5.043  1.00  0.00     0.016 A 
HETATM    6  C   UNL     1      62.906   8.310   2.941  1.00  0.00     0.044 A 
HETATM    7  C   UNL     1      63.139   9.116   4.058  1.00  0.00     0.023 A 
HETATM    8  C   UNL     1      63.559   7.081   2.828  1.00  0.00     0.023 A 
ENDROOT
BRANCH   3   9
HETATM    9  C   UNL     1      65.744   7.109   5.913  1.00  0.00     0.085 A 
HETATM   10  O   UNL     1      65.377   7.213   7.226  1.00  0.00    -0.322 OA
HETATM   11  C   UNL     1      66.416   6.768   7.977  1.00  0.00     0.142 A 
HETATM   12  C   UNL     1      67.458   6.381   7.171  1.00  0.00     0.027 A 
HETATM   13  C   UNL     1      67.031   6.607   5.840  1.00  0.00     0.040 A 
ENDBRANCH   3   9
TORSDOF 1
ENDMDL
MODEL 7
REMARK VINA RESULT:      -4.2      2.642      3.196
REMARK  1 active torsions:
REMARK  status: ('A' for Active; 'I' for Inactive)
REMARK    1  A    between atoms: C_1  and  C_5 
ROOT
HETATM    1  N   UNL     1      67.608   3.539   3.435  1.00  0.00    -0.191 NA
HETATM    2  C   UNL     1      66.971   4.501   3.571  1.00  0.00     0.099 C 
HETATM    3  C   UNL     1      64.578   7.960   4.201  1.00  0.00    -0.002 A 
HETATM    4  C   UNL     1      64.119   6.902   3.401  1.00  0.00     0.016 A 
HETATM    5  C   UNL     1      65.871   7.873   4.738  1.00  0.00     0.016 A 
HETATM    6  C   UNL     1      66.180   5.681   3.752  1.00  0.00     0.044 A 
HETATM    7  C   UNL     1      66.666   6.741   4.520  1.00  0.00     0.023 A 
HETATM    8  C   UNL     1      64.909   5.770   3.179  1.00  0.00     0.023 A 
ENDROOT
BRANCH   3   9
HETATM    9  C   UNL     1      63.723   9.105   4.506  1.00  0.00     0.085 A 
HETATM   10  O   UNL     1      64.041   9.818   5.629  1.00  0.00    -0.322 OA
HETATM   11  C   UNL     1      63.176  10.861   5.708  1.00  0.00     0.142 A 
HETATM   12  C   UNL     1      62.294  10.833   4.657  1.00  0.00     0.027 A 
HETATM   13  C   UNL     1      62.640   9.698   3.884  1.00  0.00     0.040 A 
ENDBRANCH   3   9
TORSDOF 1
ENDMDL
MODEL 8
REMARK VINA RESULT:      -4.2     11.088     12.518
REMARK  1 active torsions:
REMARK  status: ('A' for Active; 'I' for Inactive)
REMARK    1  A    between atoms: C_1  and  C_5 
ROOT
HETATM    1  N   UNL     1      61.769  -0.421  12.436  1.00  0.00    -0.191 NA
HETATM    2  C   UNL     1      60.754   0.097  12.662  1.00  0.00     0.099 C 
HETATM    3  C   UNL     1      56.966   1.888  13.393  1.00  0.00    -0.002 A 
HETATM    4  C   UNL     1      57.810   2.373  12.382  1.00  0.00     0.016 A 
HETATM    5  C   UNL     1      57.430   0.834  14.195  1.00  0.00     0.016 A 
HETATM    6  C   UNL     1      59.494   0.724  12.932  1.00  0.00     0.044 A 
HETATM    7  C   UNL     1      58.682   0.252  13.966  1.00  0.00     0.023 A 
HETATM    8  C   UNL     1      59.062   1.797  12.149  1.00  0.00     0.023 A 
ENDROOT
BRANCH   3   9
HETATM    9  C   UNL     1      55.622   2.430  13.583  1.00  0.00     0.085 A 
HETATM   10  O   UNL     1      55.324   3.571  12.890  1.00  0.00    -0.322 OA
HETATM   11  C   UNL     1      54.030   3.881  13.153  1.00  0.00     0.142 A 
HETATM   12  C   UNL     1      53.482   2.962  14.014  1.00  0.00     0.027 A 
HETATM   13  C   UNL     1      54.508   2.029  14.298  1.00  0.00     0.040 A 
ENDBRANCH   3   9
TORSDOF 1
ENDMDL
MODEL 9
REMARK VINA RESULT:      -4.1      3.081      3.792
REMARK  1 active torsions:
REMARK  status: ('A' for Active; 'I' for Inactive)
REMARK    1  A    between atoms: C_1  and  C_5 
ROOT
HETATM    1  N   UNL     1      65.945   8.601   6.057  1.00  0.00    -0.191 NA
HETATM    2  C   UNL     1      64.908   8.388   5.579  1.00  0.00     0.099 C 
HETATM    3  C   UNL     1      61.047   7.718   3.925  1.00  0.00    -0.002 A 
HETATM    4  C   UNL     1      61.518   6.941   4.995  1.00  0.00     0.016 A 
HETATM    5  C   UNL     1      61.907   8.683   3.377  1.00  0.00     0.016 A 
HETATM    6  C   UNL     1      63.622   8.137   4.999  1.00  0.00     0.044 A 
HETATM    7  C   UNL     1      63.183   8.895   3.911  1.00  0.00     0.023 A 
HETATM    8  C   UNL     1      62.792   7.148   5.531  1.00  0.00     0.023 A 
ENDROOT
BRANCH   3   9
HETATM    9  C   UNL     1      59.685   7.564   3.419  1.00  0.00     0.085 A 
HETATM   10  O   UNL     1      59.514   7.741   2.073  1.00  0.00    -0.322 OA
HETATM   11  C   UNL     1      58.207   7.504   1.794  1.00  0.00     0.142 A 
HETATM   12  C   UNL     1      57.523   7.183   2.940  1.00  0.00     0.027 A 
HETATM   13  C   UNL     1      58.472   7.228   3.990  1.00  0.00     0.040 A 
ENDBRANCH   3   9
TORSDOF 1
ENDMDL
