MODEL 1
REMARK VINA RESULT:      -5.3      0.000      0.000
REMARK  3 active torsions:
REMARK  status: ('A' for Active; 'I' for Inactive)
REMARK    1  A    between atoms: N_1  and  C_2 
REMARK    2  A    between atoms: C_3  and  C_9 
REMARK    3  A    between atoms: N_8  and  C_9 
ROOT
HETATM    1  C   UNL     1      62.846   9.275   3.975  1.00  0.00     0.046 A 
HETATM    2  C   UNL     1      62.460  10.595   4.330  1.00  0.00    -0.006 A 
HETATM    3  C   UNL     1      62.628   8.818   2.657  1.00  0.00     0.030 A 
HETATM    4  C   UNL     1      61.929  11.417   3.309  1.00  0.00     0.011 A 
HETATM    5  C   UNL     1      62.079   9.650   1.683  1.00  0.00     0.002 A 
HETATM    6  C   UNL     1      61.737  10.952   2.008  1.00  0.00     0.001 A 
ENDROOT
BRANCH   1   7
HETATM    7  N   UNL     1      63.453   8.355   4.889  1.00  0.00    -0.332 N 
HETATM    8  C   UNL     1      64.817   8.180   5.074  1.00  0.00     0.096 A 
HETATM    9  C   UNL     1      65.032   7.174   5.991  1.00  0.00     0.019 A 
HETATM   10  C   UNL     1      63.767   6.747   6.438  1.00  0.00     0.019 A 
HETATM   11  C   UNL     1      62.825   7.515   5.790  1.00  0.00     0.096 A 
ENDBRANCH   1   7
BRANCH   2  12
HETATM   12  C   UNL     1      62.579  11.155   5.737  1.00  0.00     0.270 C 
BRANCH  12  13
HETATM   13  N   UNL     1      63.942  11.472   6.171  1.00  0.00    -0.075 N 
HETATM   14  H   UNL     1      63.938  11.703   7.164  1.00  0.00     0.274 HD
HETATM   15  H   UNL     1      64.293  12.267   5.638  1.00  0.00     0.274 HD
HETATM   16  H   UNL     1      64.545  10.665   6.014  1.00  0.00     0.274 HD
ENDBRANCH  12  13
ENDBRANCH   2  12
TORSDOF 3
ENDMDL
MODEL 2
REMARK VINA RESULT:      -4.6      1.489      2.899
REMARK  3 active torsions:
REMARK  status: ('A' for Active; 'I' for Inactive)
REMARK    1  A    between atoms: N_1  and  C_2 
REMARK    2  A    between atoms: C_3  and  C_9 
REMARK    3  A    between atoms: N_8  and  C_9 
ROOT
HETATM    1  C   UNL     1      62.479   9.194   3.796  1.00  0.00     0.046 A 
HETATM    2  C   UNL     1      62.382   8.913   2.407  1.00  0.00    -0.006 A 
HETATM    3  C   UNL     1      62.252  10.510   4.256  1.00  0.00     0.030 A 
HETATM    4  C   UNL     1      61.993   9.970   1.552  1.00  0.00     0.011 A 
HETATM    5  C   UNL     1      61.893  11.532   3.379  1.00  0.00     0.002 A 
HETATM    6  C   UNL     1      61.756  11.260   2.028  1.00  0.00     0.001 A 
ENDROOT
BRANCH   1   7
HETATM    7  N   UNL     1      62.803   8.208   4.782  1.00  0.00    -0.332 N 
HETATM    8  C   UNL     1      64.047   8.028   5.368  1.00  0.00     0.096 A 
HETATM    9  C   UNL     1      63.999   6.954   6.230  1.00  0.00     0.019 A 
HETATM   10  C   UNL     1      62.673   6.483   6.228  1.00  0.00     0.019 A 
HETATM   11  C   UNL     1      61.953   7.294   5.378  1.00  0.00     0.096 A 
ENDBRANCH   1   7
BRANCH   2  12
HETATM   12  C   UNL     1      62.684   7.553   1.802  1.00  0.00     0.270 C 
BRANCH  12  13
HETATM   13  N   UNL     1      62.462   7.448   0.357  1.00  0.00    -0.075 N 
HETATM   14  H   UNL     1      62.324   8.379  -0.034  1.00  0.00     0.274 HD
HETATM   15  H   UNL     1      61.635   6.878   0.181  1.00  0.00     0.274 HD
HETATM   16  H   UNL     1      63.274   7.013  -0.081  1.00  0.00     0.274 HD
ENDBRANCH  12  13
ENDBRANCH   2  12
TORSDOF 3
ENDMDL
MODEL 3
REMARK VINA RESULT:      -4.5      1.298      1.996
REMARK  3 active torsions:
REMARK  status: ('A' for Active; 'I' for Inactive)
REMARK    1  A    between atoms: N_1  and  C_2 
REMARK    2  A    between atoms: C_3  and  C_9 
REMARK    3  A    between atoms: N_8  and  C_9 
ROOT
HETATM    1  C   UNL     1      63.755   8.076   4.215  1.00  0.00     0.046 A 
HETATM    2  C   UNL     1      63.019   9.291   4.216  1.00  0.00    -0.006 A 
HETATM    3  C   UNL     1      63.639   7.192   3.120  1.00  0.00     0.030 A 
HETATM    4  C   UNL     1      62.245   9.585   3.069  1.00  0.00     0.011 A 
HETATM    5  C   UNL     1      62.846   7.506   2.017  1.00  0.00     0.002 A 
HETATM    6  C   UNL     1      62.156   8.706   1.989  1.00  0.00     0.001 A 
ENDROOT
BRANCH   1   7
HETATM    7  N   UNL     1      64.627   7.679   5.280  1.00  0.00    -0.332 N 
HETATM    8  C   UNL     1      64.284   6.852   6.340  1.00  0.00     0.096 A 
HETATM    9  C   UNL     1      65.357   6.734   7.197  1.00  0.00     0.019 A 
HETATM   10  C   UNL     1      66.420   7.460   6.629  1.00  0.00     0.019 A 
HETATM   11  C   UNL     1      65.967   7.984   5.438  1.00  0.00     0.096 A 
ENDBRANCH   1   7
BRANCH   2  12
HETATM   12  C   UNL     1      63.013  10.270   5.377  1.00  0.00     0.270 C 
BRANCH  12  13
HETATM   13  N   UNL     1      62.531  11.616   5.057  1.00  0.00    -0.075 N 
HETATM   14  H   UNL     1      61.663  11.549   4.525  1.00  0.00     0.274 HD
HETATM   15  H   UNL     1      63.232  12.106   4.502  1.00  0.00     0.274 HD
HETATM   16  H   UNL     1      62.360  12.130   5.921  1.00  0.00     0.274 HD
ENDBRANCH  12  13
ENDBRANCH   2  12
TORSDOF 3
ENDMDL
MODEL 4
REMARK VINA RESULT:      -4.4      1.554      4.451
REMARK  3 active torsions:
REMARK  status: ('A' for Active; 'I' for Inactive)
REMARK    1  A    between atoms: N_1  and  C_2 
REMARK    2  A    between atoms: C_3  and  C_9 
REMARK    3  A    between atoms: N_8  and  C_9 
ROOT
HETATM    1  C   UNL     1      62.227   8.075   4.365  1.00  0.00     0.046 A 
HETATM    2  C   UNL     1      63.344   7.899   5.225  1.00  0.00    -0.006 A 
HETATM    3  C   UNL     1      61.144   7.173   4.438  1.00  0.00     0.030 A 
HETATM    4  C   UNL     1      63.280   6.848   6.170  1.00  0.00     0.011 A 
HETATM    5  C   UNL     1      61.128   6.134   5.367  1.00  0.00     0.002 A 
HETATM    6  C   UNL     1      62.193   5.977   6.238  1.00  0.00     0.001 A 
ENDROOT
BRANCH   1   7
HETATM    7  N   UNL     1      62.128   9.132   3.404  1.00  0.00    -0.332 N 
HETATM    8  C   UNL     1      61.916  10.472   3.695  1.00  0.00     0.096 A 
HETATM    9  C   UNL     1      61.822  11.188   2.521  1.00  0.00     0.019 A 
HETATM   10  C   UNL     1      62.041  10.282   1.467  1.00  0.00     0.019 A 
HETATM   11  C   UNL     1      62.274   9.048   2.032  1.00  0.00     0.096 A 
ENDBRANCH   1   7
BRANCH   2  12
HETATM   12  C   UNL     1      64.591   8.764   5.172  1.00  0.00     0.270 C 
BRANCH  12  13
HETATM   13  N   UNL     1      65.647   8.397   6.119  1.00  0.00    -0.075 N 
HETATM   14  H   UNL     1      66.173   7.605   5.752  1.00  0.00     0.274 HD
HETATM   15  H   UNL     1      65.229   8.143   7.014  1.00  0.00     0.274 HD
HETATM   16  H   UNL     1      66.276   9.189   6.251  1.00  0.00     0.274 HD
ENDBRANCH  12  13
ENDBRANCH   2  12
TORSDOF 3
ENDMDL
MODEL 5
REMARK VINA RESULT:      -4.3      1.783      4.092
REMARK  3 active torsions:
REMARK  status: ('A' for Active; 'I' for Inactive)
REMARK    1  A    between atoms: N_1  and  C_2 
REMARK    2  A    between atoms: C_3  and  C_9 
REMARK    3  A    between atoms: N_8  and  C_9 
ROOT
HETATM    1  C   UNL     1      63.061   8.060   3.361  1.00  0.00     0.046 A 
HETATM    2  C   UNL     1      63.314   9.078   4.319  1.00  0.00    -0.006 A 
HETATM    3  C   UNL     1      63.977   6.995   3.220  1.00  0.00     0.030 A 
HETATM    4  C   UNL     1      64.456   8.933   5.139  1.00  0.00     0.011 A 
HETATM    5  C   UNL     1      65.106   6.899   4.032  1.00  0.00     0.002 A 
HETATM    6  C   UNL     1      65.341   7.864   4.996  1.00  0.00     0.001 A 
ENDROOT
BRANCH   1   7
HETATM    7  N   UNL     1      61.911   8.045   2.508  1.00  0.00    -0.332 N 
HETATM    8  C   UNL     1      61.851   8.564   1.222  1.00  0.00     0.096 A 
HETATM    9  C   UNL     1      60.574   8.420   0.727  1.00  0.00     0.019 A 
HETATM   10  C   UNL     1      59.826   7.739   1.706  1.00  0.00     0.019 A 
HETATM   11  C   UNL     1      60.675   7.478   2.759  1.00  0.00     0.096 A 
ENDBRANCH   1   7
BRANCH   2  12
HETATM   12  C   UNL     1      62.435  10.304   4.494  1.00  0.00     0.270 C 
BRANCH  12  13
HETATM   13  N   UNL     1      62.919  11.286   5.469  1.00  0.00    -0.075 N 
HETATM   14  H   UNL     1      63.877  11.548   5.240  1.00  0.00     0.274 HD
HETATM   15  H   UNL     1      62.890  10.881   6.404  1.00  0.00     0.274 HD
HETATM   16  H   UNL     1      62.325  12.115   5.439  1.00  0.00     0.274 HD
ENDBRANCH  12  13
ENDBRANCH   2  12
TORSDOF 3
ENDMDL
MODEL 6
REMARK VINA RESULT:      -4.2      2.771      6.489
REMARK  3 active torsions:
REMARK  status: ('A' for Active; 'I' for Inactive)
REMARK    1  A    between atoms: N_1  and  C_2 
REMARK    2  A    between atoms: C_3  and  C_9 
REMARK    3  A    between atoms: N_8  and  C_9 
ROOT
HETATM    1  C   UNL     1      66.048   6.547   6.875  1.00  0.00     0.046 A 
HETATM    2  C   UNL     1      66.863   5.554   6.268  1.00  0.00    -0.006 A 
HETATM    3  C   UNL     1      66.243   6.870   8.235  1.00  0.00     0.030 A 
HETATM    4  C   UNL     1      67.887   4.979   7.056  1.00  0.00     0.011 A 
HETATM    5  C   UNL     1      67.249   6.264   8.987  1.00  0.00     0.002 A 
HETATM    6  C   UNL     1      68.075   5.324   8.395  1.00  0.00     0.001 A 
ENDROOT
BRANCH   1   7
HETATM    7  N   UNL     1      65.016   7.256   6.180  1.00  0.00    -0.332 N 
HETATM    8  C   UNL     1      63.665   6.943   6.203  1.00  0.00     0.096 A 
HETATM    9  C   UNL     1      62.979   7.807   5.377  1.00  0.00     0.019 A 
HETATM   10  C   UNL     1      63.918   8.723   4.868  1.00  0.00     0.019 A 
HETATM   11  C   UNL     1      65.141   8.398   5.410  1.00  0.00     0.096 A 
ENDBRANCH   1   7
BRANCH   2  12
HETATM   12  C   UNL     1      66.683   5.078   4.837  1.00  0.00     0.270 C 
BRANCH  12  13
HETATM   13  N   UNL     1      67.325   5.911   3.816  1.00  0.00    -0.075 N 
HETATM   14  H   UNL     1      68.310   5.658   3.741  1.00  0.00     0.274 HD
HETATM   15  H   UNL     1      67.244   6.893   4.077  1.00  0.00     0.274 HD
HETATM   16  H   UNL     1      66.867   5.760   2.917  1.00  0.00     0.274 HD
ENDBRANCH  12  13
ENDBRANCH   2  12
TORSDOF 3
ENDMDL
MODEL 7
REMARK VINA RESULT:      -4.2      1.246      4.834
REMARK  3 active torsions:
REMARK  status: ('A' for Active; 'I' for Inactive)
REMARK    1  A    between atoms: N_1  and  C_2 
REMARK    2  A    between atoms: C_3  and  C_9 
REMARK    3  A    between atoms: N_8  and  C_9 
ROOT
HETATM    1  C   UNL     1      64.097   8.200   5.289  1.00  0.00     0.046 A 
HETATM    2  C   UNL     1      63.589   7.128   6.069  1.00  0.00    -0.006 A 
HETATM    3  C   UNL     1      65.494   8.390   5.194  1.00  0.00     0.030 A 
HETATM    4  C   UNL     1      64.526   6.253   6.667  1.00  0.00     0.011 A 
HETATM    5  C   UNL     1      66.387   7.520   5.818  1.00  0.00     0.002 A 
HETATM    6  C   UNL     1      65.902   6.448   6.548  1.00  0.00     0.001 A 
ENDROOT
BRANCH   1   7
HETATM    7  N   UNL     1      63.267   9.125   4.578  1.00  0.00    -0.332 N 
HETATM    8  C   UNL     1      62.745   8.931   3.307  1.00  0.00     0.096 A 
HETATM    9  C   UNL     1      62.041  10.052   2.923  1.00  0.00     0.019 A 
HETATM   10  C   UNL     1      62.073  10.950   4.006  1.00  0.00     0.019 A 
HETATM   11  C   UNL     1      62.782  10.342   5.019  1.00  0.00     0.096 A 
ENDBRANCH   1   7
BRANCH   2  12
HETATM   12  C   UNL     1      62.107   6.885   6.299  1.00  0.00     0.270 C 
BRANCH  12  13
HETATM   13  N   UNL     1      61.432   6.108   5.257  1.00  0.00    -0.075 N 
HETATM   14  H   UNL     1      61.020   6.742   4.573  1.00  0.00     0.274 HD
HETATM   15  H   UNL     1      60.698   5.538   5.678  1.00  0.00     0.274 HD
HETATM   16  H   UNL     1      62.108   5.502   4.792  1.00  0.00     0.274 HD
ENDBRANCH  12  13
ENDBRANCH   2  12
TORSDOF 3
ENDMDL
MODEL 8
REMARK VINA RESULT:      -4.0      2.034      3.464
REMARK  3 active torsions:
REMARK  status: ('A' for Active; 'I' for Inactive)
REMARK    1  A    between atoms: N_1  and  C_2 
REMARK    2  A    between atoms: C_3  and  C_9 
REMARK    3  A    between atoms: N_8  and  C_9 
ROOT
HETATM    1  C   UNL     1      62.069   8.851   2.597  1.00  0.00     0.046 A 
HETATM    2  C   UNL     1      62.405   9.176   3.938  1.00  0.00    -0.006 A 
HETATM    3  C   UNL     1      61.700   9.881   1.703  1.00  0.00     0.030 A 
HETATM    4  C   UNL     1      62.416  10.544   4.295  1.00  0.00     0.011 A 
HETATM    5  C   UNL     1      61.700  11.217   2.099  1.00  0.00     0.002 A 
HETATM    6  C   UNL     1      62.065  11.549   3.393  1.00  0.00     0.001 A 
ENDROOT
BRANCH   1   7
HETATM    7  N   UNL     1      62.076   7.516   2.080  1.00  0.00    -0.332 N 
HETATM    8  C   UNL     1      60.966   6.695   1.944  1.00  0.00     0.096 A 
HETATM    9  C   UNL     1      61.360   5.464   1.465  1.00  0.00     0.019 A 
HETATM   10  C   UNL     1      62.747   5.534   1.240  1.00  0.00     0.019 A 
HETATM   11  C   UNL     1      63.151   6.808   1.574  1.00  0.00     0.096 A 
ENDBRANCH   1   7
BRANCH   2  12
HETATM   12  C   UNL     1      62.737   8.138   4.996  1.00  0.00     0.270 C 
BRANCH  12  13
HETATM   13  N   UNL     1      63.907   8.443   5.825  1.00  0.00    -0.075 N 
HETATM   14  H   UNL     1      64.712   7.920   5.483  1.00  0.00     0.274 HD
HETATM   15  H   UNL     1      63.716   8.180   6.792  1.00  0.00     0.274 HD
HETATM   16  H   UNL     1      64.106   9.442   5.778  1.00  0.00     0.274 HD
ENDBRANCH  12  13
ENDBRANCH   2  12
TORSDOF 3
ENDMDL
MODEL 9
REMARK VINA RESULT:      -4.0      2.246      4.424
REMARK  3 active torsions:
REMARK  status: ('A' for Active; 'I' for Inactive)
REMARK    1  A    between atoms: N_1  and  C_2 
REMARK    2  A    between atoms: C_3  and  C_9 
REMARK    3  A    between atoms: N_8  and  C_9 
ROOT
HETATM    1  C   UNL     1      61.999   9.115   3.377  1.00  0.00     0.046 A 
HETATM    2  C   UNL     1      62.947   8.450   4.200  1.00  0.00    -0.006 A 
HETATM    3  C   UNL     1      61.714  10.479   3.607  1.00  0.00     0.030 A 
HETATM    4  C   UNL     1      63.613   9.220   5.181  1.00  0.00     0.011 A 
HETATM    5  C   UNL     1      62.375  11.200   4.601  1.00  0.00     0.002 A 
HETATM    6  C   UNL     1      63.329  10.571   5.383  1.00  0.00     0.001 A 
ENDROOT
BRANCH   1   7
HETATM    7  N   UNL     1      61.296   8.477   2.305  1.00  0.00    -0.332 N 
HETATM    8  C   UNL     1      61.709   8.429   0.982  1.00  0.00     0.096 A 
HETATM    9  C   UNL     1      60.758   7.781   0.226  1.00  0.00     0.019 A 
HETATM   10  C   UNL     1      59.747   7.358   1.109  1.00  0.00     0.019 A 
HETATM   11  C   UNL     1      60.122   7.750   2.375  1.00  0.00     0.096 A 
ENDBRANCH   1   7
BRANCH   2  12
HETATM   12  C   UNL     1      63.266   6.970   4.087  1.00  0.00     0.270 C 
BRANCH  12  13
HETATM   13  N   UNL     1      64.248   6.619   3.057  1.00  0.00    -0.075 N 
HETATM   14  H   UNL     1      64.060   5.677   2.716  1.00  0.00     0.274 HD
HETATM   15  H   UNL     1      65.186   6.656   3.455  1.00  0.00     0.274 HD
HETATM   16  H   UNL     1      64.180   7.280   2.284  1.00  0.00     0.274 HD
ENDBRANCH  12  13
ENDBRANCH   2  12
TORSDOF 3
ENDMDL
