MODEL 1
REMARK VINA RESULT:      -5.7      0.000      0.000
REMARK  2 active torsions:
REMARK  status: ('A' for Active; 'I' for Inactive)
REMARK    1  A    between atoms: C_1  and  C_4 
REMARK    2  A    between atoms: N_2  and  C_3 
ROOT
HETATM    1  C   UNL     1      62.440   9.965   3.738  1.00  0.00     0.068 A 
HETATM    2  C   UNL     1      63.019   8.683   3.646  1.00  0.00     0.055 A 
HETATM    3  C   UNL     1      61.794  10.512   2.610  1.00  0.00     0.021 A 
HETATM    4  C   UNL     1      62.927   7.985   2.424  1.00  0.00     0.031 A 
HETATM    5  C   UNL     1      61.712   9.807   1.411  1.00  0.00     0.001 A 
HETATM    6  C   UNL     1      62.277   8.544   1.318  1.00  0.00     0.002 A 
ENDROOT
BRANCH   2   7
HETATM    7  N   UNL     1      63.685   8.031   4.729  1.00  0.00    -0.332 N 
HETATM    8  C   UNL     1      63.129   7.230   5.707  1.00  0.00     0.096 A 
HETATM    9  C   UNL     1      64.114   6.844   6.596  1.00  0.00     0.019 A 
HETATM   10  C   UNL     1      65.332   7.358   6.116  1.00  0.00     0.019 A 
HETATM   11  C   UNL     1      65.053   8.045   4.955  1.00  0.00     0.096 A 
ENDBRANCH   2   7
BRANCH   1  12
HETATM   12  C   UNL     1      62.598  10.882   4.893  1.00  0.00     0.211 C 
HETATM   13  O   UNL     1      63.205  10.672   5.925  1.00  0.00    -0.644 OA
HETATM   14  O   UNL     1      61.978  12.057   4.675  1.00  0.00    -0.644 OA
ENDBRANCH   1  12
TORSDOF 2
ENDMDL
MODEL 2
REMARK VINA RESULT:      -5.3      1.811      2.511
REMARK  2 active torsions:
REMARK  status: ('A' for Active; 'I' for Inactive)
REMARK    1  A    between atoms: C_1  and  C_4 
REMARK    2  A    between atoms: N_2  and  C_3 
ROOT
HETATM    1  C   UNL     1      62.652   9.600   4.143  1.00  0.00     0.068 A 
HETATM    2  C   UNL     1      62.651   8.690   3.066  1.00  0.00     0.055 A 
HETATM    3  C   UNL     1      62.230  10.928   3.924  1.00  0.00     0.021 A 
HETATM    4  C   UNL     1      62.221   9.141   1.800  1.00  0.00     0.031 A 
HETATM    5  C   UNL     1      61.807  11.354   2.666  1.00  0.00     0.001 A 
HETATM    6  C   UNL     1      61.801  10.461   1.606  1.00  0.00     0.002 A 
ENDROOT
BRANCH   2   7
HETATM    7  N   UNL     1      63.045   7.322   3.180  1.00  0.00    -0.332 N 
HETATM    8  C   UNL     1      64.326   6.806   3.182  1.00  0.00     0.096 A 
HETATM    9  C   UNL     1      64.264   5.428   3.259  1.00  0.00     0.019 A 
HETATM   10  C   UNL     1      62.907   5.080   3.384  1.00  0.00     0.019 A 
HETATM   11  C   UNL     1      62.184   6.252   3.373  1.00  0.00     0.096 A 
ENDBRANCH   2   7
BRANCH   1  12
HETATM   12  C   UNL     1      63.229   9.324   5.481  1.00  0.00     0.211 C 
HETATM   13  O   UNL     1      62.878   8.473   6.276  1.00  0.00    -0.644 OA
HETATM   14  O   UNL     1      64.258  10.149   5.752  1.00  0.00    -0.644 OA
ENDBRANCH   1  12
TORSDOF 2
ENDMDL
MODEL 3
REMARK VINA RESULT:      -5.1      2.223      2.891
REMARK  2 active torsions:
REMARK  status: ('A' for Active; 'I' for Inactive)
REMARK    1  A    between atoms: C_1  and  C_4 
REMARK    2  A    between atoms: N_2  and  C_3 
ROOT
HETATM    1  C   UNL     1      62.825   8.755   3.352  1.00  0.00     0.068 A 
HETATM    2  C   UNL     1      63.304   9.063   4.641  1.00  0.00     0.055 A 
HETATM    3  C   UNL     1      62.076   9.719   2.646  1.00  0.00     0.021 A 
HETATM    4  C   UNL     1      63.021  10.335   5.182  1.00  0.00     0.031 A 
HETATM    5  C   UNL     1      61.807  10.971   3.196  1.00  0.00     0.001 A 
HETATM    6  C   UNL     1      62.280  11.279   4.463  1.00  0.00     0.002 A 
ENDROOT
BRANCH   2   7
HETATM    7  N   UNL     1      64.082   8.167   5.436  1.00  0.00    -0.332 N 
HETATM    8  C   UNL     1      63.634   7.127   6.225  1.00  0.00     0.096 A 
HETATM    9  C   UNL     1      64.708   6.544   6.869  1.00  0.00     0.019 A 
HETATM   10  C   UNL     1      65.869   7.193   6.409  1.00  0.00     0.019 A 
HETATM   11  C   UNL     1      65.467   8.153   5.507  1.00  0.00     0.096 A 
ENDBRANCH   2   7
BRANCH   1  12
HETATM   12  C   UNL     1      62.898   7.414   2.722  1.00  0.00     0.211 C 
HETATM   13  O   UNL     1      63.895   6.756   2.499  1.00  0.00    -0.644 OA
HETATM   14  O   UNL     1      61.672   6.951   2.412  1.00  0.00    -0.644 OA
ENDBRANCH   1  12
TORSDOF 2
ENDMDL
MODEL 4
REMARK VINA RESULT:      -4.9      1.537      4.098
REMARK  2 active torsions:
REMARK  status: ('A' for Active; 'I' for Inactive)
REMARK    1  A    between atoms: C_1  and  C_4 
REMARK    2  A    between atoms: N_2  and  C_3 
ROOT
HETATM    1  C   UNL     1      63.535   8.952   4.341  1.00  0.00     0.068 A 
HETATM    2  C   UNL     1      63.218   7.976   3.375  1.00  0.00     0.055 A 
HETATM    3  C   UNL     1      64.699   8.794   5.123  1.00  0.00     0.021 A 
HETATM    4  C   UNL     1      64.083   6.872   3.218  1.00  0.00     0.031 A 
HETATM    5  C   UNL     1      65.542   7.698   4.953  1.00  0.00     0.001 A 
HETATM    6  C   UNL     1      65.234   6.738   4.001  1.00  0.00     0.002 A 
ENDROOT
BRANCH   2   7
HETATM    7  N   UNL     1      62.073   8.044   2.523  1.00  0.00    -0.332 N 
HETATM    8  C   UNL     1      61.976   8.635   1.279  1.00  0.00     0.096 A 
HETATM    9  C   UNL     1      60.679   8.522   0.818  1.00  0.00     0.019 A 
HETATM   10  C   UNL     1      59.964   7.773   1.771  1.00  0.00     0.019 A 
HETATM   11  C   UNL     1      60.844   7.459   2.783  1.00  0.00     0.096 A 
ENDBRANCH   2   7
BRANCH   1  12
HETATM   12  C   UNL     1      62.646  10.071   4.736  1.00  0.00     0.211 C 
HETATM   13  O   UNL     1      61.725  10.543   4.097  1.00  0.00    -0.644 OA
HETATM   14  O   UNL     1      62.962  10.543   5.956  1.00  0.00    -0.644 OA
ENDBRANCH   1  12
TORSDOF 2
ENDMDL
MODEL 5
REMARK VINA RESULT:      -4.8      2.104      4.920
REMARK  2 active torsions:
REMARK  status: ('A' for Active; 'I' for Inactive)
REMARK    1  A    between atoms: C_1  and  C_4 
REMARK    2  A    between atoms: N_2  and  C_3 
ROOT
HETATM    1  C   UNL     1      63.960   6.961   6.119  1.00  0.00     0.068 A 
HETATM    2  C   UNL     1      64.338   8.067   5.331  1.00  0.00     0.055 A 
HETATM    3  C   UNL     1      64.936   6.301   6.894  1.00  0.00     0.021 A 
HETATM    4  C   UNL     1      65.688   8.481   5.349  1.00  0.00     0.031 A 
HETATM    5  C   UNL     1      66.263   6.724   6.900  1.00  0.00     0.001 A 
HETATM    6  C   UNL     1      66.639   7.814   6.129  1.00  0.00     0.002 A 
ENDROOT
BRANCH   2   7
HETATM    7  N   UNL     1      63.430   8.815   4.520  1.00  0.00    -0.332 N 
HETATM    8  C   UNL     1      62.984   8.514   3.249  1.00  0.00     0.096 A 
HETATM    9  C   UNL     1      62.157   9.526   2.803  1.00  0.00     0.019 A 
HETATM   10  C   UNL     1      62.025  10.449   3.856  1.00  0.00     0.019 A 
HETATM   11  C   UNL     1      62.778   9.975   4.907  1.00  0.00     0.096 A 
ENDBRANCH   2   7
BRANCH   1  12
HETATM   12  C   UNL     1      62.627   6.311   6.076  1.00  0.00     0.211 C 
HETATM   13  O   UNL     1      62.298   5.345   5.415  1.00  0.00    -0.644 OA
HETATM   14  O   UNL     1      61.757   6.919   6.903  1.00  0.00    -0.644 OA
ENDBRANCH   1  12
TORSDOF 2
ENDMDL
MODEL 6
REMARK VINA RESULT:      -4.5      2.325      5.202
REMARK  2 active torsions:
REMARK  status: ('A' for Active; 'I' for Inactive)
REMARK    1  A    between atoms: C_1  and  C_4 
REMARK    2  A    between atoms: N_2  and  C_3 
ROOT
HETATM    1  C   UNL     1      65.970   6.766   6.037  1.00  0.00     0.068 A 
HETATM    2  C   UNL     1      64.620   6.553   5.695  1.00  0.00     0.055 A 
HETATM    3  C   UNL     1      66.640   5.810   6.829  1.00  0.00     0.021 A 
HETATM    4  C   UNL     1      63.982   5.381   6.155  1.00  0.00     0.031 A 
HETATM    5  C   UNL     1      65.994   4.658   7.273  1.00  0.00     0.001 A 
HETATM    6  C   UNL     1      64.666   4.443   6.935  1.00  0.00     0.002 A 
ENDROOT
BRANCH   2   7
HETATM    7  N   UNL     1      63.852   7.449   4.889  1.00  0.00    -0.332 N 
HETATM    8  C   UNL     1      63.076   8.512   5.306  1.00  0.00     0.096 A 
HETATM    9  C   UNL     1      62.459   9.085   4.212  1.00  0.00     0.019 A 
HETATM   10  C   UNL     1      62.923   8.406   3.070  1.00  0.00     0.019 A 
HETATM   11  C   UNL     1      63.801   7.438   3.504  1.00  0.00     0.096 A 
ENDBRANCH   2   7
BRANCH   1  12
HETATM   12  C   UNL     1      66.722   8.017   5.772  1.00  0.00     0.211 C 
HETATM   13  O   UNL     1      67.473   8.245   4.845  1.00  0.00    -0.644 OA
HETATM   14  O   UNL     1      66.468   8.950   6.710  1.00  0.00    -0.644 OA
ENDBRANCH   1  12
TORSDOF 2
ENDMDL
MODEL 7
REMARK VINA RESULT:      -4.5      3.030      4.380
REMARK  2 active torsions:
REMARK  status: ('A' for Active; 'I' for Inactive)
REMARK    1  A    between atoms: C_1  and  C_4 
REMARK    2  A    between atoms: N_2  and  C_3 
ROOT
HETATM    1  C   UNL     1      64.401   7.363   5.769  1.00  0.00     0.068 A 
HETATM    2  C   UNL     1      64.770   6.193   6.462  1.00  0.00     0.055 A 
HETATM    3  C   UNL     1      63.178   7.391   5.066  1.00  0.00     0.021 A 
HETATM    4  C   UNL     1      63.897   5.085   6.433  1.00  0.00     0.031 A 
HETATM    5  C   UNL     1      62.328   6.287   5.050  1.00  0.00     0.001 A 
HETATM    6  C   UNL     1      62.686   5.135   5.734  1.00  0.00     0.002 A 
ENDROOT
BRANCH   2   7
HETATM    7  N   UNL     1      65.977   6.061   7.214  1.00  0.00    -0.332 N 
HETATM    8  C   UNL     1      67.179   5.522   6.802  1.00  0.00     0.096 A 
HETATM    9  C   UNL     1      68.073   5.539   7.855  1.00  0.00     0.019 A 
HETATM   10  C   UNL     1      67.433   6.174   8.934  1.00  0.00     0.019 A 
HETATM   11  C   UNL     1      66.169   6.520   8.509  1.00  0.00     0.096 A 
ENDBRANCH   2   7
BRANCH   1  12
HETATM   12  C   UNL     1      65.281   8.540   5.568  1.00  0.00     0.211 C 
HETATM   13  O   UNL     1      65.143   9.653   6.035  1.00  0.00    -0.644 OA
HETATM   14  O   UNL     1      66.330   8.239   4.779  1.00  0.00    -0.644 OA
ENDBRANCH   1  12
TORSDOF 2
ENDMDL
MODEL 8
REMARK VINA RESULT:      -4.5      2.636      3.477
REMARK  2 active torsions:
REMARK  status: ('A' for Active; 'I' for Inactive)
REMARK    1  A    between atoms: C_1  and  C_4 
REMARK    2  A    between atoms: N_2  and  C_3 
ROOT
HETATM    1  C   UNL     1      64.435   7.965   5.007  1.00  0.00     0.068 A 
HETATM    2  C   UNL     1      64.524   6.980   4.002  1.00  0.00     0.055 A 
HETATM    3  C   UNL     1      63.536   9.039   4.841  1.00  0.00     0.021 A 
HETATM    4  C   UNL     1      63.702   7.100   2.862  1.00  0.00     0.031 A 
HETATM    5  C   UNL     1      62.731   9.140   3.708  1.00  0.00     0.001 A 
HETATM    6  C   UNL     1      62.813   8.171   2.720  1.00  0.00     0.002 A 
ENDROOT
BRANCH   2   7
HETATM    7  N   UNL     1      65.390   5.846   4.075  1.00  0.00    -0.332 N 
HETATM    8  C   UNL     1      65.090   4.577   4.529  1.00  0.00     0.096 A 
HETATM    9  C   UNL     1      66.226   3.793   4.480  1.00  0.00     0.019 A 
HETATM   10  C   UNL     1      67.246   4.575   3.908  1.00  0.00     0.019 A 
HETATM   11  C   UNL     1      66.704   5.811   3.633  1.00  0.00     0.096 A 
ENDBRANCH   2   7
BRANCH   1  12
HETATM   12  C   UNL     1      65.345   8.066   6.174  1.00  0.00     0.211 C 
HETATM   13  O   UNL     1      66.284   8.825   6.315  1.00  0.00    -0.644 OA
HETATM   14  O   UNL     1      65.006   7.189   7.138  1.00  0.00    -0.644 OA
ENDBRANCH   1  12
TORSDOF 2
ENDMDL
MODEL 9
REMARK VINA RESULT:      -4.3      2.939      4.936
REMARK  2 active torsions:
REMARK  status: ('A' for Active; 'I' for Inactive)
REMARK    1  A    between atoms: C_1  and  C_4 
REMARK    2  A    between atoms: N_2  and  C_3 
ROOT
HETATM    1  C   UNL     1      60.585   7.087   4.445  1.00  0.00     0.068 A 
HETATM    2  C   UNL     1      61.735   7.886   4.277  1.00  0.00     0.055 A 
HETATM    3  C   UNL     1      60.560   6.123   5.475  1.00  0.00     0.021 A 
HETATM    4  C   UNL     1      62.824   7.696   5.154  1.00  0.00     0.031 A 
HETATM    5  C   UNL     1      61.645   5.951   6.332  1.00  0.00     0.001 A 
HETATM    6  C   UNL     1      62.776   6.738   6.172  1.00  0.00     0.002 A 
ENDROOT
BRANCH   2   7
HETATM    7  N   UNL     1      61.861   8.898   3.277  1.00  0.00    -0.332 N 
HETATM    8  C   UNL     1      61.744  10.264   3.434  1.00  0.00     0.096 A 
HETATM    9  C   UNL     1      61.884  10.879   2.205  1.00  0.00     0.019 A 
HETATM   10  C   UNL     1      62.171   9.872   1.266  1.00  0.00     0.019 A 
HETATM   11  C   UNL     1      62.191   8.676   1.949  1.00  0.00     0.096 A 
ENDBRANCH   2   7
BRANCH   1  12
HETATM   12  C   UNL     1      59.437   7.053   3.508  1.00  0.00     0.211 C 
HETATM   13  O   UNL     1      59.382   6.500   2.426  1.00  0.00    -0.644 OA
HETATM   14  O   UNL     1      58.379   7.724   4.002  1.00  0.00    -0.644 OA
ENDBRANCH   1  12
TORSDOF 2
ENDMDL
