MODEL 1
REMARK VINA RESULT:      -5.3      0.000      0.000
REMARK  3 active torsions:
REMARK  status: ('A' for Active; 'I' for Inactive)
REMARK    1  A    between atoms: N_1  and  C_2 
REMARK    2  A    between atoms: C_4  and  C_10 
REMARK    3  A    between atoms: N_5  and  C_10 
ROOT
HETATM    1  C   UNL     1      65.157   7.541   4.599  1.00  0.00     0.030 A 
HETATM    2  C   UNL     1      64.337   8.668   4.795  1.00  0.00     0.038 A 
HETATM    3  C   UNL     1      63.189   8.917   4.019  1.00  0.00    -0.031 A 
HETATM    4  C   UNL     1      64.760   6.653   3.586  1.00  0.00     0.029 A 
HETATM    5  C   UNL     1      63.627   6.879   2.800  1.00  0.00     0.003 A 
HETATM    6  C   UNL     1      62.849   8.011   3.009  1.00  0.00     0.009 A 
ENDROOT
BRANCH   1   7
HETATM    7  N   UNL     1      66.298   7.326   5.349  1.00  0.00    -0.381 N 
HETATM    8  C   UNL     1      67.353   6.403   4.925  1.00  0.00     0.123 C 
HETATM    9  C   UNL     1      67.562   5.342   6.005  1.00  0.00     0.020 C 
HETATM   10  C   UNL     1      67.841   5.987   7.362  1.00  0.00     0.003 C 
HETATM   11  C   UNL     1      66.759   7.003   7.724  1.00  0.00     0.020 C 
HETATM   12  C   UNL     1      66.545   8.028   6.609  1.00  0.00     0.123 C 
ENDBRANCH   1   7
BRANCH   3  13
HETATM   13  C   UNL     1      62.364  10.162   4.251  1.00  0.00     0.270 C 
BRANCH  13  14
HETATM   14  N   UNL     1      61.398  10.378   3.173  1.00  0.00    -0.075 N 
HETATM   15  C   UNL     1      61.802  11.485   2.320  1.00  0.00     0.267 C 
HETATM   16  H   UNL     1      60.486  10.586   3.580  1.00  0.00     0.277 HD
HETATM   17  H   UNL     1      61.354   9.532   2.604  1.00  0.00     0.277 HD
ENDBRANCH  13  14
ENDBRANCH   3  13
TORSDOF 3
ENDMDL
MODEL 2
REMARK VINA RESULT:      -5.1      1.302      5.836
REMARK  3 active torsions:
REMARK  status: ('A' for Active; 'I' for Inactive)
REMARK    1  A    between atoms: N_1  and  C_2 
REMARK    2  A    between atoms: C_4  and  C_10 
REMARK    3  A    between atoms: N_5  and  C_10 
ROOT
HETATM    1  C   UNL     1      63.959   7.995   3.885  1.00  0.00     0.030 A 
HETATM    2  C   UNL     1      64.756   8.433   4.960  1.00  0.00     0.038 A 
HETATM    3  C   UNL     1      65.872   7.710   5.423  1.00  0.00    -0.031 A 
HETATM    4  C   UNL     1      64.347   6.791   3.275  1.00  0.00     0.029 A 
HETATM    5  C   UNL     1      65.448   6.054   3.718  1.00  0.00     0.003 A 
HETATM    6  C   UNL     1      66.203   6.506   4.793  1.00  0.00     0.009 A 
ENDROOT
BRANCH   1   7
HETATM    7  N   UNL     1      62.848   8.700   3.463  1.00  0.00    -0.381 N 
HETATM    8  C   UNL     1      62.241   8.494   2.146  1.00  0.00     0.123 C 
HETATM    9  C   UNL     1      62.224   9.817   1.383  1.00  0.00     0.020 C 
HETATM   10  C   UNL     1      61.531  10.911   2.195  1.00  0.00     0.003 C 
HETATM   11  C   UNL     1      62.143  11.033   3.589  1.00  0.00     0.020 C 
HETATM   12  C   UNL     1      62.182   9.687   4.314  1.00  0.00     0.123 C 
ENDBRANCH   1   7
BRANCH   3  13
HETATM   13  C   UNL     1      66.672   8.211   6.604  1.00  0.00     0.270 C 
BRANCH  13  14
HETATM   14  N   UNL     1      67.445   7.135   7.226  1.00  0.00    -0.075 N 
HETATM   15  C   UNL     1      66.900   6.782   8.528  1.00  0.00     0.267 C 
HETATM   16  H   UNL     1      68.410   7.443   7.342  1.00  0.00     0.277 HD
HETATM   17  H   UNL     1      67.399   6.313   6.623  1.00  0.00     0.277 HD
ENDBRANCH  13  14
ENDBRANCH   3  13
TORSDOF 3
ENDMDL
MODEL 3
REMARK VINA RESULT:      -5.1      1.719      2.976
REMARK  3 active torsions:
REMARK  status: ('A' for Active; 'I' for Inactive)
REMARK    1  A    between atoms: N_1  and  C_2 
REMARK    2  A    between atoms: C_4  and  C_10 
REMARK    3  A    between atoms: N_5  and  C_10 
ROOT
HETATM    1  C   UNL     1      63.753   8.442   4.315  1.00  0.00     0.030 A 
HETATM    2  C   UNL     1      63.108   8.349   3.068  1.00  0.00     0.038 A 
HETATM    3  C   UNL     1      62.188   9.314   2.615  1.00  0.00    -0.031 A 
HETATM    4  C   UNL     1      63.444   9.570   5.092  1.00  0.00     0.029 A 
HETATM    5  C   UNL     1      62.532  10.539   4.666  1.00  0.00     0.003 A 
HETATM    6  C   UNL     1      61.899  10.408   3.436  1.00  0.00     0.009 A 
ENDROOT
BRANCH   1   7
HETATM    7  N   UNL     1      64.631   7.470   4.759  1.00  0.00    -0.381 N 
HETATM    8  C   UNL     1      64.866   7.217   6.182  1.00  0.00     0.123 C 
HETATM    9  C   UNL     1      66.353   7.388   6.488  1.00  0.00     0.020 C 
HETATM   10  C   UNL     1      67.207   6.508   5.575  1.00  0.00     0.003 C 
HETATM   11  C   UNL     1      66.868   6.747   4.105  1.00  0.00     0.020 C 
HETATM   12  C   UNL     1      65.369   6.607   3.836  1.00  0.00     0.123 C 
ENDBRANCH   1   7
BRANCH   3  13
HETATM   13  C   UNL     1      61.498   9.146   1.280  1.00  0.00     0.270 C 
BRANCH  13  14
HETATM   14  N   UNL     1      60.084   8.804   1.443  1.00  0.00    -0.075 N 
HETATM   15  C   UNL     1      59.660   7.834   0.445  1.00  0.00     0.267 C 
HETATM   16  H   UNL     1      59.523   9.650   1.344  1.00  0.00     0.277 HD
HETATM   17  H   UNL     1      59.955   8.393   2.368  1.00  0.00     0.277 HD
ENDBRANCH  13  14
ENDBRANCH   3  13
TORSDOF 3
ENDMDL
MODEL 4
REMARK VINA RESULT:      -5.1      2.059      3.270
REMARK  3 active torsions:
REMARK  status: ('A' for Active; 'I' for Inactive)
REMARK    1  A    between atoms: N_1  and  C_2 
REMARK    2  A    between atoms: C_4  and  C_10 
REMARK    3  A    between atoms: N_5  and  C_10 
ROOT
HETATM    1  C   UNL     1      63.257   9.080   4.635  1.00  0.00     0.030 A 
HETATM    2  C   UNL     1      62.814   8.739   3.343  1.00  0.00     0.038 A 
HETATM    3  C   UNL     1      62.075   9.624   2.535  1.00  0.00    -0.031 A 
HETATM    4  C   UNL     1      62.936  10.372   5.080  1.00  0.00     0.029 A 
HETATM    5  C   UNL     1      62.201  11.267   4.299  1.00  0.00     0.003 A 
HETATM    6  C   UNL     1      61.763  10.892   3.035  1.00  0.00     0.009 A 
ENDROOT
BRANCH   1   7
HETATM    7  N   UNL     1      63.956   8.189   5.428  1.00  0.00    -0.381 N 
HETATM    8  C   UNL     1      65.418   8.203   5.523  1.00  0.00     0.123 C 
HETATM    9  C   UNL     1      65.966   6.837   5.113  1.00  0.00     0.020 C 
HETATM   10  C   UNL     1      65.323   5.719   5.934  1.00  0.00     0.003 C 
HETATM   11  C   UNL     1      63.799   5.794   5.872  1.00  0.00     0.020 C 
HETATM   12  C   UNL     1      63.282   7.182   6.250  1.00  0.00     0.123 C 
ENDBRANCH   1   7
BRANCH   3  13
HETATM   13  C   UNL     1      61.595   9.192   1.168  1.00  0.00     0.270 C 
BRANCH  13  14
HETATM   14  N   UNL     1      60.176   8.834   1.183  1.00  0.00    -0.075 N 
HETATM   15  C   UNL     1      59.918   7.672   0.346  1.00  0.00     0.267 C 
HETATM   16  H   UNL     1      59.630   9.622   0.835  1.00  0.00     0.277 HD
HETATM   17  H   UNL     1      59.910   8.606   2.142  1.00  0.00     0.277 HD
ENDBRANCH  13  14
ENDBRANCH   3  13
TORSDOF 3
ENDMDL
MODEL 5
REMARK VINA RESULT:      -4.6      1.800      6.094
REMARK  3 active torsions:
REMARK  status: ('A' for Active; 'I' for Inactive)
REMARK    1  A    between atoms: N_1  and  C_2 
REMARK    2  A    between atoms: C_4  and  C_10 
REMARK    3  A    between atoms: N_5  and  C_10 
ROOT
HETATM    1  C   UNL     1      64.981   7.498   5.445  1.00  0.00     0.030 A 
HETATM    2  C   UNL     1      65.088   6.861   6.696  1.00  0.00     0.038 A 
HETATM    3  C   UNL     1      66.326   6.515   7.269  1.00  0.00    -0.031 A 
HETATM    4  C   UNL     1      66.188   7.792   4.793  1.00  0.00     0.029 A 
HETATM    5  C   UNL     1      67.430   7.455   5.339  1.00  0.00     0.003 A 
HETATM    6  C   UNL     1      67.499   6.811   6.568  1.00  0.00     0.009 A 
ENDROOT
BRANCH   1   7
HETATM    7  N   UNL     1      63.755   7.803   4.882  1.00  0.00    -0.381 N 
HETATM    8  C   UNL     1      63.184   7.028   3.779  1.00  0.00     0.123 C 
HETATM    9  C   UNL     1      62.919   7.953   2.593  1.00  0.00     0.020 C 
HETATM   10  C   UNL     1      62.047   9.139   3.005  1.00  0.00     0.003 C 
HETATM   11  C   UNL     1      62.639   9.867   4.210  1.00  0.00     0.020 C 
HETATM   12  C   UNL     1      62.929   8.910   5.367  1.00  0.00     0.123 C 
ENDBRANCH   1   7
BRANCH   3  13
HETATM   13  C   UNL     1      66.381   5.801   8.601  1.00  0.00     0.270 C 
BRANCH  13  14
HETATM   14  N   UNL     1      66.425   4.348   8.432  1.00  0.00    -0.075 N 
HETATM   15  C   UNL     1      67.723   3.814   8.815  1.00  0.00     0.267 C 
HETATM   16  H   UNL     1      66.247   4.121   7.454  1.00  0.00     0.277 HD
HETATM   17  H   UNL     1      65.714   3.931   9.033  1.00  0.00     0.277 HD
ENDBRANCH  13  14
ENDBRANCH   3  13
TORSDOF 3
ENDMDL
MODEL 6
REMARK VINA RESULT:      -4.4      1.426      2.243
REMARK  3 active torsions:
REMARK  status: ('A' for Active; 'I' for Inactive)
REMARK    1  A    between atoms: N_1  and  C_2 
REMARK    2  A    between atoms: C_4  and  C_10 
REMARK    3  A    between atoms: N_5  and  C_10 
ROOT
HETATM    1  C   UNL     1      64.877   8.038   4.667  1.00  0.00     0.030 A 
HETATM    2  C   UNL     1      64.270   7.345   3.603  1.00  0.00     0.038 A 
HETATM    3  C   UNL     1      63.019   7.713   3.072  1.00  0.00    -0.031 A 
HETATM    4  C   UNL     1      64.172   9.142   5.172  1.00  0.00     0.029 A 
HETATM    5  C   UNL     1      62.927   9.525   4.665  1.00  0.00     0.003 A 
HETATM    6  C   UNL     1      62.348   8.809   3.625  1.00  0.00     0.009 A 
ENDROOT
BRANCH   1   7
HETATM    7  N   UNL     1      66.092   7.646   5.198  1.00  0.00    -0.381 N 
HETATM    8  C   UNL     1      67.007   6.752   4.484  1.00  0.00     0.123 C 
HETATM    9  C   UNL     1      67.284   5.519   5.343  1.00  0.00     0.020 C 
HETATM   10  C   UNL     1      67.795   5.917   6.727  1.00  0.00     0.003 C 
HETATM   11  C   UNL     1      66.851   6.913   7.399  1.00  0.00     0.020 C 
HETATM   12  C   UNL     1      66.562   8.117   6.501  1.00  0.00     0.123 C 
ENDBRANCH   1   7
BRANCH   3  13
HETATM   13  C   UNL     1      62.398   6.912   1.950  1.00  0.00     0.270 C 
BRANCH  13  14
HETATM   14  N   UNL     1      60.974   7.213   1.797  1.00  0.00    -0.075 N 
HETATM   15  C   UNL     1      60.690   7.746   0.473  1.00  0.00     0.267 C 
HETATM   16  H   UNL     1      60.702   7.901   2.498  1.00  0.00     0.277 HD
HETATM   17  H   UNL     1      60.446   6.348   1.917  1.00  0.00     0.277 HD
ENDBRANCH  13  14
ENDBRANCH   3  13
TORSDOF 3
ENDMDL
MODEL 7
REMARK VINA RESULT:      -4.4      3.859      6.848
REMARK  3 active torsions:
REMARK  status: ('A' for Active; 'I' for Inactive)
REMARK    1  A    between atoms: N_1  and  C_2 
REMARK    2  A    between atoms: C_4  and  C_10 
REMARK    3  A    between atoms: N_5  and  C_10 
ROOT
HETATM    1  C   UNL     1      60.183   7.654   2.722  1.00  0.00     0.030 A 
HETATM    2  C   UNL     1      61.225   7.885   3.640  1.00  0.00     0.038 A 
HETATM    3  C   UNL     1      62.381   8.619   3.310  1.00  0.00    -0.031 A 
HETATM    4  C   UNL     1      60.346   8.214   1.445  1.00  0.00     0.029 A 
HETATM    5  C   UNL     1      61.485   8.943   1.091  1.00  0.00     0.003 A 
HETATM    6  C   UNL     1      62.503   9.137   2.017  1.00  0.00     0.009 A 
ENDROOT
BRANCH   1   7
HETATM    7  N   UNL     1      59.069   6.906   3.053  1.00  0.00    -0.381 N 
HETATM    8  C   UNL     1      58.225   6.266   2.041  1.00  0.00     0.123 C 
HETATM    9  C   UNL     1      56.789   6.766   2.188  1.00  0.00     0.020 C 
HETATM   10  C   UNL     1      56.278   6.555   3.614  1.00  0.00     0.003 C 
HETATM   11  C   UNL     1      57.232   7.166   4.638  1.00  0.00     0.020 C 
HETATM   12  C   UNL     1      58.668   6.678   4.442  1.00  0.00     0.123 C 
ENDBRANCH   1   7
BRANCH   3  13
HETATM   13  C   UNL     1      63.484   8.807   4.326  1.00  0.00     0.270 C 
BRANCH  13  14
HETATM   14  N   UNL     1      62.993   9.459   5.541  1.00  0.00    -0.075 N 
HETATM   15  C   UNL     1      62.852  10.894   5.346  1.00  0.00     0.267 C 
HETATM   16  H   UNL     1      63.653   9.290   6.299  1.00  0.00     0.277 HD
HETATM   17  H   UNL     1      62.076   9.072   5.767  1.00  0.00     0.277 HD
ENDBRANCH  13  14
ENDBRANCH   3  13
TORSDOF 3
ENDMDL
MODEL 8
REMARK VINA RESULT:      -4.3      2.089      6.080
REMARK  3 active torsions:
REMARK  status: ('A' for Active; 'I' for Inactive)
REMARK    1  A    between atoms: N_1  and  C_2 
REMARK    2  A    between atoms: C_4  and  C_10 
REMARK    3  A    between atoms: N_5  and  C_10 
ROOT
HETATM    1  C   UNL     1      62.037   8.886   3.475  1.00  0.00     0.030 A 
HETATM    2  C   UNL     1      63.154   8.325   4.123  1.00  0.00     0.038 A 
HETATM    3  C   UNL     1      63.942   9.046   5.041  1.00  0.00    -0.031 A 
HETATM    4  C   UNL     1      61.731  10.216   3.806  1.00  0.00     0.029 A 
HETATM    5  C   UNL     1      62.499  10.954   4.710  1.00  0.00     0.003 A 
HETATM    6  C   UNL     1      63.606  10.375   5.319  1.00  0.00     0.009 A 
ENDROOT
BRANCH   1   7
HETATM    7  N   UNL     1      61.292   8.174   2.554  1.00  0.00    -0.381 N 
HETATM    8  C   UNL     1      60.640   6.905   2.885  1.00  0.00     0.123 C 
HETATM    9  C   UNL     1      61.140   5.816   1.937  1.00  0.00     0.020 C 
HETATM   10  C   UNL     1      60.945   6.226   0.478  1.00  0.00     0.003 C 
HETATM   11  C   UNL     1      61.569   7.592   0.200  1.00  0.00     0.020 C 
HETATM   12  C   UNL     1      61.079   8.653   1.187  1.00  0.00     0.123 C 
ENDBRANCH   1   7
BRANCH   3  13
HETATM   13  C   UNL     1      65.151   8.403   5.682  1.00  0.00     0.270 C 
BRANCH  13  14
HETATM   14  N   UNL     1      64.772   7.289   6.552  1.00  0.00    -0.075 N 
HETATM   15  C   UNL     1      65.522   6.087   6.223  1.00  0.00     0.267 C 
HETATM   16  H   UNL     1      63.776   7.102   6.437  1.00  0.00     0.277 HD
HETATM   17  H   UNL     1      64.980   7.547   7.517  1.00  0.00     0.277 HD
ENDBRANCH  13  14
ENDBRANCH   3  13
TORSDOF 3
ENDMDL
MODEL 9
REMARK VINA RESULT:      -4.3      1.569      2.283
REMARK  3 active torsions:
REMARK  status: ('A' for Active; 'I' for Inactive)
REMARK    1  A    between atoms: N_1  and  C_2 
REMARK    2  A    between atoms: C_4  and  C_10 
REMARK    3  A    between atoms: N_5  and  C_10 
ROOT
HETATM    1  C   UNL     1      63.612   7.082   4.538  1.00  0.00     0.030 A 
HETATM    2  C   UNL     1      63.468   7.972   3.457  1.00  0.00     0.038 A 
HETATM    3  C   UNL     1      62.211   8.360   2.954  1.00  0.00    -0.031 A 
HETATM    4  C   UNL     1      62.423   6.603   5.110  1.00  0.00     0.029 A 
HETATM    5  C   UNL     1      61.164   6.969   4.627  1.00  0.00     0.003 A 
HETATM    6  C   UNL     1      61.057   7.837   3.547  1.00  0.00     0.009 A 
ENDROOT
BRANCH   1   7
HETATM    7  N   UNL     1      64.853   6.687   5.000  1.00  0.00    -0.381 N 
HETATM    8  C   UNL     1      65.156   6.567   6.428  1.00  0.00     0.123 C 
HETATM    9  C   UNL     1      66.341   7.468   6.773  1.00  0.00     0.020 C 
HETATM   10  C   UNL     1      67.542   7.162   5.879  1.00  0.00     0.003 C 
HETATM   11  C   UNL     1      67.159   7.218   4.401  1.00  0.00     0.020 C 
HETATM   12  C   UNL     1      65.948   6.337   4.093  1.00  0.00     0.123 C 
ENDBRANCH   1   7
BRANCH   3  13
HETATM   13  C   UNL     1      62.116   9.294   1.769  1.00  0.00     0.270 C 
BRANCH  13  14
HETATM   14  N   UNL     1      61.218  10.418   2.038  1.00  0.00    -0.075 N 
HETATM   15  C   UNL     1      61.860  11.411   2.886  1.00  0.00     0.267 C 
HETATM   16  H   UNL     1      60.382  10.070   2.508  1.00  0.00     0.277 HD
HETATM   17  H   UNL     1      60.976  10.858   1.150  1.00  0.00     0.277 HD
ENDBRANCH  13  14
ENDBRANCH   3  13
TORSDOF 3
ENDMDL
