MODEL 1
REMARK VINA RESULT:      -5.3      0.000      0.000
REMARK  3 active torsions:
REMARK  status: ('A' for Active; 'I' for Inactive)
REMARK    1  A    between atoms: C_1  and  C_3 
REMARK    2  A    between atoms: C_11  and  C_13 
REMARK    3  A    between atoms: O_12  and  C_13 
ROOT
HETATM    1  C   UNL     1      63.782   8.701   4.937  1.00  0.00    -0.002 A 
HETATM    2  C   UNL     1      63.446   8.202   3.670  1.00  0.00     0.015 A 
HETATM    3  C   UNL     1      63.268   9.948   5.313  1.00  0.00     0.015 A 
HETATM    4  C   UNL     1      62.468  10.693   4.435  1.00  0.00     0.010 A 
HETATM    5  C   UNL     1      62.649   8.942   2.790  1.00  0.00     0.010 A 
HETATM    6  C   UNL     1      62.167  10.204   3.157  1.00  0.00    -0.035 A 
ENDROOT
BRANCH   1   7
HETATM    7  C   UNL     1      64.676   7.961   5.825  1.00  0.00     0.085 A 
HETATM    8  O   UNL     1      65.881   8.551   6.099  1.00  0.00    -0.322 OA
HETATM    9  C   UNL     1      66.541   7.749   6.972  1.00  0.00     0.142 A 
HETATM   10  C   UNL     1      65.786   6.639   7.267  1.00  0.00     0.027 A 
HETATM   11  C   UNL     1      64.588   6.769   6.522  1.00  0.00     0.040 A 
ENDBRANCH   1   7
BRANCH   6  12
HETATM   12  C   UNL     1      61.349  11.011   2.189  1.00  0.00     0.202 C 
BRANCH  12  13
HETATM   13  O   UNL     1      62.048  12.190   1.806  1.00  0.00    -0.396 OA
HETATM   14  H   UNL     1      61.571  12.628   1.084  1.00  0.00     0.209 HD
ENDBRANCH  12  13
ENDBRANCH   6  12
TORSDOF 3
ENDMDL
MODEL 2
REMARK VINA RESULT:      -5.0      2.530      5.090
REMARK  3 active torsions:
REMARK  status: ('A' for Active; 'I' for Inactive)
REMARK    1  A    between atoms: C_1  and  C_3 
REMARK    2  A    between atoms: C_11  and  C_13 
REMARK    3  A    between atoms: O_12  and  C_13 
ROOT
HETATM    1  C   UNL     1      62.115   8.968   3.015  1.00  0.00    -0.002 A 
HETATM    2  C   UNL     1      61.680  10.302   3.011  1.00  0.00     0.015 A 
HETATM    3  C   UNL     1      62.879   8.526   4.103  1.00  0.00     0.015 A 
HETATM    4  C   UNL     1      63.227   9.402   5.141  1.00  0.00     0.010 A 
HETATM    5  C   UNL     1      62.026  11.178   4.044  1.00  0.00     0.010 A 
HETATM    6  C   UNL     1      62.819  10.741   5.111  1.00  0.00    -0.035 A 
ENDROOT
BRANCH   1   7
HETATM    7  C   UNL     1      61.817   8.075   1.898  1.00  0.00     0.085 A 
HETATM    8  O   UNL     1      60.650   8.318   1.223  1.00  0.00    -0.322 OA
HETATM    9  C   UNL     1      60.576   7.430   0.200  1.00  0.00     0.142 A 
HETATM   10  C   UNL     1      61.676   6.605   0.200  1.00  0.00     0.027 A 
HETATM   11  C   UNL     1      62.472   7.012   1.300  1.00  0.00     0.040 A 
ENDBRANCH   1   7
BRANCH   6  12
HETATM   12  C   UNL     1      63.223  11.701   6.195  1.00  0.00     0.202 C 
BRANCH  12  13
HETATM   13  O   UNL     1      64.585  11.501   6.557  1.00  0.00    -0.396 OA
HETATM   14  H   UNL     1      64.876  12.225   7.133  1.00  0.00     0.209 HD
ENDBRANCH  12  13
ENDBRANCH   6  12
TORSDOF 3
ENDMDL
MODEL 3
REMARK VINA RESULT:      -4.8      1.387      2.180
REMARK  3 active torsions:
REMARK  status: ('A' for Active; 'I' for Inactive)
REMARK    1  A    between atoms: C_1  and  C_3 
REMARK    2  A    between atoms: C_11  and  C_13 
REMARK    3  A    between atoms: O_12  and  C_13 
ROOT
HETATM    1  C   UNL     1      64.908   7.827   4.965  1.00  0.00    -0.002 A 
HETATM    2  C   UNL     1      64.293   9.042   5.302  1.00  0.00     0.015 A 
HETATM    3  C   UNL     1      64.450   7.148   3.828  1.00  0.00     0.015 A 
HETATM    4  C   UNL     1      63.386   7.653   3.067  1.00  0.00     0.010 A 
HETATM    5  C   UNL     1      63.231   9.548   4.546  1.00  0.00     0.010 A 
HETATM    6  C   UNL     1      62.755   8.849   3.431  1.00  0.00    -0.035 A 
ENDROOT
BRANCH   1   7
HETATM    7  C   UNL     1      65.967   7.262   5.798  1.00  0.00     0.085 A 
HETATM    8  O   UNL     1      65.779   7.342   7.152  1.00  0.00    -0.322 OA
HETATM    9  C   UNL     1      66.829   6.724   7.749  1.00  0.00     0.142 A 
HETATM   10  C   UNL     1      67.704   6.245   6.803  1.00  0.00     0.027 A 
HETATM   11  C   UNL     1      67.155   6.599   5.546  1.00  0.00     0.040 A 
ENDBRANCH   1   7
BRANCH   6  12
HETATM   12  C   UNL     1      61.583   9.378   2.652  1.00  0.00     0.202 C 
BRANCH  12  13
HETATM   13  O   UNL     1      61.146  10.621   3.189  1.00  0.00    -0.396 OA
HETATM   14  H   UNL     1      60.844  10.490   4.101  1.00  0.00     0.209 HD
ENDBRANCH  12  13
ENDBRANCH   6  12
TORSDOF 3
ENDMDL
MODEL 4
REMARK VINA RESULT:      -4.7      1.570      5.651
REMARK  3 active torsions:
REMARK  status: ('A' for Active; 'I' for Inactive)
REMARK    1  A    between atoms: C_1  and  C_3 
REMARK    2  A    between atoms: C_11  and  C_13 
REMARK    3  A    between atoms: O_12  and  C_13 
ROOT
HETATM    1  C   UNL     1      64.098   8.290   5.105  1.00  0.00    -0.002 A 
HETATM    2  C   UNL     1      63.630   7.250   5.922  1.00  0.00     0.015 A 
HETATM    3  C   UNL     1      65.458   8.619   5.170  1.00  0.00     0.015 A 
HETATM    4  C   UNL     1      66.320   7.950   6.051  1.00  0.00     0.010 A 
HETATM    5  C   UNL     1      64.486   6.581   6.803  1.00  0.00     0.010 A 
HETATM    6  C   UNL     1      65.837   6.938   6.889  1.00  0.00    -0.035 A 
ENDROOT
BRANCH   1   7
HETATM    7  C   UNL     1      63.188   9.038   4.242  1.00  0.00     0.085 A 
HETATM    8  O   UNL     1      62.762  10.250   4.717  1.00  0.00    -0.322 OA
HETATM    9  C   UNL     1      61.977  10.811   3.763  1.00  0.00     0.142 A 
HETATM   10  C   UNL     1      61.878   9.979   2.673  1.00  0.00     0.027 A 
HETATM   11  C   UNL     1      62.650   8.832   2.984  1.00  0.00     0.040 A 
ENDBRANCH   1   7
BRANCH   6  12
HETATM   12  C   UNL     1      66.740   6.244   7.870  1.00  0.00     0.202 C 
BRANCH  12  13
HETATM   13  O   UNL     1      67.380   7.192   8.717  1.00  0.00    -0.396 OA
HETATM   14  H   UNL     1      68.071   7.655   8.218  1.00  0.00     0.209 HD
ENDBRANCH  12  13
ENDBRANCH   6  12
TORSDOF 3
ENDMDL
MODEL 5
REMARK VINA RESULT:      -4.5      2.262      5.693
REMARK  3 active torsions:
REMARK  status: ('A' for Active; 'I' for Inactive)
REMARK    1  A    between atoms: C_1  and  C_3 
REMARK    2  A    between atoms: C_11  and  C_13 
REMARK    3  A    between atoms: O_12  and  C_13 
ROOT
HETATM    1  C   UNL     1      63.035   7.930   3.213  1.00  0.00    -0.002 A 
HETATM    2  C   UNL     1      63.237   8.927   4.179  1.00  0.00     0.015 A 
HETATM    3  C   UNL     1      63.966   6.886   3.137  1.00  0.00     0.015 A 
HETATM    4  C   UNL     1      65.086   6.856   3.981  1.00  0.00     0.010 A 
HETATM    5  C   UNL     1      64.352   8.901   5.021  1.00  0.00     0.010 A 
HETATM    6  C   UNL     1      65.298   7.875   4.918  1.00  0.00    -0.035 A 
ENDROOT
BRANCH   1   7
HETATM    7  C   UNL     1      61.911   7.998   2.283  1.00  0.00     0.085 A 
HETATM    8  O   UNL     1      60.907   7.087   2.479  1.00  0.00    -0.322 OA
HETATM    9  C   UNL     1      59.939   7.341   1.563  1.00  0.00     0.142 A 
HETATM   10  C   UNL     1      60.299   8.401   0.765  1.00  0.00     0.027 A 
HETATM   11  C   UNL     1      61.574   8.819   1.221  1.00  0.00     0.040 A 
ENDBRANCH   1   7
BRANCH   6  12
HETATM   12  C   UNL     1      66.517   7.880   5.797  1.00  0.00     0.202 C 
BRANCH  12  13
HETATM   13  O   UNL     1      66.452   8.948   6.736  1.00  0.00    -0.396 OA
HETATM   14  H   UNL     1      66.687   8.618   7.617  1.00  0.00     0.209 HD
ENDBRANCH  12  13
ENDBRANCH   6  12
TORSDOF 3
ENDMDL
MODEL 6
REMARK VINA RESULT:      -4.5      1.808      5.816
REMARK  3 active torsions:
REMARK  status: ('A' for Active; 'I' for Inactive)
REMARK    1  A    between atoms: C_1  and  C_3 
REMARK    2  A    between atoms: C_11  and  C_13 
REMARK    3  A    between atoms: O_12  and  C_13 
ROOT
HETATM    1  C   UNL     1      64.279   8.213   5.338  1.00  0.00    -0.002 A 
HETATM    2  C   UNL     1      63.797   7.111   6.060  1.00  0.00     0.015 A 
HETATM    3  C   UNL     1      65.639   8.529   5.445  1.00  0.00     0.015 A 
HETATM    4  C   UNL     1      66.488   7.786   6.277  1.00  0.00     0.010 A 
HETATM    5  C   UNL     1      64.640   6.368   6.891  1.00  0.00     0.010 A 
HETATM    6  C   UNL     1      65.991   6.709   7.023  1.00  0.00    -0.035 A 
ENDROOT
BRANCH   1   7
HETATM    7  C   UNL     1      63.381   9.035   4.529  1.00  0.00     0.085 A 
HETATM    8  O   UNL     1      63.098   8.566   3.274  1.00  0.00    -0.322 OA
HETATM    9  C   UNL     1      62.218   9.427   2.704  1.00  0.00     0.142 A 
HETATM   10  C   UNL     1      61.926  10.456   3.568  1.00  0.00     0.027 A 
HETATM   11  C   UNL     1      62.682  10.210   4.740  1.00  0.00     0.040 A 
ENDBRANCH   1   7
BRANCH   6  12
HETATM   12  C   UNL     1      66.880   5.932   7.953  1.00  0.00     0.202 C 
BRANCH  12  13
HETATM   13  O   UNL     1      66.107   5.055   8.765  1.00  0.00    -0.396 OA
HETATM   14  H   UNL     1      65.702   4.373   8.208  1.00  0.00     0.209 HD
ENDBRANCH  12  13
ENDBRANCH   6  12
TORSDOF 3
ENDMDL
MODEL 7
REMARK VINA RESULT:      -4.3      2.275      5.516
REMARK  3 active torsions:
REMARK  status: ('A' for Active; 'I' for Inactive)
REMARK    1  A    between atoms: C_1  and  C_3 
REMARK    2  A    between atoms: C_11  and  C_13 
REMARK    3  A    between atoms: O_12  and  C_13 
ROOT
HETATM    1  C   UNL     1      64.803   8.080   4.903  1.00  0.00    -0.002 A 
HETATM    2  C   UNL     1      64.822   6.995   4.014  1.00  0.00     0.015 A 
HETATM    3  C   UNL     1      65.756   8.109   5.929  1.00  0.00     0.015 A 
HETATM    4  C   UNL     1      66.682   7.068   6.083  1.00  0.00     0.010 A 
HETATM    5  C   UNL     1      65.744   5.954   4.164  1.00  0.00     0.010 A 
HETATM    6  C   UNL     1      66.671   5.971   5.212  1.00  0.00    -0.035 A 
ENDROOT
BRANCH   1   7
HETATM    7  C   UNL     1      63.791   9.128   4.791  1.00  0.00     0.085 A 
HETATM    8  O   UNL     1      63.826  10.107   5.747  1.00  0.00    -0.322 OA
HETATM    9  C   UNL     1      62.857  11.008   5.447  1.00  0.00     0.142 A 
HETATM   10  C   UNL     1      62.184  10.627   4.309  1.00  0.00     0.027 A 
HETATM   11  C   UNL     1      62.779   9.411   3.891  1.00  0.00     0.040 A 
ENDBRANCH   1   7
BRANCH   6  12
HETATM   12  C   UNL     1      67.628   4.826   5.393  1.00  0.00     0.202 C 
BRANCH  12  13
HETATM   13  O   UNL     1      67.465   3.870   4.351  1.00  0.00    -0.396 OA
HETATM   14  H   UNL     1      66.520   3.732   4.186  1.00  0.00     0.209 HD
ENDBRANCH  12  13
ENDBRANCH   6  12
TORSDOF 3
ENDMDL
MODEL 8
REMARK VINA RESULT:      -4.2      1.832      2.981
REMARK  3 active torsions:
REMARK  status: ('A' for Active; 'I' for Inactive)
REMARK    1  A    between atoms: C_1  and  C_3 
REMARK    2  A    between atoms: C_11  and  C_13 
REMARK    3  A    between atoms: O_12  and  C_13 
ROOT
HETATM    1  C   UNL     1      65.146   6.980   6.563  1.00  0.00    -0.002 A 
HETATM    2  C   UNL     1      65.578   8.079   5.805  1.00  0.00     0.015 A 
HETATM    3  C   UNL     1      63.799   6.606   6.474  1.00  0.00     0.015 A 
HETATM    4  C   UNL     1      62.901   7.329   5.677  1.00  0.00     0.010 A 
HETATM    5  C   UNL     1      64.686   8.803   5.009  1.00  0.00     0.010 A 
HETATM    6  C   UNL     1      63.333   8.446   4.951  1.00  0.00    -0.035 A 
ENDROOT
BRANCH   1   7
HETATM    7  C   UNL     1      66.063   6.272   7.452  1.00  0.00     0.085 A 
HETATM    8  O   UNL     1      66.804   7.049   8.302  1.00  0.00    -0.322 OA
HETATM    9  C   UNL     1      67.546   6.218   9.076  1.00  0.00     0.142 A 
HETATM   10  C   UNL     1      67.306   4.907   8.739  1.00  0.00     0.027 A 
HETATM   11  C   UNL     1      66.358   4.940   7.686  1.00  0.00     0.040 A 
ENDBRANCH   1   7
BRANCH   6  12
HETATM   12  C   UNL     1      62.372   9.257   4.128  1.00  0.00     0.202 C 
BRANCH  12  13
HETATM   13  O   UNL     1      62.403  10.623   4.526  1.00  0.00    -0.396 OA
HETATM   14  H   UNL     1      62.660  11.174   3.771  1.00  0.00     0.209 HD
ENDBRANCH  12  13
ENDBRANCH   6  12
TORSDOF 3
ENDMDL
MODEL 9
REMARK VINA RESULT:      -4.1      2.137      2.530
REMARK  3 active torsions:
REMARK  status: ('A' for Active; 'I' for Inactive)
REMARK    1  A    between atoms: C_1  and  C_3 
REMARK    2  A    between atoms: C_11  and  C_13 
REMARK    3  A    between atoms: O_12  and  C_13 
ROOT
HETATM    1  C   UNL     1      63.795   7.584   5.379  1.00  0.00    -0.002 A 
HETATM    2  C   UNL     1      62.623   6.842   5.593  1.00  0.00     0.015 A 
HETATM    3  C   UNL     1      63.800   8.523   4.340  1.00  0.00     0.015 A 
HETATM    4  C   UNL     1      62.679   8.692   3.515  1.00  0.00     0.010 A 
HETATM    5  C   UNL     1      61.503   7.007   4.773  1.00  0.00     0.010 A 
HETATM    6  C   UNL     1      61.526   7.922   3.713  1.00  0.00    -0.035 A 
ENDROOT
BRANCH   1   7
HETATM    7  C   UNL     1      64.989   7.357   6.189  1.00  0.00     0.085 A 
HETATM    8  O   UNL     1      64.779   6.890   7.459  1.00  0.00    -0.322 OA
HETATM    9  C   UNL     1      65.995   6.692   8.028  1.00  0.00     0.142 A 
HETATM   10  C   UNL     1      66.997   7.030   7.150  1.00  0.00     0.027 A 
HETATM   11  C   UNL     1      66.351   7.468   5.967  1.00  0.00     0.040 A 
ENDBRANCH   1   7
BRANCH   6  12
HETATM   12  C   UNL     1      60.334   8.060   2.809  1.00  0.00     0.202 C 
BRANCH  12  13
HETATM   13  O   UNL     1      59.136   8.153   3.572  1.00  0.00    -0.396 OA
HETATM   14  H   UNL     1      58.413   7.723   3.092  1.00  0.00     0.209 HD
ENDBRANCH  12  13
ENDBRANCH   6  12
TORSDOF 3
ENDMDL
