MODEL 1
REMARK VINA RESULT:      -5.8      0.000      0.000
REMARK  2 active torsions:
REMARK  status: ('A' for Active; 'I' for Inactive)
REMARK    1  A    between atoms: N_1  and  C_3 
REMARK    2  A    between atoms: C_2  and  C_4 
ROOT
HETATM    1  C   UNL     1      65.127   7.715   4.759  1.00  0.00     0.031 A 
HETATM    2  C   UNL     1      63.305   9.338   4.492  1.00  0.00     0.043 A 
HETATM    3  C   UNL     1      64.466   8.893   5.144  1.00  0.00     0.047 A 
HETATM    4  C   UNL     1      64.561   6.993   3.695  1.00  0.00     0.029 A 
HETATM    5  C   UNL     1      62.771   8.592   3.439  1.00  0.00     0.018 A 
HETATM    6  C   UNL     1      63.400   7.419   3.041  1.00  0.00     0.003 A 
ENDROOT
BRANCH   1   7
HETATM    7  N   UNL     1      66.288   7.301   5.382  1.00  0.00    -0.381 N 
HETATM    8  C   UNL     1      66.724   7.857   6.665  1.00  0.00     0.123 C 
HETATM    9  C   UNL     1      66.960   6.709   7.650  1.00  0.00     0.020 C 
HETATM   10  C   UNL     1      67.907   5.656   7.079  1.00  0.00     0.003 C 
HETATM   11  C   UNL     1      67.442   5.175   5.704  1.00  0.00     0.020 C 
HETATM   12  C   UNL     1      67.209   6.351   4.758  1.00  0.00     0.123 C 
ENDBRANCH   1   7
BRANCH   2  13
HETATM   13  C   UNL     1      62.625  10.601   4.870  1.00  0.00     0.209 C 
HETATM   14  O   UNL     1      61.786  11.182   4.207  1.00  0.00    -0.644 OA
HETATM   15  O   UNL     1      63.032  11.087   6.055  1.00  0.00    -0.644 OA
ENDBRANCH   2  13
TORSDOF 2
ENDMDL
MODEL 2
REMARK VINA RESULT:      -5.7      0.929      1.587
REMARK  2 active torsions:
REMARK  status: ('A' for Active; 'I' for Inactive)
REMARK    1  A    between atoms: N_1  and  C_3 
REMARK    2  A    between atoms: C_2  and  C_4 
ROOT
HETATM    1  C   UNL     1      64.486   7.670   4.450  1.00  0.00     0.031 A 
HETATM    2  C   UNL     1      63.112   9.696   4.619  1.00  0.00     0.043 A 
HETATM    3  C   UNL     1      64.145   8.871   5.092  1.00  0.00     0.047 A 
HETATM    4  C   UNL     1      63.734   7.326   3.314  1.00  0.00     0.029 A 
HETATM    5  C   UNL     1      62.385   9.320   3.489  1.00  0.00     0.018 A 
HETATM    6  C   UNL     1      62.697   8.134   2.836  1.00  0.00     0.003 A 
ENDROOT
BRANCH   1   7
HETATM    7  N   UNL     1      65.526   6.880   4.900  1.00  0.00    -0.381 N 
HETATM    8  C   UNL     1      66.857   6.924   4.292  1.00  0.00     0.123 C 
HETATM    9  C   UNL     1      67.895   7.189   5.384  1.00  0.00     0.020 C 
HETATM   10  C   UNL     1      67.775   6.193   6.536  1.00  0.00     0.003 C 
HETATM   11  C   UNL     1      66.345   6.134   7.074  1.00  0.00     0.020 C 
HETATM   12  C   UNL     1      65.342   5.878   5.951  1.00  0.00     0.123 C 
ENDBRANCH   1   7
BRANCH   2  13
HETATM   13  C   UNL     1      62.772  10.984   5.273  1.00  0.00     0.209 C 
HETATM   14  O   UNL     1      63.130  11.333   6.382  1.00  0.00    -0.644 OA
HETATM   15  O   UNL     1      61.990  11.772   4.516  1.00  0.00    -0.644 OA
ENDBRANCH   2  13
TORSDOF 2
ENDMDL
MODEL 3
REMARK VINA RESULT:      -5.5      1.812      2.979
REMARK  2 active torsions:
REMARK  status: ('A' for Active; 'I' for Inactive)
REMARK    1  A    between atoms: N_1  and  C_3 
REMARK    2  A    between atoms: C_2  and  C_4 
ROOT
HETATM    1  C   UNL     1      63.199   7.699   2.986  1.00  0.00     0.031 A 
HETATM    2  C   UNL     1      62.186   9.892   2.552  1.00  0.00     0.043 A 
HETATM    3  C   UNL     1      62.886   9.007   3.388  1.00  0.00     0.047 A 
HETATM    4  C   UNL     1      62.766   7.311   1.707  1.00  0.00     0.029 A 
HETATM    5  C   UNL     1      61.770   9.470   1.289  1.00  0.00     0.018 A 
HETATM    6  C   UNL     1      62.060   8.179   0.866  1.00  0.00     0.003 A 
ENDROOT
BRANCH   1   7
HETATM    7  N   UNL     1      63.918   6.845   3.800  1.00  0.00    -0.381 N 
HETATM    8  C   UNL     1      64.880   5.881   3.261  1.00  0.00     0.123 C 
HETATM    9  C   UNL     1      66.229   6.084   3.954  1.00  0.00     0.020 C 
HETATM   10  C   UNL     1      66.098   6.041   5.476  1.00  0.00     0.003 C 
HETATM   11  C   UNL     1      65.023   7.009   5.970  1.00  0.00     0.020 C 
HETATM   12  C   UNL     1      63.698   6.780   5.245  1.00  0.00     0.123 C 
ENDBRANCH   1   7
BRANCH   2  13
HETATM   13  C   UNL     1      61.886  11.287   2.959  1.00  0.00     0.209 C 
HETATM   14  O   UNL     1      61.734  11.676   4.101  1.00  0.00    -0.644 OA
HETATM   15  O   UNL     1      61.777  12.130   1.918  1.00  0.00    -0.644 OA
ENDBRANCH   2  13
TORSDOF 2
ENDMDL
MODEL 4
REMARK VINA RESULT:      -5.2      2.628      5.496
REMARK  2 active torsions:
REMARK  status: ('A' for Active; 'I' for Inactive)
REMARK    1  A    between atoms: N_1  and  C_3 
REMARK    2  A    between atoms: C_2  and  C_4 
ROOT
HETATM    1  C   UNL     1      63.562   8.047   3.667  1.00  0.00     0.031 A 
HETATM    2  C   UNL     1      65.593   7.484   4.925  1.00  0.00     0.043 A 
HETATM    3  C   UNL     1      64.629   8.414   4.503  1.00  0.00     0.047 A 
HETATM    4  C   UNL     1      63.511   6.703   3.261  1.00  0.00     0.029 A 
HETATM    5  C   UNL     1      65.510   6.157   4.499  1.00  0.00     0.018 A 
HETATM    6  C   UNL     1      64.468   5.767   3.666  1.00  0.00     0.003 A 
ENDROOT
BRANCH   1   7
HETATM    7  N   UNL     1      62.598   8.960   3.283  1.00  0.00    -0.381 N 
HETATM    8  C   UNL     1      61.936   9.843   4.245  1.00  0.00     0.123 C 
HETATM    9  C   UNL     1      62.081  11.291   3.772  1.00  0.00     0.020 C 
HETATM   10  C   UNL     1      61.599  11.471   2.334  1.00  0.00     0.003 C 
HETATM   11  C   UNL     1      62.266  10.467   1.393  1.00  0.00     0.020 C 
HETATM   12  C   UNL     1      62.106   9.038   1.907  1.00  0.00     0.123 C 
ENDBRANCH   1   7
BRANCH   2  13
HETATM   13  C   UNL     1      66.701   7.858   5.837  1.00  0.00     0.209 C 
HETATM   14  O   UNL     1      67.798   7.335   5.874  1.00  0.00    -0.644 OA
HETATM   15  O   UNL     1      66.383   8.862   6.672  1.00  0.00    -0.644 OA
ENDBRANCH   2  13
TORSDOF 2
ENDMDL
MODEL 5
REMARK VINA RESULT:      -5.1      2.360      3.281
REMARK  2 active torsions:
REMARK  status: ('A' for Active; 'I' for Inactive)
REMARK    1  A    between atoms: N_1  and  C_3 
REMARK    2  A    between atoms: C_2  and  C_4 
ROOT
HETATM    1  C   UNL     1      63.516   8.810   4.673  1.00  0.00     0.031 A 
HETATM    2  C   UNL     1      62.283   9.327   2.615  1.00  0.00     0.043 A 
HETATM    3  C   UNL     1      63.098   8.473   3.376  1.00  0.00     0.047 A 
HETATM    4  C   UNL     1      63.087  10.051   5.172  1.00  0.00     0.029 A 
HETATM    5  C   UNL     1      61.879  10.554   3.144  1.00  0.00     0.018 A 
HETATM    6  C   UNL     1      62.282  10.916   4.423  1.00  0.00     0.003 A 
ENDROOT
BRANCH   1   7
HETATM    7  N   UNL     1      64.289   7.950   5.429  1.00  0.00    -0.381 N 
HETATM    8  C   UNL     1      63.699   6.967   6.339  1.00  0.00     0.123 C 
HETATM    9  C   UNL     1      64.251   5.580   5.999  1.00  0.00     0.020 C 
HETATM   10  C   UNL     1      65.778   5.565   5.981  1.00  0.00     0.003 C 
HETATM   11  C   UNL     1      66.335   6.666   5.077  1.00  0.00     0.020 C 
HETATM   12  C   UNL     1      65.751   8.029   5.443  1.00  0.00     0.123 C 
ENDBRANCH   1   7
BRANCH   2  13
HETATM   13  C   UNL     1      61.809   8.960   1.258  1.00  0.00     0.209 C 
HETATM   14  O   UNL     1      62.489   8.939   0.250  1.00  0.00    -0.644 OA
HETATM   15  O   UNL     1      60.503   8.646   1.220  1.00  0.00    -0.644 OA
ENDBRANCH   2  13
TORSDOF 2
ENDMDL
MODEL 6
REMARK VINA RESULT:      -5.0      3.136      6.052
REMARK  2 active torsions:
REMARK  status: ('A' for Active; 'I' for Inactive)
REMARK    1  A    between atoms: N_1  and  C_3 
REMARK    2  A    between atoms: C_2  and  C_4 
ROOT
HETATM    1  C   UNL     1      62.088   8.589   3.056  1.00  0.00     0.031 A 
HETATM    2  C   UNL     1      63.836   8.869   4.756  1.00  0.00     0.043 A 
HETATM    3  C   UNL     1      63.190   8.099   3.775  1.00  0.00     0.047 A 
HETATM    4  C   UNL     1      61.652   9.886   3.374  1.00  0.00     0.029 A 
HETATM    5  C   UNL     1      63.373  10.153   5.047  1.00  0.00     0.018 A 
HETATM    6  C   UNL     1      62.280  10.662   4.355  1.00  0.00     0.003 A 
ENDROOT
BRANCH   1   7
HETATM    7  N   UNL     1      61.479   7.840   2.068  1.00  0.00    -0.381 N 
HETATM    8  C   UNL     1      61.216   6.408   2.227  1.00  0.00     0.123 C 
HETATM    9  C   UNL     1      59.732   6.142   1.964  1.00  0.00     0.020 C 
HETATM   10  C   UNL     1      59.283   6.707   0.618  1.00  0.00     0.003 C 
HETATM   11  C   UNL     1      59.657   8.183   0.481  1.00  0.00     0.020 C 
HETATM   12  C   UNL     1      61.142   8.405   0.760  1.00  0.00     0.123 C 
ENDBRANCH   1   7
BRANCH   2  13
HETATM   13  C   UNL     1      65.023   8.370   5.492  1.00  0.00     0.209 C 
HETATM   14  O   UNL     1      66.184   8.595   5.203  1.00  0.00    -0.644 OA
HETATM   15  O   UNL     1      64.707   7.602   6.549  1.00  0.00    -0.644 OA
ENDBRANCH   2  13
TORSDOF 2
ENDMDL
MODEL 7
REMARK VINA RESULT:      -4.9      3.065      5.516
REMARK  2 active torsions:
REMARK  status: ('A' for Active; 'I' for Inactive)
REMARK    1  A    between atoms: N_1  and  C_3 
REMARK    2  A    between atoms: C_2  and  C_4 
ROOT
HETATM    1  C   UNL     1      64.974   7.453   5.368  1.00  0.00     0.031 A 
HETATM    2  C   UNL     1      66.293   6.560   7.236  1.00  0.00     0.043 A 
HETATM    3  C   UNL     1      65.068   6.963   6.681  1.00  0.00     0.047 A 
HETATM    4  C   UNL     1      66.171   7.532   4.637  1.00  0.00     0.029 A 
HETATM    5  C   UNL     1      67.462   6.656   6.480  1.00  0.00     0.018 A 
HETATM    6  C   UNL     1      67.401   7.143   5.180  1.00  0.00     0.003 A 
ENDROOT
BRANCH   1   7
HETATM    7  N   UNL     1      63.760   7.815   4.817  1.00  0.00    -0.381 N 
HETATM    8  C   UNL     1      62.939   8.888   5.379  1.00  0.00     0.123 C 
HETATM    9  C   UNL     1      62.619   9.900   4.276  1.00  0.00     0.020 C 
HETATM   10  C   UNL     1      62.003   9.228   3.050  1.00  0.00     0.003 C 
HETATM   11  C   UNL     1      62.866   8.065   2.560  1.00  0.00     0.020 C 
HETATM   12  C   UNL     1      63.169   7.087   3.693  1.00  0.00     0.123 C 
ENDBRANCH   1   7
BRANCH   2  13
HETATM   13  C   UNL     1      66.391   6.008   8.609  1.00  0.00     0.209 C 
HETATM   14  O   UNL     1      66.589   6.653   9.622  1.00  0.00    -0.644 OA
HETATM   15  O   UNL     1      66.249   4.673   8.654  1.00  0.00    -0.644 OA
ENDBRANCH   2  13
TORSDOF 2
ENDMDL
MODEL 8
REMARK VINA RESULT:      -4.6      4.236      6.711
REMARK  2 active torsions:
REMARK  status: ('A' for Active; 'I' for Inactive)
REMARK    1  A    between atoms: N_1  and  C_3 
REMARK    2  A    between atoms: C_2  and  C_4 
ROOT
HETATM    1  C   UNL     1      66.031   6.064   7.219  1.00  0.00     0.031 A 
HETATM    2  C   UNL     1      67.204   4.217   8.331  1.00  0.00     0.043 A 
HETATM    3  C   UNL     1      66.283   4.693   7.384  1.00  0.00     0.047 A 
HETATM    4  C   UNL     1      66.739   6.941   8.059  1.00  0.00     0.029 A 
HETATM    5  C   UNL     1      67.886   5.119   9.149  1.00  0.00     0.018 A 
HETATM    6  C   UNL     1      67.653   6.482   9.013  1.00  0.00     0.003 A 
ENDROOT
BRANCH   1   7
HETATM    7  N   UNL     1      65.149   6.527   6.262  1.00  0.00    -0.381 N 
HETATM    8  C   UNL     1      63.740   6.129   6.243  1.00  0.00     0.123 C 
HETATM    9  C   UNL     1      62.868   7.387   6.233  1.00  0.00     0.020 C 
HETATM   10  C   UNL     1      63.256   8.338   5.102  1.00  0.00     0.003 C 
HETATM   11  C   UNL     1      64.752   8.651   5.127  1.00  0.00     0.020 C 
HETATM   12  C   UNL     1      65.584   7.371   5.147  1.00  0.00     0.123 C 
ENDBRANCH   1   7
BRANCH   2  13
HETATM   13  C   UNL     1      67.500   2.771   8.483  1.00  0.00     0.209 C 
HETATM   14  O   UNL     1      67.420   2.135   9.517  1.00  0.00    -0.644 OA
HETATM   15  O   UNL     1      67.895   2.189   7.338  1.00  0.00    -0.644 OA
ENDBRANCH   2  13
TORSDOF 2
ENDMDL
MODEL 9
REMARK VINA RESULT:      -4.6      3.868      5.391
REMARK  2 active torsions:
REMARK  status: ('A' for Active; 'I' for Inactive)
REMARK    1  A    between atoms: N_1  and  C_3 
REMARK    2  A    between atoms: C_2  and  C_4 
ROOT
HETATM    1  C   UNL     1      62.026   8.346   2.136  1.00  0.00     0.031 A 
HETATM    2  C   UNL     1      62.512   9.790   4.060  1.00  0.00     0.043 A 
HETATM    3  C   UNL     1      62.448   8.520   3.465  1.00  0.00     0.047 A 
HETATM    4  C   UNL     1      61.660   9.506   1.433  1.00  0.00     0.029 A 
HETATM    5  C   UNL     1      62.138  10.919   3.331  1.00  0.00     0.018 A 
HETATM    6  C   UNL     1      61.711  10.776   2.016  1.00  0.00     0.003 A 
ENDROOT
BRANCH   1   7
HETATM    7  N   UNL     1      61.998   7.098   1.545  1.00  0.00    -0.381 N 
HETATM    8  C   UNL     1      62.590   5.920   2.183  1.00  0.00     0.123 C 
HETATM    9  C   UNL     1      61.536   4.815   2.264  1.00  0.00     0.020 C 
HETATM   10  C   UNL     1      60.906   4.528   0.902  1.00  0.00     0.003 C 
HETATM   11  C   UNL     1      60.379   5.808   0.252  1.00  0.00     0.020 C 
HETATM   12  C   UNL     1      61.459   6.886   0.201  1.00  0.00     0.123 C 
ENDBRANCH   1   7
BRANCH   2  13
HETATM   13  C   UNL     1      62.992   9.983   5.451  1.00  0.00     0.209 C 
HETATM   14  O   UNL     1      63.426  11.020   5.915  1.00  0.00    -0.644 OA
HETATM   15  O   UNL     1      62.917   8.867   6.196  1.00  0.00    -0.644 OA
ENDBRANCH   2  13
TORSDOF 2
ENDMDL
