MODEL 1
REMARK VINA RESULT:      -5.2      0.000      0.000
REMARK  2 active torsions:
REMARK  status: ('A' for Active; 'I' for Inactive)
REMARK    1  A    between atoms: C_1  and  C_3 
REMARK    2  A    between atoms: C_9  and  N_10 
ROOT
HETATM    1  C   UNL     1      63.720   8.875   4.829  1.00  0.00    -0.002 A 
HETATM    2  C   UNL     1      63.328   8.395   3.571  1.00  0.00     0.016 A 
HETATM    3  C   UNL     1      63.223  10.118   5.241  1.00  0.00     0.016 A 
HETATM    4  C   UNL     1      61.966  10.369   3.174  1.00  0.00     0.025 A 
HETATM    5  C   UNL     1      62.480   9.146   2.746  1.00  0.00     0.030 A 
HETATM    6  C   UNL     1      62.376  10.865   4.411  1.00  0.00     0.030 A 
ENDROOT
BRANCH   1   7
HETATM    7  C   UNL     1      64.658   8.130   5.666  1.00  0.00     0.085 A 
HETATM    8  O   UNL     1      65.831   8.762   5.978  1.00  0.00    -0.322 OA
HETATM    9  C   UNL     1      66.536   7.936   6.790  1.00  0.00     0.142 A 
HETATM   10  C   UNL     1      65.845   6.769   7.007  1.00  0.00     0.027 A 
HETATM   11  C   UNL     1      64.636   6.889   6.278  1.00  0.00     0.040 A 
ENDBRANCH   1   7
BRANCH   4  12
HETATM   12  N   UNL     1      61.256  11.186   2.287  1.00  0.00    -0.399 N 
HETATM   13  H   UNL     1      61.376  12.163   2.315  1.00  0.00     0.156 HD
HETATM   14  H   UNL     1      60.636  10.784   1.637  1.00  0.00     0.156 HD
ENDBRANCH   4  12
TORSDOF 2
ENDMDL
MODEL 2
REMARK VINA RESULT:      -5.0      2.866      4.897
REMARK  2 active torsions:
REMARK  status: ('A' for Active; 'I' for Inactive)
REMARK    1  A    between atoms: C_1  and  C_3 
REMARK    2  A    between atoms: C_9  and  N_10 
ROOT
HETATM    1  C   UNL     1      62.235   9.303   3.141  1.00  0.00    -0.002 A 
HETATM    2  C   UNL     1      61.810  10.621   3.365  1.00  0.00     0.016 A 
HETATM    3  C   UNL     1      63.109   8.729   4.073  1.00  0.00     0.016 A 
HETATM    4  C   UNL     1      63.108  10.757   5.415  1.00  0.00     0.025 A 
HETATM    5  C   UNL     1      62.261  11.344   4.476  1.00  0.00     0.030 A 
HETATM    6  C   UNL     1      63.558   9.458   5.183  1.00  0.00     0.030 A 
ENDROOT
BRANCH   1   7
HETATM    7  C   UNL     1      61.823   8.565   1.948  1.00  0.00     0.085 A 
HETATM    8  O   UNL     1      62.784   7.803   1.342  1.00  0.00    -0.322 OA
HETATM    9  C   UNL     1      62.201   7.169   0.295  1.00  0.00     0.142 A 
HETATM   10  C   UNL     1      60.874   7.512   0.203  1.00  0.00     0.027 A 
HETATM   11  C   UNL     1      60.630   8.417   1.264  1.00  0.00     0.040 A 
ENDBRANCH   1   7
BRANCH   4  12
HETATM   12  N   UNL     1      63.683  11.531   6.429  1.00  0.00    -0.399 N 
HETATM   13  H   UNL     1      64.618  11.377   6.695  1.00  0.00     0.156 HD
HETATM   14  H   UNL     1      63.152  12.228   6.877  1.00  0.00     0.156 HD
ENDBRANCH   4  12
TORSDOF 2
ENDMDL
MODEL 3
REMARK VINA RESULT:      -4.8      0.684      1.554
REMARK  2 active torsions:
REMARK  status: ('A' for Active; 'I' for Inactive)
REMARK    1  A    between atoms: C_1  and  C_3 
REMARK    2  A    between atoms: C_9  and  N_10 
ROOT
HETATM    1  C   UNL     1      63.927   8.454   4.681  1.00  0.00    -0.002 A 
HETATM    2  C   UNL     1      63.203   9.630   4.921  1.00  0.00     0.016 A 
HETATM    3  C   UNL     1      63.684   7.767   3.485  1.00  0.00     0.016 A 
HETATM    4  C   UNL     1      62.040   9.421   2.797  1.00  0.00     0.025 A 
HETATM    5  C   UNL     1      62.255  10.094   3.999  1.00  0.00     0.030 A 
HETATM    6  C   UNL     1      62.735   8.234   2.566  1.00  0.00     0.030 A 
ENDROOT
BRANCH   1   7
HETATM    7  C   UNL     1      64.867   7.927   5.668  1.00  0.00     0.085 A 
HETATM    8  O   UNL     1      65.947   8.713   5.962  1.00  0.00    -0.322 OA
HETATM    9  C   UNL     1      66.667   8.079   6.920  1.00  0.00     0.142 A 
HETATM   10  C   UNL     1      66.076   6.883   7.253  1.00  0.00     0.027 A 
HETATM   11  C   UNL     1      64.919   6.780   6.442  1.00  0.00     0.040 A 
ENDBRANCH   1   7
BRANCH   4  12
HETATM   12  N   UNL     1      60.983   9.794   1.959  1.00  0.00    -0.399 N 
HETATM   13  H   UNL     1      60.053   9.699   2.270  1.00  0.00     0.156 HD
HETATM   14  H   UNL     1      61.169  10.149   1.060  1.00  0.00     0.156 HD
ENDBRANCH   4  12
TORSDOF 2
ENDMDL
MODEL 4
REMARK VINA RESULT:      -4.7      0.909      1.760
REMARK  2 active torsions:
REMARK  status: ('A' for Active; 'I' for Inactive)
REMARK    1  A    between atoms: C_1  and  C_3 
REMARK    2  A    between atoms: C_9  and  N_10 
ROOT
HETATM    1  C   UNL     1      63.237   8.526   4.583  1.00  0.00    -0.002 A 
HETATM    2  C   UNL     1      62.948   9.783   5.130  1.00  0.00     0.016 A 
HETATM    3  C   UNL     1      62.917   8.308   3.237  1.00  0.00     0.016 A 
HETATM    4  C   UNL     1      62.055  10.570   3.011  1.00  0.00     0.025 A 
HETATM    5  C   UNL     1      62.343  10.784   4.359  1.00  0.00     0.030 A 
HETATM    6  C   UNL     1      62.312   9.311   2.469  1.00  0.00     0.030 A 
ENDROOT
BRANCH   1   7
HETATM    7  C   UNL     1      63.804   7.454   5.400  1.00  0.00     0.085 A 
HETATM    8  O   UNL     1      64.692   7.832   6.369  1.00  0.00    -0.322 OA
HETATM    9  C   UNL     1      65.065   6.714   7.040  1.00  0.00     0.142 A 
HETATM   10  C   UNL     1      64.439   5.608   6.517  1.00  0.00     0.027 A 
HETATM   11  C   UNL     1      63.631   6.082   5.455  1.00  0.00     0.040 A 
ENDBRANCH   1   7
BRANCH   4  12
HETATM   12  N   UNL     1      61.306  11.508   2.292  1.00  0.00    -0.399 N 
HETATM   13  H   UNL     1      61.226  11.428   1.314  1.00  0.00     0.156 HD
HETATM   14  H   UNL     1      60.861  12.248   2.764  1.00  0.00     0.156 HD
ENDBRANCH   4  12
TORSDOF 2
ENDMDL
MODEL 5
REMARK VINA RESULT:      -4.3      2.988      5.100
REMARK  2 active torsions:
REMARK  status: ('A' for Active; 'I' for Inactive)
REMARK    1  A    between atoms: C_1  and  C_3 
REMARK    2  A    between atoms: C_9  and  N_10 
ROOT
HETATM    1  C   UNL     1      63.482   8.123   4.251  1.00  0.00    -0.002 A 
HETATM    2  C   UNL     1      62.798   7.319   5.174  1.00  0.00     0.016 A 
HETATM    3  C   UNL     1      64.832   8.402   4.499  1.00  0.00     0.016 A 
HETATM    4  C   UNL     1      64.794   7.082   6.541  1.00  0.00     0.025 A 
HETATM    5  C   UNL     1      63.442   6.825   6.316  1.00  0.00     0.030 A 
HETATM    6  C   UNL     1      65.471   7.906   5.643  1.00  0.00     0.030 A 
ENDROOT
BRANCH   1   7
HETATM    7  C   UNL     1      62.800   8.699   3.094  1.00  0.00     0.085 A 
HETATM    8  O   UNL     1      62.387   9.997   3.214  1.00  0.00    -0.322 OA
HETATM    9  C   UNL     1      61.825  10.358   2.033  1.00  0.00     0.142 A 
HETATM   10  C   UNL     1      61.858   9.310   1.145  1.00  0.00     0.027 A 
HETATM   11  C   UNL     1      62.480   8.237   1.829  1.00  0.00     0.040 A 
ENDBRANCH   1   7
BRANCH   4  12
HETATM   12  N   UNL     1      65.387   6.726   7.757  1.00  0.00    -0.399 N 
HETATM   13  H   UNL     1      65.284   5.811   8.105  1.00  0.00     0.156 HD
HETATM   14  H   UNL     1      65.905   7.391   8.265  1.00  0.00     0.156 HD
ENDBRANCH   4  12
TORSDOF 2
ENDMDL
MODEL 6
REMARK VINA RESULT:      -4.2      3.074      5.259
REMARK  2 active torsions:
REMARK  status: ('A' for Active; 'I' for Inactive)
REMARK    1  A    between atoms: C_1  and  C_3 
REMARK    2  A    between atoms: C_9  and  N_10 
ROOT
HETATM    1  C   UNL     1      64.685   7.983   5.400  1.00  0.00    -0.002 A 
HETATM    2  C   UNL     1      66.011   8.429   5.322  1.00  0.00     0.016 A 
HETATM    3  C   UNL     1      64.367   7.041   6.386  1.00  0.00     0.016 A 
HETATM    4  C   UNL     1      66.662   7.019   7.192  1.00  0.00     0.025 A 
HETATM    5  C   UNL     1      66.991   7.935   6.193  1.00  0.00     0.030 A 
HETATM    6  C   UNL     1      65.350   6.549   7.255  1.00  0.00     0.030 A 
ENDROOT
BRANCH   1   7
HETATM    7  C   UNL     1      63.672   8.442   4.451  1.00  0.00     0.085 A 
HETATM    8  O   UNL     1      62.999   9.586   4.784  1.00  0.00    -0.322 OA
HETATM    9  C   UNL     1      62.147   9.869   3.768  1.00  0.00     0.142 A 
HETATM   10  C   UNL     1      62.248   8.922   2.778  1.00  0.00     0.027 A 
HETATM   11  C   UNL     1      63.226   7.997   3.219  1.00  0.00     0.040 A 
ENDBRANCH   1   7
BRANCH   4  12
HETATM   12  N   UNL     1      67.668   6.408   7.948  1.00  0.00    -0.399 N 
HETATM   13  H   UNL     1      68.440   6.935   8.256  1.00  0.00     0.156 HD
HETATM   14  H   UNL     1      67.603   5.452   8.171  1.00  0.00     0.156 HD
ENDBRANCH   4  12
TORSDOF 2
ENDMDL
MODEL 7
REMARK VINA RESULT:      -4.1      3.090      5.363
REMARK  2 active torsions:
REMARK  status: ('A' for Active; 'I' for Inactive)
REMARK    1  A    between atoms: C_1  and  C_3 
REMARK    2  A    between atoms: C_9  and  N_10 
ROOT
HETATM    1  C   UNL     1      63.052   8.138   3.376  1.00  0.00    -0.002 A 
HETATM    2  C   UNL     1      63.059   9.196   4.296  1.00  0.00     0.016 A 
HETATM    3  C   UNL     1      64.050   7.163   3.490  1.00  0.00     0.016 A 
HETATM    4  C   UNL     1      65.018   8.292   5.414  1.00  0.00     0.025 A 
HETATM    5  C   UNL     1      64.044   9.282   5.288  1.00  0.00     0.030 A 
HETATM    6  C   UNL     1      65.034   7.254   4.484  1.00  0.00     0.030 A 
ENDROOT
BRANCH   1   7
HETATM    7  C   UNL     1      62.068   8.078   2.296  1.00  0.00     0.085 A 
HETATM    8  O   UNL     1      60.927   7.367   2.550  1.00  0.00    -0.322 OA
HETATM    9  C   UNL     1      60.131   7.468   1.457  1.00  0.00     0.142 A 
HETATM   10  C   UNL     1      60.739   8.229   0.488  1.00  0.00     0.027 A 
HETATM   11  C   UNL     1      61.991   8.617   1.024  1.00  0.00     0.040 A 
ENDBRANCH   1   7
BRANCH   4  12
HETATM   12  N   UNL     1      66.091   8.466   6.296  1.00  0.00    -0.399 N 
HETATM   13  H   UNL     1      66.036   8.111   7.213  1.00  0.00     0.156 HD
HETATM   14  H   UNL     1      66.898   8.944   6.000  1.00  0.00     0.156 HD
ENDBRANCH   4  12
TORSDOF 2
ENDMDL
MODEL 8
REMARK VINA RESULT:      -4.0      2.009      2.932
REMARK  2 active torsions:
REMARK  status: ('A' for Active; 'I' for Inactive)
REMARK    1  A    between atoms: C_1  and  C_3 
REMARK    2  A    between atoms: C_9  and  N_10 
ROOT
HETATM    1  C   UNL     1      65.042   7.217   6.293  1.00  0.00    -0.002 A 
HETATM    2  C   UNL     1      63.764   6.663   6.454  1.00  0.00     0.016 A 
HETATM    3  C   UNL     1      65.187   8.276   5.387  1.00  0.00     0.016 A 
HETATM    4  C   UNL     1      62.818   8.216   4.842  1.00  0.00     0.025 A 
HETATM    5  C   UNL     1      62.672   7.143   5.720  1.00  0.00     0.030 A 
HETATM    6  C   UNL     1      64.092   8.752   4.654  1.00  0.00     0.030 A 
ENDROOT
BRANCH   1   7
HETATM    7  C   UNL     1      66.199   6.678   7.005  1.00  0.00     0.085 A 
HETATM    8  O   UNL     1      66.146   6.715   8.371  1.00  0.00    -0.322 OA
HETATM    9  C   UNL     1      67.278   6.134   8.840  1.00  0.00     0.142 A 
HETATM   10  C   UNL     1      68.074   5.723   7.798  1.00  0.00     0.027 A 
HETATM   11  C   UNL     1      67.384   6.079   6.614  1.00  0.00     0.040 A 
ENDBRANCH   1   7
BRANCH   4  12
HETATM   12  N   UNL     1      61.767   8.582   3.994  1.00  0.00    -0.399 N 
HETATM   13  H   UNL     1      61.612   9.532   3.784  1.00  0.00     0.156 HD
HETATM   14  H   UNL     1      61.183   7.891   3.608  1.00  0.00     0.156 HD
ENDBRANCH   4  12
TORSDOF 2
ENDMDL
MODEL 9
REMARK VINA RESULT:      -4.0      1.653      2.034
REMARK  2 active torsions:
REMARK  status: ('A' for Active; 'I' for Inactive)
REMARK    1  A    between atoms: C_1  and  C_3 
REMARK    2  A    between atoms: C_9  and  N_10 
ROOT
HETATM    1  C   UNL     1      63.747   7.323   5.433  1.00  0.00    -0.002 A 
HETATM    2  C   UNL     1      62.529   6.665   5.217  1.00  0.00     0.016 A 
HETATM    3  C   UNL     1      63.923   8.584   4.849  1.00  0.00     0.016 A 
HETATM    4  C   UNL     1      61.697   8.512   3.873  1.00  0.00     0.025 A 
HETATM    5  C   UNL     1      61.526   7.243   4.428  1.00  0.00     0.030 A 
HETATM    6  C   UNL     1      62.918   9.158   4.059  1.00  0.00     0.030 A 
ENDROOT
BRANCH   1   7
HETATM    7  C   UNL     1      64.823   6.697   6.199  1.00  0.00     0.085 A 
HETATM    8  O   UNL     1      64.949   7.086   7.504  1.00  0.00    -0.322 OA
HETATM    9  C   UNL     1      65.961   6.367   8.049  1.00  0.00     0.142 A 
HETATM   10  C   UNL     1      66.505   5.517   7.116  1.00  0.00     0.027 A 
HETATM   11  C   UNL     1      65.777   5.734   5.920  1.00  0.00     0.040 A 
ENDBRANCH   1   7
BRANCH   4  12
HETATM   12  N   UNL     1      60.766   9.012   2.956  1.00  0.00    -0.399 N 
HETATM   13  H   UNL     1      61.074   9.520   2.171  1.00  0.00     0.156 HD
HETATM   14  H   UNL     1      59.805   8.856   3.097  1.00  0.00     0.156 HD
ENDBRANCH   4  12
TORSDOF 2
ENDMDL
