MODEL 1
REMARK VINA RESULT:      -5.2      0.000      0.000
REMARK  3 active torsions:
REMARK  status: ('A' for Active; 'I' for Inactive)
REMARK    1  A    between atoms: N_1  and  C_2 
REMARK    2  A    between atoms: C_4  and  C_10 
REMARK    3  A    between atoms: N_5  and  C_10 
ROOT
HETATM    1  C   UNL     1      65.254   7.725   4.849  1.00  0.00     0.030 A 
HETATM    2  C   UNL     1      64.528   8.881   5.192  1.00  0.00     0.038 A 
HETATM    3  C   UNL     1      63.355   9.270   4.519  1.00  0.00    -0.031 A 
HETATM    4  C   UNL     1      64.733   6.951   3.802  1.00  0.00     0.029 A 
HETATM    5  C   UNL     1      63.559   7.310   3.126  1.00  0.00     0.003 A 
HETATM    6  C   UNL     1      62.874   8.466   3.483  1.00  0.00     0.009 A 
ENDROOT
BRANCH   1   7
HETATM    7  N   UNL     1      66.420   7.381   5.510  1.00  0.00    -0.381 N 
HETATM    8  C   UNL     1      67.377   6.429   4.942  1.00  0.00     0.123 C 
HETATM    9  C   UNL     1      67.538   5.240   5.892  1.00  0.00     0.020 C 
HETATM   10  C   UNL     1      67.894   5.691   7.306  1.00  0.00     0.003 C 
HETATM   11  C   UNL     1      66.890   6.723   7.820  1.00  0.00     0.020 C 
HETATM   12  C   UNL     1      66.749   7.889   6.843  1.00  0.00     0.123 C 
ENDBRANCH   1   7
BRANCH   3  13
HETATM   13  C   UNL     1      62.632  10.532   4.912  1.00  0.00     0.268 C 
BRANCH  13  14
HETATM   14  N   UNL     1      63.350  11.252   5.958  1.00  0.00    -0.075 N 
HETATM   15  H   UNL     1      63.606  12.180   5.618  1.00  0.00     0.274 HD
HETATM   16  H   UNL     1      64.194  10.737   6.209  1.00  0.00     0.274 HD
HETATM   17  H   UNL     1      62.752  11.345   6.779  1.00  0.00     0.274 HD
ENDBRANCH  13  14
ENDBRANCH   3  13
TORSDOF 3
ENDMDL
MODEL 2
REMARK VINA RESULT:      -4.9      1.453      1.557
REMARK  3 active torsions:
REMARK  status: ('A' for Active; 'I' for Inactive)
REMARK    1  A    between atoms: N_1  and  C_2 
REMARK    2  A    between atoms: C_4  and  C_10 
REMARK    3  A    between atoms: N_5  and  C_10 
ROOT
HETATM    1  C   UNL     1      64.431   7.886   4.724  1.00  0.00     0.030 A 
HETATM    2  C   UNL     1      63.686   9.077   4.811  1.00  0.00     0.038 A 
HETATM    3  C   UNL     1      62.725   9.444   3.851  1.00  0.00    -0.031 A 
HETATM    4  C   UNL     1      64.150   7.055   3.630  1.00  0.00     0.029 A 
HETATM    5  C   UNL     1      63.187   7.391   2.670  1.00  0.00     0.003 A 
HETATM    6  C   UNL     1      62.479   8.582   2.780  1.00  0.00     0.009 A 
ENDROOT
BRANCH   1   7
HETATM    7  N   UNL     1      65.392   7.564   5.667  1.00  0.00    -0.381 N 
HETATM    8  C   UNL     1      66.782   8.003   5.534  1.00  0.00     0.123 C 
HETATM    9  C   UNL     1      67.700   6.780   5.480  1.00  0.00     0.020 C 
HETATM   10  C   UNL     1      67.466   5.846   6.665  1.00  0.00     0.003 C 
HETATM   11  C   UNL     1      65.989   5.469   6.782  1.00  0.00     0.020 C 
HETATM   12  C   UNL     1      65.104   6.713   6.824  1.00  0.00     0.123 C 
ENDBRANCH   1   7
BRANCH   3  13
HETATM   13  C   UNL     1      61.974  10.745   3.980  1.00  0.00     0.268 C 
BRANCH  13  14
HETATM   14  N   UNL     1      61.651  11.303   2.672  1.00  0.00    -0.075 N 
HETATM   15  H   UNL     1      60.778  11.829   2.733  1.00  0.00     0.274 HD
HETATM   16  H   UNL     1      61.546  10.547   1.995  1.00  0.00     0.274 HD
HETATM   17  H   UNL     1      62.401  11.926   2.372  1.00  0.00     0.274 HD
ENDBRANCH  13  14
ENDBRANCH   3  13
TORSDOF 3
ENDMDL
MODEL 3
REMARK VINA RESULT:      -4.9      2.395      3.500
REMARK  3 active torsions:
REMARK  status: ('A' for Active; 'I' for Inactive)
REMARK    1  A    between atoms: N_1  and  C_2 
REMARK    2  A    between atoms: C_4  and  C_10 
REMARK    3  A    between atoms: N_5  and  C_10 
ROOT
HETATM    1  C   UNL     1      63.258   9.075   4.655  1.00  0.00     0.030 A 
HETATM    2  C   UNL     1      62.825   8.722   3.364  1.00  0.00     0.038 A 
HETATM    3  C   UNL     1      62.078   9.591   2.548  1.00  0.00    -0.031 A 
HETATM    4  C   UNL     1      62.926  10.366   5.091  1.00  0.00     0.029 A 
HETATM    5  C   UNL     1      62.197  11.255   4.291  1.00  0.00     0.003 A 
HETATM    6  C   UNL     1      61.773  10.867   3.025  1.00  0.00     0.009 A 
ENDROOT
BRANCH   1   7
HETATM    7  N   UNL     1      63.968   8.189   5.448  1.00  0.00    -0.381 N 
HETATM    8  C   UNL     1      65.432   8.188   5.483  1.00  0.00     0.123 C 
HETATM    9  C   UNL     1      65.951   6.820   5.035  1.00  0.00     0.020 C 
HETATM   10  C   UNL     1      65.320   5.686   5.839  1.00  0.00     0.003 C 
HETATM   11  C   UNL     1      63.794   5.775   5.808  1.00  0.00     0.020 C 
HETATM   12  C   UNL     1      63.314   7.155   6.252  1.00  0.00     0.123 C 
ENDBRANCH   1   7
BRANCH   3  13
HETATM   13  C   UNL     1      61.617   9.150   1.183  1.00  0.00     0.268 C 
BRANCH  13  14
HETATM   14  N   UNL     1      60.218   8.738   1.201  1.00  0.00    -0.075 N 
HETATM   15  H   UNL     1      59.622   9.561   1.301  1.00  0.00     0.274 HD
HETATM   16  H   UNL     1      60.060   8.106   1.987  1.00  0.00     0.274 HD
HETATM   17  H   UNL     1      59.992   8.259   0.330  1.00  0.00     0.274 HD
ENDBRANCH  13  14
ENDBRANCH   3  13
TORSDOF 3
ENDMDL
MODEL 4
REMARK VINA RESULT:      -4.9      2.042      3.219
REMARK  3 active torsions:
REMARK  status: ('A' for Active; 'I' for Inactive)
REMARK    1  A    between atoms: N_1  and  C_2 
REMARK    2  A    between atoms: C_4  and  C_10 
REMARK    3  A    between atoms: N_5  and  C_10 
ROOT
HETATM    1  C   UNL     1      63.815   8.390   4.355  1.00  0.00     0.030 A 
HETATM    2  C   UNL     1      63.202   8.251   3.096  1.00  0.00     0.038 A 
HETATM    3  C   UNL     1      62.236   9.154   2.617  1.00  0.00    -0.031 A 
HETATM    4  C   UNL     1      63.430   9.503   5.115  1.00  0.00     0.029 A 
HETATM    5  C   UNL     1      62.481  10.425   4.654  1.00  0.00     0.003 A 
HETATM    6  C   UNL     1      61.885  10.249   3.410  1.00  0.00     0.009 A 
ENDROOT
BRANCH   1   7
HETATM    7  N   UNL     1      64.743   7.470   4.813  1.00  0.00    -0.381 N 
HETATM    8  C   UNL     1      65.147   7.417   6.219  1.00  0.00     0.123 C 
HETATM    9  C   UNL     1      66.655   7.658   6.326  1.00  0.00     0.020 C 
HETATM   10  C   UNL     1      67.443   6.708   5.428  1.00  0.00     0.003 C 
HETATM   11  C   UNL     1      66.938   6.770   3.987  1.00  0.00     0.020 C 
HETATM   12  C   UNL     1      65.430   6.534   3.921  1.00  0.00     0.123 C 
ENDBRANCH   1   7
BRANCH   3  13
HETATM   13  C   UNL     1      61.592   8.942   1.271  1.00  0.00     0.268 C 
BRANCH  13  14
HETATM   14  N   UNL     1      60.157   8.715   1.399  1.00  0.00    -0.075 N 
HETATM   15  H   UNL     1      59.739   9.475   1.937  1.00  0.00     0.274 HD
HETATM   16  H   UNL     1      59.993   7.829   1.878  1.00  0.00     0.274 HD
HETATM   17  H   UNL     1      59.733   8.683   0.472  1.00  0.00     0.274 HD
ENDBRANCH  13  14
ENDBRANCH   3  13
TORSDOF 3
ENDMDL
MODEL 5
REMARK VINA RESULT:      -4.7      2.142      5.406
REMARK  3 active torsions:
REMARK  status: ('A' for Active; 'I' for Inactive)
REMARK    1  A    between atoms: N_1  and  C_2 
REMARK    2  A    between atoms: C_4  and  C_10 
REMARK    3  A    between atoms: N_5  and  C_10 
ROOT
HETATM    1  C   UNL     1      63.035   7.809   4.620  1.00  0.00     0.030 A 
HETATM    2  C   UNL     1      64.384   8.184   4.760  1.00  0.00     0.038 A 
HETATM    3  C   UNL     1      65.253   7.568   5.680  1.00  0.00    -0.031 A 
HETATM    4  C   UNL     1      62.593   6.758   5.437  1.00  0.00     0.029 A 
HETATM    5  C   UNL     1      63.442   6.119   6.349  1.00  0.00     0.003 A 
HETATM    6  C   UNL     1      64.767   6.525   6.471  1.00  0.00     0.009 A 
ENDROOT
BRANCH   1   7
HETATM    7  N   UNL     1      62.195   8.452   3.726  1.00  0.00    -0.381 N 
HETATM    8  C   UNL     1      61.914   7.901   2.399  1.00  0.00     0.123 C 
HETATM    9  C   UNL     1      62.358   8.900   1.328  1.00  0.00     0.020 C 
HETATM   10  C   UNL     1      61.750  10.281   1.557  1.00  0.00     0.003 C 
HETATM   11  C   UNL     1      62.031  10.775   2.976  1.00  0.00     0.020 C 
HETATM   12  C   UNL     1      61.583   9.750   4.016  1.00  0.00     0.123 C 
ENDBRANCH   1   7
BRANCH   3  13
HETATM   13  C   UNL     1      66.682   8.028   5.806  1.00  0.00     0.268 C 
BRANCH  13  14
HETATM   14  N   UNL     1      66.951   8.567   7.135  1.00  0.00    -0.075 N 
HETATM   15  H   UNL     1      66.790   9.575   7.131  1.00  0.00     0.274 HD
HETATM   16  H   UNL     1      67.921   8.379   7.389  1.00  0.00     0.274 HD
HETATM   17  H   UNL     1      66.330   8.127   7.814  1.00  0.00     0.274 HD
ENDBRANCH  13  14
ENDBRANCH   3  13
TORSDOF 3
ENDMDL
MODEL 6
REMARK VINA RESULT:      -4.6      2.331      3.179
REMARK  3 active torsions:
REMARK  status: ('A' for Active; 'I' for Inactive)
REMARK    1  A    between atoms: N_1  and  C_2 
REMARK    2  A    between atoms: C_4  and  C_10 
REMARK    3  A    between atoms: N_5  and  C_10 
ROOT
HETATM    1  C   UNL     1      63.162   7.647   3.079  1.00  0.00     0.030 A 
HETATM    2  C   UNL     1      62.780   8.954   3.434  1.00  0.00     0.038 A 
HETATM    3  C   UNL     1      62.148   9.832   2.535  1.00  0.00    -0.031 A 
HETATM    4  C   UNL     1      62.857   7.243   1.772  1.00  0.00     0.029 A 
HETATM    5  C   UNL     1      62.215   8.094   0.862  1.00  0.00     0.003 A 
HETATM    6  C   UNL     1      61.864   9.384   1.243  1.00  0.00     0.009 A 
ENDROOT
BRANCH   1   7
HETATM    7  N   UNL     1      63.808   6.813   3.977  1.00  0.00    -0.381 N 
HETATM    8  C   UNL     1      63.082   5.807   4.754  1.00  0.00     0.123 C 
HETATM    9  C   UNL     1      63.266   6.087   6.248  1.00  0.00     0.020 C 
HETATM   10  C   UNL     1      64.741   6.201   6.623  1.00  0.00     0.003 C 
HETATM   11  C   UNL     1      65.453   7.227   5.741  1.00  0.00     0.020 C 
HETATM   12  C   UNL     1      65.240   6.921   4.259  1.00  0.00     0.123 C 
ENDBRANCH   1   7
BRANCH   3  13
HETATM   13  C   UNL     1      61.785  11.231   2.960  1.00  0.00     0.268 C 
BRANCH  13  14
HETATM   14  N   UNL     1      61.796  12.151   1.828  1.00  0.00    -0.075 N 
HETATM   15  H   UNL     1      60.841  12.296   1.498  1.00  0.00     0.274 HD
HETATM   16  H   UNL     1      62.360  11.757   1.075  1.00  0.00     0.274 HD
HETATM   17  H   UNL     1      62.194  13.044   2.119  1.00  0.00     0.274 HD
ENDBRANCH  13  14
ENDBRANCH   3  13
TORSDOF 3
ENDMDL
MODEL 7
REMARK VINA RESULT:      -4.5      1.619      5.185
REMARK  3 active torsions:
REMARK  status: ('A' for Active; 'I' for Inactive)
REMARK    1  A    between atoms: N_1  and  C_2 
REMARK    2  A    between atoms: C_4  and  C_10 
REMARK    3  A    between atoms: N_5  and  C_10 
ROOT
HETATM    1  C   UNL     1      65.001   7.415   5.256  1.00  0.00     0.030 A 
HETATM    2  C   UNL     1      65.231   7.066   6.600  1.00  0.00     0.038 A 
HETATM    3  C   UNL     1      66.497   6.683   7.080  1.00  0.00    -0.031 A 
HETATM    4  C   UNL     1      66.116   7.385   4.406  1.00  0.00     0.029 A 
HETATM    5  C   UNL     1      67.389   7.022   4.863  1.00  0.00     0.003 A 
HETATM    6  C   UNL     1      67.577   6.670   6.195  1.00  0.00     0.009 A 
ENDROOT
BRANCH   1   7
HETATM    7  N   UNL     1      63.739   7.760   4.804  1.00  0.00    -0.381 N 
HETATM    8  C   UNL     1      63.133   7.114   3.638  1.00  0.00     0.123 C 
HETATM    9  C   UNL     1      62.833   8.169   2.570  1.00  0.00     0.020 C 
HETATM   10  C   UNL     1      62.002   9.320   3.130  1.00  0.00     0.003 C 
HETATM   11  C   UNL     1      62.659   9.915   4.376  1.00  0.00     0.020 C 
HETATM   12  C   UNL     1      62.951   8.834   5.414  1.00  0.00     0.123 C 
ENDBRANCH   1   7
BRANCH   3  13
HETATM   13  C   UNL     1      66.680   6.294   8.524  1.00  0.00     0.268 C 
BRANCH  13  14
HETATM   14  N   UNL     1      68.072   6.436   8.939  1.00  0.00    -0.075 N 
HETATM   15  H   UNL     1      68.195   6.016   9.862  1.00  0.00     0.274 HD
HETATM   16  H   UNL     1      68.316   7.425   8.980  1.00  0.00     0.274 HD
HETATM   17  H   UNL     1      68.677   5.964   8.268  1.00  0.00     0.274 HD
ENDBRANCH  13  14
ENDBRANCH   3  13
TORSDOF 3
ENDMDL
MODEL 8
REMARK VINA RESULT:      -4.4      2.107      5.867
REMARK  3 active torsions:
REMARK  status: ('A' for Active; 'I' for Inactive)
REMARK    1  A    between atoms: N_1  and  C_2 
REMARK    2  A    between atoms: C_4  and  C_10 
REMARK    3  A    between atoms: N_5  and  C_10 
ROOT
HETATM    1  C   UNL     1      63.825   8.242   4.027  1.00  0.00     0.030 A 
HETATM    2  C   UNL     1      64.316   7.041   3.481  1.00  0.00     0.038 A 
HETATM    3  C   UNL     1      65.455   6.386   3.984  1.00  0.00    -0.031 A 
HETATM    4  C   UNL     1      64.523   8.754   5.131  1.00  0.00     0.029 A 
HETATM    5  C   UNL     1      65.650   8.112   5.660  1.00  0.00     0.003 A 
HETATM    6  C   UNL     1      66.115   6.934   5.086  1.00  0.00     0.009 A 
ENDROOT
BRANCH   1   7
HETATM    7  N   UNL     1      62.719   8.880   3.494  1.00  0.00    -0.381 N 
HETATM    8  C   UNL     1      62.224   8.573   2.151  1.00  0.00     0.123 C 
HETATM    9  C   UNL     1      62.261   9.840   1.292  1.00  0.00     0.020 C 
HETATM   10  C   UNL     1      61.526  10.998   1.963  1.00  0.00     0.003 C 
HETATM   11  C   UNL     1      62.051  11.232   3.380  1.00  0.00     0.020 C 
HETATM   12  C   UNL     1      62.007   9.946   4.203  1.00  0.00     0.123 C 
ENDBRANCH   1   7
BRANCH   3  13
HETATM   13  C   UNL     1      65.951   5.116   3.343  1.00  0.00     0.268 C 
BRANCH  13  14
HETATM   14  N   UNL     1      65.182   3.960   3.791  1.00  0.00    -0.075 N 
HETATM   15  H   UNL     1      65.754   3.394   4.419  1.00  0.00     0.274 HD
HETATM   16  H   UNL     1      64.908   3.400   2.983  1.00  0.00     0.274 HD
HETATM   17  H   UNL     1      64.347   4.276   4.284  1.00  0.00     0.274 HD
ENDBRANCH  13  14
ENDBRANCH   3  13
TORSDOF 3
ENDMDL
MODEL 9
REMARK VINA RESULT:      -4.3      2.979      6.365
REMARK  3 active torsions:
REMARK  status: ('A' for Active; 'I' for Inactive)
REMARK    1  A    between atoms: N_1  and  C_2 
REMARK    2  A    between atoms: C_4  and  C_10 
REMARK    3  A    between atoms: N_5  and  C_10 
ROOT
HETATM    1  C   UNL     1      61.816   8.506   3.391  1.00  0.00     0.030 A 
HETATM    2  C   UNL     1      63.014   7.986   3.914  1.00  0.00     0.038 A 
HETATM    3  C   UNL     1      63.886   8.745   4.716  1.00  0.00    -0.031 A 
HETATM    4  C   UNL     1      61.513   9.832   3.731  1.00  0.00     0.029 A 
HETATM    5  C   UNL     1      62.357  10.603   4.540  1.00  0.00     0.003 A 
HETATM    6  C   UNL     1      63.540  10.061   5.029  1.00  0.00     0.009 A 
ENDROOT
BRANCH   1   7
HETATM    7  N   UNL     1      60.990   7.746   2.581  1.00  0.00    -0.381 N 
HETATM    8  C   UNL     1      61.077   7.803   1.120  1.00  0.00     0.123 C 
HETATM    9  C   UNL     1      59.733   8.261   0.548  1.00  0.00     0.020 C 
HETATM   10  C   UNL     1      58.580   7.399   1.057  1.00  0.00     0.003 C 
HETATM   11  C   UNL     1      58.577   7.335   2.584  1.00  0.00     0.020 C 
HETATM   12  C   UNL     1      59.935   6.885   3.119  1.00  0.00     0.123 C 
ENDBRANCH   1   7
BRANCH   3  13
HETATM   13  C   UNL     1      65.170   8.145   5.228  1.00  0.00     0.268 C 
BRANCH  13  14
HETATM   14  N   UNL     1      64.987   7.540   6.543  1.00  0.00    -0.075 N 
HETATM   15  H   UNL     1      65.624   7.978   7.210  1.00  0.00     0.274 HD
HETATM   16  H   UNL     1      65.184   6.541   6.490  1.00  0.00     0.274 HD
HETATM   17  H   UNL     1      64.025   7.681   6.852  1.00  0.00     0.274 HD
ENDBRANCH  13  14
ENDBRANCH   3  13
TORSDOF 3
ENDMDL
