MODEL 1
REMARK VINA RESULT:      -5.6      0.000      0.000
REMARK  3 active torsions:
REMARK  status: ('A' for Active; 'I' for Inactive)
REMARK    1  A    between atoms: N_1  and  C_2 
REMARK    2  A    between atoms: C_3  and  C_8 
REMARK    3  A    between atoms: C_8  and  O_9 
ROOT
HETATM    1  C   UNL     1      63.057   9.239   4.204  1.00  0.00     0.046 A 
HETATM    2  C   UNL     1      62.679  10.551   4.588  1.00  0.00    -0.008 A 
HETATM    3  C   UNL     1      62.706   8.765   2.923  1.00  0.00     0.030 A 
HETATM    4  C   UNL     1      62.022  11.357   3.628  1.00  0.00     0.011 A 
HETATM    5  C   UNL     1      62.033   9.577   2.011  1.00  0.00     0.002 A 
HETATM    6  C   UNL     1      61.701  10.876   2.361  1.00  0.00     0.001 A 
ENDROOT
BRANCH   1   7
HETATM    7  N   UNL     1      63.786   8.348   5.053  1.00  0.00    -0.332 N 
HETATM    8  C   UNL     1      63.233   7.398   5.896  1.00  0.00     0.096 A 
HETATM    9  C   UNL     1      64.235   6.770   6.601  1.00  0.00     0.019 A 
HETATM   10  C   UNL     1      65.457   7.300   6.145  1.00  0.00     0.019 A 
HETATM   11  C   UNL     1      65.159   8.226   5.168  1.00  0.00     0.096 A 
ENDBRANCH   1   7
BRANCH   2  12
HETATM   12  C   UNL     1      62.901  11.125   5.972  1.00  0.00     0.205 C 
BRANCH  12  13
HETATM   13  O   UNL     1      64.265  11.476   6.199  1.00  0.00    -0.396 OA
HETATM   14  H   UNL     1      64.669  11.758   5.364  1.00  0.00     0.209 HD
ENDBRANCH  12  13
ENDBRANCH   2  12
TORSDOF 3
ENDMDL
MODEL 2
REMARK VINA RESULT:      -5.0      1.026      1.587
REMARK  3 active torsions:
REMARK  status: ('A' for Active; 'I' for Inactive)
REMARK    1  A    between atoms: N_1  and  C_2 
REMARK    2  A    between atoms: C_3  and  C_8 
REMARK    3  A    between atoms: C_8  and  O_9 
ROOT
HETATM    1  C   UNL     1      63.122   8.589   3.706  1.00  0.00     0.046 A 
HETATM    2  C   UNL     1      62.580   9.900   3.729  1.00  0.00    -0.008 A 
HETATM    3  C   UNL     1      62.964   7.795   2.551  1.00  0.00     0.030 A 
HETATM    4  C   UNL     1      61.962  10.380   2.550  1.00  0.00     0.011 A 
HETATM    5  C   UNL     1      62.323   8.291   1.416  1.00  0.00     0.002 A 
HETATM    6  C   UNL     1      61.831   9.586   1.414  1.00  0.00     0.001 A 
ENDROOT
BRANCH   1   7
HETATM    7  N   UNL     1      63.833   8.010   4.804  1.00  0.00    -0.332 N 
HETATM    8  C   UNL     1      65.192   8.137   5.047  1.00  0.00     0.096 A 
HETATM    9  C   UNL     1      65.531   7.396   6.157  1.00  0.00     0.019 A 
HETATM   10  C   UNL     1      64.342   6.836   6.660  1.00  0.00     0.019 A 
HETATM   11  C   UNL     1      63.314   7.264   5.846  1.00  0.00     0.096 A 
ENDBRANCH   1   7
BRANCH   2  12
HETATM   12  C   UNL     1      62.591  10.798   4.948  1.00  0.00     0.205 C 
BRANCH  12  13
HETATM   13  O   UNL     1      62.043  12.086   4.676  1.00  0.00    -0.396 OA
HETATM   14  H   UNL     1      62.718  12.764   4.837  1.00  0.00     0.209 HD
ENDBRANCH  12  13
ENDBRANCH   2  12
TORSDOF 3
ENDMDL
MODEL 3
REMARK VINA RESULT:      -4.6      1.526      4.377
REMARK  3 active torsions:
REMARK  status: ('A' for Active; 'I' for Inactive)
REMARK    1  A    between atoms: N_1  and  C_2 
REMARK    2  A    between atoms: C_3  and  C_8 
REMARK    3  A    between atoms: C_8  and  O_9 
ROOT
HETATM    1  C   UNL     1      62.280   8.033   4.415  1.00  0.00     0.046 A 
HETATM    2  C   UNL     1      63.451   7.787   5.177  1.00  0.00    -0.008 A 
HETATM    3  C   UNL     1      61.166   7.181   4.565  1.00  0.00     0.030 A 
HETATM    4  C   UNL     1      63.419   6.730   6.117  1.00  0.00     0.011 A 
HETATM    5  C   UNL     1      61.178   6.130   5.481  1.00  0.00     0.002 A 
HETATM    6  C   UNL     1      62.301   5.912   6.263  1.00  0.00     0.001 A 
ENDROOT
BRANCH   1   7
HETATM    7  N   UNL     1      62.158   9.111   3.483  1.00  0.00    -0.332 N 
HETATM    8  C   UNL     1      61.949  10.442   3.807  1.00  0.00     0.096 A 
HETATM    9  C   UNL     1      61.823  11.181   2.652  1.00  0.00     0.019 A 
HETATM   10  C   UNL     1      62.016  10.300   1.572  1.00  0.00     0.019 A 
HETATM   11  C   UNL     1      62.266   9.053   2.106  1.00  0.00     0.096 A 
ENDBRANCH   1   7
BRANCH   2  12
HETATM   12  C   UNL     1      64.742   8.563   5.017  1.00  0.00     0.205 C 
BRANCH  12  13
HETATM   13  O   UNL     1      64.791   9.712   5.861  1.00  0.00    -0.396 OA
HETATM   14  H   UNL     1      63.966   9.775   6.367  1.00  0.00     0.209 HD
ENDBRANCH  12  13
ENDBRANCH   2  12
TORSDOF 3
ENDMDL
MODEL 4
REMARK VINA RESULT:      -4.5      1.900      2.887
REMARK  3 active torsions:
REMARK  status: ('A' for Active; 'I' for Inactive)
REMARK    1  A    between atoms: N_1  and  C_2 
REMARK    2  A    between atoms: C_3  and  C_8 
REMARK    3  A    between atoms: C_8  and  O_9 
ROOT
HETATM    1  C   UNL     1      62.958   9.245   4.240  1.00  0.00     0.046 A 
HETATM    2  C   UNL     1      62.608   8.959   2.896  1.00  0.00    -0.008 A 
HETATM    3  C   UNL     1      62.693  10.526   4.767  1.00  0.00     0.030 A 
HETATM    4  C   UNL     1      61.935   9.963   2.160  1.00  0.00     0.011 A 
HETATM    5  C   UNL     1      62.052  11.502   4.004  1.00  0.00     0.002 A 
HETATM    6  C   UNL     1      61.666  11.216   2.705  1.00  0.00     0.001 A 
ENDROOT
BRANCH   1   7
HETATM    7  N   UNL     1      63.577   8.295   5.113  1.00  0.00    -0.332 N 
HETATM    8  C   UNL     1      64.935   8.201   5.374  1.00  0.00     0.096 A 
HETATM    9  C   UNL     1      65.168   7.133   6.213  1.00  0.00     0.019 A 
HETATM   10  C   UNL     1      63.915   6.578   6.534  1.00  0.00     0.019 A 
HETATM   11  C   UNL     1      62.958   7.333   5.889  1.00  0.00     0.096 A 
ENDBRANCH   1   7
BRANCH   2  12
HETATM   12  C   UNL     1      62.945   7.661   2.192  1.00  0.00     0.205 C 
BRANCH  12  13
HETATM   13  O   UNL     1      61.874   6.721   2.249  1.00  0.00    -0.396 OA
HETATM   14  H   UNL     1      61.359   6.867   3.058  1.00  0.00     0.209 HD
ENDBRANCH  12  13
ENDBRANCH   2  12
TORSDOF 3
ENDMDL
MODEL 5
REMARK VINA RESULT:      -4.3      1.647      4.257
REMARK  3 active torsions:
REMARK  status: ('A' for Active; 'I' for Inactive)
REMARK    1  A    between atoms: N_1  and  C_2 
REMARK    2  A    between atoms: C_3  and  C_8 
REMARK    3  A    between atoms: C_8  and  O_9 
ROOT
HETATM    1  C   UNL     1      63.648   7.898   3.679  1.00  0.00     0.046 A 
HETATM    2  C   UNL     1      64.012   8.756   4.748  1.00  0.00    -0.008 A 
HETATM    3  C   UNL     1      64.490   6.817   3.342  1.00  0.00     0.030 A 
HETATM    4  C   UNL     1      65.181   8.440   5.481  1.00  0.00     0.011 A 
HETATM    5  C   UNL     1      65.650   6.551   4.069  1.00  0.00     0.002 A 
HETATM    6  C   UNL     1      65.988   7.357   5.144  1.00  0.00     0.001 A 
ENDROOT
BRANCH   1   7
HETATM    7  N   UNL     1      62.457   8.065   2.904  1.00  0.00    -0.332 N 
HETATM    8  C   UNL     1      62.353   8.783   1.724  1.00  0.00     0.096 A 
HETATM    9  C   UNL     1      61.044   8.773   1.295  1.00  0.00     0.019 A 
HETATM   10  C   UNL     1      60.317   7.977   2.201  1.00  0.00     0.019 A 
HETATM   11  C   UNL     1      61.210   7.518   3.146  1.00  0.00     0.096 A 
ENDBRANCH   1   7
BRANCH   2  12
HETATM   12  C   UNL     1      63.249  10.008   5.125  1.00  0.00     0.205 C 
BRANCH  12  13
HETATM   13  O   UNL     1      64.045  10.922   5.878  1.00  0.00    -0.396 OA
HETATM   14  H   UNL     1      64.811  10.454   6.246  1.00  0.00     0.209 HD
ENDBRANCH  12  13
ENDBRANCH   2  12
TORSDOF 3
ENDMDL
MODEL 6
REMARK VINA RESULT:      -4.2      2.200      3.222
REMARK  3 active torsions:
REMARK  status: ('A' for Active; 'I' for Inactive)
REMARK    1  A    between atoms: N_1  and  C_2 
REMARK    2  A    between atoms: C_3  and  C_8 
REMARK    3  A    between atoms: C_8  and  O_9 
ROOT
HETATM    1  C   UNL     1      62.447   8.668   3.362  1.00  0.00     0.046 A 
HETATM    2  C   UNL     1      62.778   8.915   4.719  1.00  0.00    -0.008 A 
HETATM    3  C   UNL     1      61.994   9.733   2.556  1.00  0.00     0.030 A 
HETATM    4  C   UNL     1      62.707  10.249   5.185  1.00  0.00     0.011 A 
HETATM    5  C   UNL     1      61.909  11.032   3.055  1.00  0.00     0.002 A 
HETATM    6  C   UNL     1      62.275  11.290   4.367  1.00  0.00     0.001 A 
ENDROOT
BRANCH   1   7
HETATM    7  N   UNL     1      62.544   7.379   2.748  1.00  0.00    -0.332 N 
HETATM    8  C   UNL     1      61.477   6.569   2.393  1.00  0.00     0.096 A 
HETATM    9  C   UNL     1      61.953   5.381   1.885  1.00  0.00     0.019 A 
HETATM   10  C   UNL     1      63.357   5.472   1.865  1.00  0.00     0.019 A 
HETATM   11  C   UNL     1      63.691   6.718   2.351  1.00  0.00     0.096 A 
ENDBRANCH   1   7
BRANCH   2  12
HETATM   12  C   UNL     1      63.166   7.833   5.705  1.00  0.00     0.205 C 
BRANCH  12  13
HETATM   13  O   UNL     1      62.650   8.082   7.011  1.00  0.00    -0.396 OA
HETATM   14  H   UNL     1      63.382   8.110   7.647  1.00  0.00     0.209 HD
ENDBRANCH  12  13
ENDBRANCH   2  12
TORSDOF 3
ENDMDL
MODEL 7
REMARK VINA RESULT:      -4.0      3.002      5.009
REMARK  3 active torsions:
REMARK  status: ('A' for Active; 'I' for Inactive)
REMARK    1  A    between atoms: N_1  and  C_2 
REMARK    2  A    between atoms: C_3  and  C_8 
REMARK    3  A    between atoms: C_8  and  O_9 
ROOT
HETATM    1  C   UNL     1      62.171   7.960   3.110  1.00  0.00     0.046 A 
HETATM    2  C   UNL     1      61.082   7.087   3.365  1.00  0.00    -0.008 A 
HETATM    3  C   UNL     1      63.473   7.428   3.005  1.00  0.00     0.030 A 
HETATM    4  C   UNL     1      61.349   5.699   3.429  1.00  0.00     0.011 A 
HETATM    5  C   UNL     1      63.704   6.056   3.102  1.00  0.00     0.002 A 
HETATM    6  C   UNL     1      62.640   5.193   3.304  1.00  0.00     0.001 A 
ENDROOT
BRANCH   1   7
HETATM    7  N   UNL     1      62.028   9.374   2.952  1.00  0.00    -0.332 N 
HETATM    8  C   UNL     1      61.849  10.041   1.751  1.00  0.00     0.096 A 
HETATM    9  C   UNL     1      61.811  11.398   1.980  1.00  0.00     0.019 A 
HETATM   10  C   UNL     1      61.910  11.586   3.372  1.00  0.00     0.019 A 
HETATM   11  C   UNL     1      61.992  10.335   3.946  1.00  0.00     0.096 A 
ENDBRANCH   1   7
BRANCH   2  12
HETATM   12  C   UNL     1      59.662   7.555   3.609  1.00  0.00     0.205 C 
BRANCH  12  13
HETATM   13  O   UNL     1      59.010   7.954   2.405  1.00  0.00    -0.396 OA
HETATM   14  H   UNL     1      59.374   7.452   1.659  1.00  0.00     0.209 HD
ENDBRANCH  12  13
ENDBRANCH   2  12
TORSDOF 3
ENDMDL
MODEL 8
REMARK VINA RESULT:      -3.8      1.901      4.720
REMARK  3 active torsions:
REMARK  status: ('A' for Active; 'I' for Inactive)
REMARK    1  A    between atoms: N_1  and  C_2 
REMARK    2  A    between atoms: C_3  and  C_8 
REMARK    3  A    between atoms: C_8  and  O_9 
ROOT
HETATM    1  C   UNL     1      64.026   7.744   4.763  1.00  0.00     0.046 A 
HETATM    2  C   UNL     1      63.455   6.561   5.298  1.00  0.00    -0.008 A 
HETATM    3  C   UNL     1      65.423   7.817   4.581  1.00  0.00     0.030 A 
HETATM    4  C   UNL     1      64.318   5.471   5.559  1.00  0.00     0.011 A 
HETATM    5  C   UNL     1      66.248   6.732   4.876  1.00  0.00     0.002 A 
HETATM    6  C   UNL     1      65.693   5.557   5.356  1.00  0.00     0.001 A 
ENDROOT
BRANCH   1   7
HETATM    7  N   UNL     1      63.258   8.892   4.390  1.00  0.00    -0.332 N 
HETATM    8  C   UNL     1      62.624   9.081   3.173  1.00  0.00     0.096 A 
HETATM    9  C   UNL     1      62.034  10.325   3.151  1.00  0.00     0.019 A 
HETATM   10  C   UNL     1      62.254  10.911   4.412  1.00  0.00     0.019 A 
HETATM   11  C   UNL     1      62.961   9.997   5.166  1.00  0.00     0.096 A 
ENDBRANCH   1   7
BRANCH   2  12
HETATM   12  C   UNL     1      61.988   6.411   5.641  1.00  0.00     0.205 C 
BRANCH  12  13
HETATM   13  O   UNL     1      61.696   6.838   6.970  1.00  0.00    -0.396 OA
HETATM   14  H   UNL     1      61.144   6.172   7.409  1.00  0.00     0.209 HD
ENDBRANCH  12  13
ENDBRANCH   2  12
TORSDOF 3
ENDMDL
MODEL 9
REMARK VINA RESULT:      -3.8     10.961     13.045
REMARK  3 active torsions:
REMARK  status: ('A' for Active; 'I' for Inactive)
REMARK    1  A    between atoms: N_1  and  C_2 
REMARK    2  A    between atoms: C_3  and  C_8 
REMARK    3  A    between atoms: C_8  and  O_9 
ROOT
HETATM    1  C   UNL     1      56.895   2.121  12.880  1.00  0.00     0.046 A 
HETATM    2  C   UNL     1      57.968   2.420  12.002  1.00  0.00    -0.008 A 
HETATM    3  C   UNL     1      57.147   1.379  14.053  1.00  0.00     0.030 A 
HETATM    4  C   UNL     1      59.269   2.016  12.386  1.00  0.00     0.011 A 
HETATM    5  C   UNL     1      58.438   0.972  14.387  1.00  0.00     0.002 A 
HETATM    6  C   UNL     1      59.499   1.299  13.558  1.00  0.00     0.001 A 
ENDROOT
BRANCH   1   7
HETATM    7  N   UNL     1      55.545   2.533  12.645  1.00  0.00    -0.332 N 
HETATM    8  C   UNL     1      54.641   1.903  11.805  1.00  0.00     0.096 A 
HETATM    9  C   UNL     1      53.462   2.614  11.784  1.00  0.00     0.019 A 
HETATM   10  C   UNL     1      53.610   3.688  12.682  1.00  0.00     0.019 A 
HETATM   11  C   UNL     1      54.871   3.589  13.230  1.00  0.00     0.096 A 
ENDBRANCH   1   7
BRANCH   2  12
HETATM   12  C   UNL     1      57.799   3.110  10.665  1.00  0.00     0.205 C 
BRANCH  12  13
HETATM   13  O   UNL     1      58.601   4.284  10.557  1.00  0.00    -0.396 OA
HETATM   14  H   UNL     1      59.347   4.223  11.173  1.00  0.00     0.209 HD
ENDBRANCH  12  13
ENDBRANCH   2  12
TORSDOF 3
ENDMDL
