MODEL 1
REMARK VINA RESULT:      -5.7      0.000      0.000
REMARK  2 active torsions:
REMARK  status: ('A' for Active; 'I' for Inactive)
REMARK    1  A    between atoms: C_1  and  C_2 
REMARK    2  A    between atoms: C_4  and  C_8 
ROOT
HETATM    1  C   UNL     1      65.259   7.606   6.018  1.00  0.00     0.041 A 
HETATM    2  C   UNL     1      64.659   8.512   5.131  1.00  0.00     0.030 A 
HETATM    3  C   UNL     1      63.290   8.427   4.805  1.00  0.00    -0.025 A 
HETATM    4  C   UNL     1      64.500   6.581   6.584  1.00  0.00     0.018 A 
HETATM    5  C   UNL     1      62.553   7.383   5.397  1.00  0.00     0.012 A 
HETATM    6  C   UNL     1      63.148   6.472   6.276  1.00  0.00     0.002 A 
ENDROOT
BRANCH   3   7
HETATM    7  C   UNL     1      62.660   9.402   3.881  1.00  0.00    -0.023 A 
HETATM    8  C   UNL     1      62.365   9.067   2.551  1.00  0.00     0.029 A 
HETATM    9  C   UNL     1      61.818  10.025   1.707  1.00  0.00     0.088 A 
HETATM   10  N   UNL     1      61.529  11.282   2.089  1.00  0.00    -0.375 N 
HETATM   11  C   UNL     1      61.795  11.595   3.373  1.00  0.00     0.088 A 
ATOM     12  HN  UNL     1      61.130  11.962   1.442  1.00  0.00     0.164 HD
HETATM   13  C   UNL     1      62.351  10.708   4.286  1.00  0.00     0.029 A 
ENDBRANCH   3   7
BRANCH   1  14
HETATM   14  C   UNL     1      66.708   7.666   6.334  1.00  0.00     0.209 C 
HETATM   15  O   UNL     1      67.516   8.229   5.619  1.00  0.00    -0.644 OA
HETATM   16  O   UNL     1      67.057   7.026   7.469  1.00  0.00    -0.644 OA
ENDBRANCH   1  14
TORSDOF 2
ENDMDL
MODEL 2
REMARK VINA RESULT:      -5.7      3.575      5.753
REMARK  2 active torsions:
REMARK  status: ('A' for Active; 'I' for Inactive)
REMARK    1  A    between atoms: C_1  and  C_2 
REMARK    2  A    between atoms: C_4  and  C_8 
ROOT
HETATM    1  C   UNL     1      63.076   9.603   4.344  1.00  0.00     0.041 A 
HETATM    2  C   UNL     1      64.104   9.066   5.133  1.00  0.00     0.030 A 
HETATM    3  C   UNL     1      64.675   7.810   4.844  1.00  0.00    -0.025 A 
HETATM    4  C   UNL     1      62.586   8.881   3.255  1.00  0.00     0.018 A 
HETATM    5  C   UNL     1      64.160   7.110   3.737  1.00  0.00     0.012 A 
HETATM    6  C   UNL     1      63.129   7.638   2.950  1.00  0.00     0.002 A 
ENDROOT
BRANCH   3   7
HETATM    7  C   UNL     1      65.775   7.260   5.674  1.00  0.00    -0.023 A 
HETATM    8  C   UNL     1      65.573   6.900   7.015  1.00  0.00     0.029 A 
HETATM    9  C   UNL     1      66.641   6.432   7.770  1.00  0.00     0.088 A 
HETATM   10  N   UNL     1      67.887   6.280   7.287  1.00  0.00    -0.375 N 
HETATM   11  C   UNL     1      68.074   6.607   5.993  1.00  0.00     0.088 A 
ATOM     12  HN  UNL     1      68.651   5.937   7.870  1.00  0.00     0.164 HD
HETATM   13  C   UNL     1      67.071   7.094   5.165  1.00  0.00     0.029 A 
ENDBRANCH   3   7
BRANCH   1  14
HETATM   14  C   UNL     1      62.443  10.906   4.666  1.00  0.00     0.209 C 
HETATM   15  O   UNL     1      61.687  11.478   3.902  1.00  0.00    -0.644 OA
HETATM   16  O   UNL     1      62.792  11.414   5.866  1.00  0.00    -0.644 OA
ENDBRANCH   1  14
TORSDOF 2
ENDMDL
MODEL 3
REMARK VINA RESULT:      -5.6      3.590      5.563
REMARK  2 active torsions:
REMARK  status: ('A' for Active; 'I' for Inactive)
REMARK    1  A    between atoms: C_1  and  C_2 
REMARK    2  A    between atoms: C_4  and  C_8 
ROOT
HETATM    1  C   UNL     1      63.210   9.813   4.736  1.00  0.00     0.041 A 
HETATM    2  C   UNL     1      64.251   8.983   5.176  1.00  0.00     0.030 A 
HETATM    3  C   UNL     1      64.550   7.769   4.526  1.00  0.00    -0.025 A 
HETATM    4  C   UNL     1      62.433   9.433   3.641  1.00  0.00     0.018 A 
HETATM    5  C   UNL     1      63.749   7.417   3.422  1.00  0.00     0.012 A 
HETATM    6  C   UNL     1      62.704   8.238   2.983  1.00  0.00     0.002 A 
ENDROOT
BRANCH   3   7
HETATM    7  C   UNL     1      65.666   6.907   4.988  1.00  0.00    -0.023 A 
HETATM    8  C   UNL     1      66.299   6.000   4.125  1.00  0.00     0.029 A 
HETATM    9  C   UNL     1      67.308   5.180   4.610  1.00  0.00     0.088 A 
HETATM   10  N   UNL     1      67.745   5.204   5.882  1.00  0.00    -0.375 N 
HETATM   11  C   UNL     1      67.150   6.090   6.705  1.00  0.00     0.088 A 
ATOM     12  HN  UNL     1      68.488   4.585   6.207  1.00  0.00     0.164 HD
HETATM   13  C   UNL     1      66.125   6.942   6.313  1.00  0.00     0.029 A 
ENDBRANCH   3   7
BRANCH   1  14
HETATM   14  C   UNL     1      62.864  11.073   5.440  1.00  0.00     0.209 C 
HETATM   15  O   UNL     1      63.266  11.335   6.559  1.00  0.00    -0.644 OA
HETATM   16  O   UNL     1      62.049  11.894   4.745  1.00  0.00    -0.644 OA
ENDBRANCH   1  14
TORSDOF 2
ENDMDL
MODEL 4
REMARK VINA RESULT:      -5.5      3.721      5.805
REMARK  2 active torsions:
REMARK  status: ('A' for Active; 'I' for Inactive)
REMARK    1  A    between atoms: C_1  and  C_2 
REMARK    2  A    between atoms: C_4  and  C_8 
ROOT
HETATM    1  C   UNL     1      62.192   9.381   2.582  1.00  0.00     0.041 A 
HETATM    2  C   UNL     1      63.038   8.564   3.347  1.00  0.00     0.030 A 
HETATM    3  C   UNL     1      63.487   8.959   4.622  1.00  0.00    -0.025 A 
HETATM    4  C   UNL     1      61.793  10.624   3.075  1.00  0.00     0.018 A 
HETATM    5  C   UNL     1      63.064  10.217   5.092  1.00  0.00     0.012 A 
HETATM    6  C   UNL     1      62.226  11.040   4.330  1.00  0.00     0.002 A 
ENDROOT
BRANCH   3   7
HETATM    7  C   UNL     1      64.366   8.078   5.432  1.00  0.00    -0.023 A 
HETATM    8  C   UNL     1      63.858   6.963   6.114  1.00  0.00     0.029 A 
HETATM    9  C   UNL     1      64.707   6.192   6.898  1.00  0.00     0.088 A 
HETATM   10  N   UNL     1      66.022   6.437   7.040  1.00  0.00    -0.375 N 
HETATM   11  C   UNL     1      66.511   7.497   6.367  1.00  0.00     0.088 A 
ATOM     12  HN  UNL     1      66.617   5.852   7.626  1.00  0.00     0.164 HD
HETATM   13  C   UNL     1      65.738   8.332   5.570  1.00  0.00     0.029 A 
ENDBRANCH   3   7
BRANCH   1  14
HETATM   14  C   UNL     1      61.747   8.989   1.221  1.00  0.00     0.209 C 
HETATM   15  O   UNL     1      62.502   8.949   0.267  1.00  0.00    -0.644 OA
HETATM   16  O   UNL     1      60.432   8.702   1.126  1.00  0.00    -0.644 OA
ENDBRANCH   1  14
TORSDOF 2
ENDMDL
MODEL 5
REMARK VINA RESULT:      -5.3      1.880      2.829
REMARK  2 active torsions:
REMARK  status: ('A' for Active; 'I' for Inactive)
REMARK    1  A    between atoms: C_1  and  C_2 
REMARK    2  A    between atoms: C_4  and  C_8 
ROOT
HETATM    1  C   UNL     1      66.321   6.537   7.165  1.00  0.00     0.041 A 
HETATM    2  C   UNL     1      65.216   7.167   6.574  1.00  0.00     0.030 A 
HETATM    3  C   UNL     1      65.317   7.815   5.326  1.00  0.00    -0.025 A 
HETATM    4  C   UNL     1      67.559   6.559   6.522  1.00  0.00     0.018 A 
HETATM    5  C   UNL     1      66.580   7.815   4.703  1.00  0.00     0.012 A 
HETATM    6  C   UNL     1      67.688   7.194   5.292  1.00  0.00     0.002 A 
ENDROOT
BRANCH   3   7
HETATM    7  C   UNL     1      64.137   8.462   4.700  1.00  0.00    -0.023 A 
HETATM    8  C   UNL     1      63.544   7.942   3.540  1.00  0.00     0.029 A 
HETATM    9  C   UNL     1      62.470   8.604   2.961  1.00  0.00     0.088 A 
HETATM   10  N   UNL     1      61.933   9.733   3.457  1.00  0.00    -0.375 N 
HETATM   11  C   UNL     1      62.491  10.220   4.583  1.00  0.00     0.088 A 
ATOM     12  HN  UNL     1      61.145  10.197   3.005  1.00  0.00     0.164 HD
HETATM   13  C   UNL     1      63.574   9.633   5.226  1.00  0.00     0.029 A 
ENDBRANCH   3   7
BRANCH   1  14
HETATM   14  C   UNL     1      66.231   5.888   8.496  1.00  0.00     0.209 C 
HETATM   15  O   UNL     1      66.206   6.520   9.537  1.00  0.00    -0.644 OA
HETATM   16  O   UNL     1      66.200   4.540   8.458  1.00  0.00    -0.644 OA
ENDBRANCH   1  14
TORSDOF 2
ENDMDL
MODEL 6
REMARK VINA RESULT:      -5.3      3.176      4.244
REMARK  2 active torsions:
REMARK  status: ('A' for Active; 'I' for Inactive)
REMARK    1  A    between atoms: C_1  and  C_2 
REMARK    2  A    between atoms: C_4  and  C_8 
ROOT
HETATM    1  C   UNL     1      63.118   9.768   4.790  1.00  0.00     0.041 A 
HETATM    2  C   UNL     1      62.227   9.311   3.807  1.00  0.00     0.030 A 
HETATM    3  C   UNL     1      62.441   8.095   3.127  1.00  0.00    -0.025 A 
HETATM    4  C   UNL     1      64.255   9.021   5.099  1.00  0.00     0.018 A 
HETATM    5  C   UNL     1      63.596   7.364   3.465  1.00  0.00     0.012 A 
HETATM    6  C   UNL     1      64.492   7.819   4.439  1.00  0.00     0.002 A 
ENDROOT
BRANCH   3   7
HETATM    7  C   UNL     1      61.481   7.611   2.103  1.00  0.00    -0.023 A 
HETATM    8  C   UNL     1      60.745   8.503   1.308  1.00  0.00     0.029 A 
HETATM    9  C   UNL     1      59.825   8.009   0.394  1.00  0.00     0.088 A 
HETATM   10  N   UNL     1      59.593   6.698   0.200  1.00  0.00    -0.375 N 
HETATM   11  C   UNL     1      60.316   5.843   0.951  1.00  0.00     0.088 A 
ATOM     12  HN  UNL     1      58.907   6.368  -0.478  1.00  0.00     0.164 HD
HETATM   13  C   UNL     1      61.250   6.244   1.898  1.00  0.00     0.029 A 
ENDBRANCH   3   7
BRANCH   1  14
HETATM   14  C   UNL     1      62.920  11.066   5.481  1.00  0.00     0.209 C 
HETATM   15  O   UNL     1      63.464  11.340   6.536  1.00  0.00    -0.644 OA
HETATM   16  O   UNL     1      62.072  11.907   4.855  1.00  0.00    -0.644 OA
ENDBRANCH   1  14
TORSDOF 2
ENDMDL
MODEL 7
REMARK VINA RESULT:      -5.2      3.716      5.426
REMARK  2 active torsions:
REMARK  status: ('A' for Active; 'I' for Inactive)
REMARK    1  A    between atoms: C_1  and  C_2 
REMARK    2  A    between atoms: C_4  and  C_8 
ROOT
HETATM    1  C   UNL     1      62.454  10.024   3.597  1.00  0.00     0.041 A 
HETATM    2  C   UNL     1      63.016   8.748   3.750  1.00  0.00     0.030 A 
HETATM    3  C   UNL     1      63.010   7.810   2.698  1.00  0.00    -0.025 A 
HETATM    4  C   UNL     1      61.856  10.380   2.387  1.00  0.00     0.018 A 
HETATM    5  C   UNL     1      62.402   8.202   1.490  1.00  0.00     0.012 A 
HETATM    6  C   UNL     1      61.832   9.471   1.335  1.00  0.00     0.002 A 
ENDROOT
BRANCH   3   7
HETATM    7  C   UNL     1      63.625   6.469   2.865  1.00  0.00    -0.023 A 
HETATM    8  C   UNL     1      63.956   5.672   1.759  1.00  0.00     0.029 A 
HETATM    9  C   UNL     1      64.487   4.405   1.960  1.00  0.00     0.088 A 
HETATM   10  N   UNL     1      64.728   3.879   3.174  1.00  0.00    -0.375 N 
HETATM   11  C   UNL     1      64.428   4.655   4.235  1.00  0.00     0.088 A 
ATOM     12  HN  UNL     1      65.117   2.943   3.287  1.00  0.00     0.164 HD
HETATM   13  C   UNL     1      63.883   5.928   4.132  1.00  0.00     0.029 A 
ENDBRANCH   3   7
BRANCH   1  14
HETATM   14  C   UNL     1      62.422  11.003   4.712  1.00  0.00     0.209 C 
HETATM   15  O   UNL     1      61.920  12.108   4.605  1.00  0.00    -0.644 OA
HETATM   16  O   UNL     1      63.014  10.576   5.846  1.00  0.00    -0.644 OA
ENDBRANCH   1  14
TORSDOF 2
ENDMDL
MODEL 8
REMARK VINA RESULT:      -4.9      3.423      4.416
REMARK  2 active torsions:
REMARK  status: ('A' for Active; 'I' for Inactive)
REMARK    1  A    between atoms: C_1  and  C_2 
REMARK    2  A    between atoms: C_4  and  C_8 
ROOT
HETATM    1  C   UNL     1      62.943   9.472   4.501  1.00  0.00     0.041 A 
HETATM    2  C   UNL     1      61.924   9.003   3.659  1.00  0.00     0.030 A 
HETATM    3  C   UNL     1      62.038   7.772   2.982  1.00  0.00    -0.025 A 
HETATM    4  C   UNL     1      64.107   8.723   4.670  1.00  0.00     0.018 A 
HETATM    5  C   UNL     1      63.224   7.038   3.177  1.00  0.00     0.012 A 
HETATM    6  C   UNL     1      64.246   7.506   4.010  1.00  0.00     0.002 A 
ENDROOT
BRANCH   3   7
HETATM    7  C   UNL     1      60.946   7.275   2.108  1.00  0.00    -0.023 A 
HETATM    8  C   UNL     1      60.338   6.030   2.330  1.00  0.00     0.029 A 
HETATM    9  C   UNL     1      59.351   5.583   1.461  1.00  0.00     0.088 A 
HETATM   10  N   UNL     1      58.915   6.285   0.400  1.00  0.00    -0.375 N 
HETATM   11  C   UNL     1      59.486   7.489   0.201  1.00  0.00     0.088 A 
ATOM     12  HN  UNL     1      58.190   5.926  -0.221  1.00  0.00     0.164 HD
HETATM   13  C   UNL     1      60.487   8.014   1.009  1.00  0.00     0.029 A 
ENDBRANCH   3   7
BRANCH   1  14
HETATM   14  C   UNL     1      62.847  10.786   5.185  1.00  0.00     0.209 C 
HETATM   15  O   UNL     1      63.271  10.975   6.311  1.00  0.00    -0.644 OA
HETATM   16  O   UNL     1      62.233  11.747   4.464  1.00  0.00    -0.644 OA
ENDBRANCH   1  14
TORSDOF 2
ENDMDL
MODEL 9
REMARK VINA RESULT:      -4.9      1.661      2.386
REMARK  2 active torsions:
REMARK  status: ('A' for Active; 'I' for Inactive)
REMARK    1  A    between atoms: C_1  and  C_2 
REMARK    2  A    between atoms: C_4  and  C_8 
ROOT
HETATM    1  C   UNL     1      65.604   6.338   6.023  1.00  0.00     0.041 A 
HETATM    2  C   UNL     1      64.711   7.320   5.571  1.00  0.00     0.030 A 
HETATM    3  C   UNL     1      64.339   7.410   4.215  1.00  0.00    -0.025 A 
HETATM    4  C   UNL     1      66.160   5.433   5.116  1.00  0.00     0.018 A 
HETATM    5  C   UNL     1      64.915   6.481   3.327  1.00  0.00     0.012 A 
HETATM    6  C   UNL     1      65.813   5.503   3.771  1.00  0.00     0.002 A 
ENDROOT
BRANCH   3   7
HETATM    7  C   UNL     1      63.377   8.441   3.751  1.00  0.00    -0.023 A 
HETATM    8  C   UNL     1      62.953   9.480   4.593  1.00  0.00     0.029 A 
HETATM    9  C   UNL     1      62.017  10.397   4.134  1.00  0.00     0.088 A 
HETATM   10  N   UNL     1      61.484  10.368   2.899  1.00  0.00    -0.375 N 
HETATM   11  C   UNL     1      61.909   9.381   2.085  1.00  0.00     0.088 A 
ATOM     12  HN  UNL     1      60.796  11.056   2.595  1.00  0.00     0.164 HD
HETATM   13  C   UNL     1      62.832   8.413   2.460  1.00  0.00     0.029 A 
ENDBRANCH   3   7
BRANCH   1  14
HETATM   14  C   UNL     1      66.031   6.262   7.442  1.00  0.00     0.209 C 
HETATM   15  O   UNL     1      65.536   6.950   8.317  1.00  0.00    -0.644 OA
HETATM   16  O   UNL     1      67.026   5.383   7.678  1.00  0.00    -0.644 OA
ENDBRANCH   1  14
TORSDOF 2
ENDMDL
