MODEL 1
REMARK VINA RESULT:      -5.3      0.000      0.000
REMARK  2 active torsions:
REMARK  status: ('A' for Active; 'I' for Inactive)
REMARK    1  A    between atoms: N_1  and  C_2 
REMARK    2  A    between atoms: C_9  and  N_10 
ROOT
HETATM    1  C   UNL     1      62.966   8.412   3.517  1.00  0.00     0.032 A 
HETATM    2  C   UNL     1      62.472   9.724   3.378  1.00  0.00     0.058 A 
HETATM    3  C   UNL     1      61.973  10.212   2.168  1.00  0.00     0.027 A 
HETATM    4  C   UNL     1      62.883   7.576   2.402  1.00  0.00     0.029 A 
HETATM    5  C   UNL     1      62.312   8.022   1.205  1.00  0.00     0.004 A 
HETATM    6  C   UNL     1      61.842   9.332   1.098  1.00  0.00     0.029 A 
ENDROOT
BRANCH   1   7
HETATM    7  N   UNL     1      63.553   8.031   4.708  1.00  0.00    -0.378 N 
HETATM    8  C   UNL     1      62.809   7.331   5.761  1.00  0.00     0.150 C 
HETATM    9  C   UNL     1      63.777   6.371   6.501  1.00  0.00     0.254 C 
HETATM   10  N   UNL     1      64.975   7.058   7.043  1.00  0.00    -0.072 N 
HETATM   11  C   UNL     1      65.661   7.790   5.952  1.00  0.00     0.254 C 
HETATM   12  C   UNL     1      65.885   6.093   7.656  1.00  0.00     0.269 C 
HETATM   13  H   UNL     1      64.682   7.719   7.763  1.00  0.00     0.279 HD
HETATM   14  C   UNL     1      64.724   8.770   5.209  1.00  0.00     0.150 C 
ENDBRANCH   1   7
BRANCH   3  15
HETATM   15  N   UNL     1      61.420  11.499   2.106  1.00  0.00    -0.399 N 
HETATM   16  H   UNL     1      60.504  11.626   1.765  1.00  0.00     0.156 HD
HETATM   17  H   UNL     1      61.945  12.276   2.404  1.00  0.00     0.156 HD
ENDBRANCH   3  15
TORSDOF 2
ENDMDL
MODEL 2
REMARK VINA RESULT:      -5.0      1.338      2.494
REMARK  2 active torsions:
REMARK  status: ('A' for Active; 'I' for Inactive)
REMARK    1  A    between atoms: N_1  and  C_2 
REMARK    2  A    between atoms: C_9  and  N_10 
ROOT
HETATM    1  C   UNL     1      63.465   9.079   4.727  1.00  0.00     0.032 A 
HETATM    2  C   UNL     1      62.825   8.904   3.484  1.00  0.00     0.058 A 
HETATM    3  C   UNL     1      61.962   9.862   2.945  1.00  0.00     0.027 A 
HETATM    4  C   UNL     1      63.256  10.291   5.389  1.00  0.00     0.029 A 
HETATM    5  C   UNL     1      62.460  11.294   4.826  1.00  0.00     0.004 A 
HETATM    6  C   UNL     1      61.831  11.083   3.598  1.00  0.00     0.029 A 
ENDROOT
BRANCH   1   7
HETATM    7  N   UNL     1      64.212   8.045   5.257  1.00  0.00    -0.378 N 
HETATM    8  C   UNL     1      65.670   8.125   5.403  1.00  0.00     0.150 C 
HETATM    9  C   UNL     1      66.089   7.314   6.658  1.00  0.00     0.254 C 
HETATM   10  N   UNL     1      65.619   5.908   6.626  1.00  0.00    -0.072 N 
HETATM   11  C   UNL     1      64.150   5.882   6.426  1.00  0.00     0.254 C 
HETATM   12  C   UNL     1      65.973   5.222   7.867  1.00  0.00     0.269 C 
HETATM   13  H   UNL     1      66.074   5.422   5.853  1.00  0.00     0.279 HD
HETATM   14  C   UNL     1      63.705   6.666   5.169  1.00  0.00     0.150 C 
ENDBRANCH   1   7
BRANCH   3  15
HETATM   15  N   UNL     1      61.415   9.672   1.668  1.00  0.00    -0.399 N 
HETATM   16  H   UNL     1      61.824   9.024   1.048  1.00  0.00     0.156 HD
HETATM   17  H   UNL     1      60.622  10.184   1.389  1.00  0.00     0.156 HD
ENDBRANCH   3  15
TORSDOF 2
ENDMDL
MODEL 3
REMARK VINA RESULT:      -4.8      1.653      2.327
REMARK  2 active torsions:
REMARK  status: ('A' for Active; 'I' for Inactive)
REMARK    1  A    between atoms: N_1  and  C_2 
REMARK    2  A    between atoms: C_9  and  N_10 
ROOT
HETATM    1  C   UNL     1      63.821   8.334   4.493  1.00  0.00     0.032 A 
HETATM    2  C   UNL     1      63.564   9.578   5.103  1.00  0.00     0.058 A 
HETATM    3  C   UNL     1      62.745  10.545   4.515  1.00  0.00     0.027 A 
HETATM    4  C   UNL     1      63.169   8.066   3.288  1.00  0.00     0.029 A 
HETATM    5  C   UNL     1      62.282   8.990   2.725  1.00  0.00     0.004 A 
HETATM    6  C   UNL     1      62.059  10.218   3.350  1.00  0.00     0.029 A 
ENDROOT
BRANCH   1   7
HETATM    7  N   UNL     1      64.731   7.471   5.071  1.00  0.00    -0.378 N 
HETATM    8  C   UNL     1      65.732   6.743   4.283  1.00  0.00     0.150 C 
HETATM    9  C   UNL     1      67.009   6.564   5.144  1.00  0.00     0.254 C 
HETATM   10  N   UNL     1      66.748   5.898   6.443  1.00  0.00    -0.072 N 
HETATM   11  C   UNL     1      65.695   6.642   7.176  1.00  0.00     0.254 C 
HETATM   12  C   UNL     1      67.970   5.831   7.240  1.00  0.00     0.269 C 
HETATM   13  H   UNL     1      66.429   4.944   6.269  1.00  0.00     0.279 HD
HETATM   14  C   UNL     1      64.401   6.818   6.349  1.00  0.00     0.150 C 
ENDBRANCH   1   7
BRANCH   3  15
HETATM   15  N   UNL     1      62.460  11.734   5.203  1.00  0.00    -0.399 N 
HETATM   16  H   UNL     1      63.184  12.228   5.653  1.00  0.00     0.156 HD
HETATM   17  H   UNL     1      61.537  12.075   5.236  1.00  0.00     0.156 HD
ENDBRANCH   3  15
TORSDOF 2
ENDMDL
MODEL 4
REMARK VINA RESULT:      -4.7      2.439      3.343
REMARK  2 active torsions:
REMARK  status: ('A' for Active; 'I' for Inactive)
REMARK    1  A    between atoms: N_1  and  C_2 
REMARK    2  A    between atoms: C_9  and  N_10 
ROOT
HETATM    1  C   UNL     1      63.289   8.721   3.876  1.00  0.00     0.032 A 
HETATM    2  C   UNL     1      63.546   9.452   5.052  1.00  0.00     0.058 A 
HETATM    3  C   UNL     1      63.046  10.741   5.257  1.00  0.00     0.027 A 
HETATM    4  C   UNL     1      62.450   9.310   2.928  1.00  0.00     0.029 A 
HETATM    5  C   UNL     1      61.875  10.565   3.151  1.00  0.00     0.004 A 
HETATM    6  C   UNL     1      62.160  11.268   4.324  1.00  0.00     0.029 A 
ENDROOT
BRANCH   1   7
HETATM    7  N   UNL     1      63.909   7.502   3.686  1.00  0.00    -0.378 N 
HETATM    8  C   UNL     1      63.242   6.377   3.021  1.00  0.00     0.150 C 
HETATM    9  C   UNL     1      64.307   5.549   2.255  1.00  0.00     0.254 C 
HETATM   10  N   UNL     1      65.420   5.089   3.121  1.00  0.00    -0.072 N 
HETATM   11  C   UNL     1      66.026   6.255   3.808  1.00  0.00     0.254 C 
HETATM   12  C   UNL     1      66.428   4.387   2.330  1.00  0.00     0.269 C 
HETATM   13  H   UNL     1      65.053   4.439   3.817  1.00  0.00     0.279 HD
HETATM   14  C   UNL     1      64.990   7.088   4.597  1.00  0.00     0.150 C 
ENDBRANCH   1   7
BRANCH   3  15
HETATM   15  N   UNL     1      63.267  11.391   6.480  1.00  0.00    -0.399 N 
HETATM   16  H   UNL     1      62.545  11.440   7.150  1.00  0.00     0.156 HD
HETATM   17  H   UNL     1      64.142  11.799   6.671  1.00  0.00     0.156 HD
ENDBRANCH   3  15
TORSDOF 2
ENDMDL
MODEL 5
REMARK VINA RESULT:      -4.6      1.453      1.983
REMARK  2 active torsions:
REMARK  status: ('A' for Active; 'I' for Inactive)
REMARK    1  A    between atoms: N_1  and  C_2 
REMARK    2  A    between atoms: C_9  and  N_10 
ROOT
HETATM    1  C   UNL     1      62.745   8.255   3.295  1.00  0.00     0.032 A 
HETATM    2  C   UNL     1      62.328   7.187   2.477  1.00  0.00     0.058 A 
HETATM    3  C   UNL     1      61.614   7.386   1.292  1.00  0.00     0.027 A 
HETATM    4  C   UNL     1      62.471   9.549   2.846  1.00  0.00     0.029 A 
HETATM    5  C   UNL     1      61.828   9.769   1.624  1.00  0.00     0.004 A 
HETATM    6  C   UNL     1      61.418   8.687   0.843  1.00  0.00     0.029 A 
ENDROOT
BRANCH   1   7
HETATM    7  N   UNL     1      63.344   7.985   4.510  1.00  0.00    -0.378 N 
HETATM    8  C   UNL     1      62.637   7.303   5.599  1.00  0.00     0.150 C 
HETATM    9  C   UNL     1      63.658   6.455   6.401  1.00  0.00     0.254 C 
HETATM   10  N   UNL     1      64.805   7.248   6.907  1.00  0.00    -0.072 N 
HETATM   11  C   UNL     1      65.452   7.957   5.777  1.00  0.00     0.254 C 
HETATM   12  C   UNL     1      65.769   6.382   7.581  1.00  0.00     0.269 C 
HETATM   13  H   UNL     1      64.463   7.932   7.584  1.00  0.00     0.279 HD
HETATM   14  C   UNL     1      64.460   8.827   4.971  1.00  0.00     0.150 C 
ENDBRANCH   1   7
BRANCH   3  15
HETATM   15  N   UNL     1      61.294   6.291   0.475  1.00  0.00    -0.399 N 
HETATM   16  H   UNL     1      61.383   5.374   0.824  1.00  0.00     0.156 HD
HETATM   17  H   UNL     1      60.981   6.438  -0.446  1.00  0.00     0.156 HD
ENDBRANCH   3  15
TORSDOF 2
ENDMDL
MODEL 6
REMARK VINA RESULT:      -4.4      1.785      5.524
REMARK  2 active torsions:
REMARK  status: ('A' for Active; 'I' for Inactive)
REMARK    1  A    between atoms: N_1  and  C_2 
REMARK    2  A    between atoms: C_9  and  N_10 
ROOT
HETATM    1  C   UNL     1      65.168   7.434   4.380  1.00  0.00     0.032 A 
HETATM    2  C   UNL     1      65.525   8.159   5.534  1.00  0.00     0.058 A 
HETATM    3  C   UNL     1      66.689   7.889   6.258  1.00  0.00     0.027 A 
HETATM    4  C   UNL     1      66.062   6.457   3.937  1.00  0.00     0.029 A 
HETATM    5  C   UNL     1      67.271   6.228   4.602  1.00  0.00     0.004 A 
HETATM    6  C   UNL     1      67.588   6.957   5.750  1.00  0.00     0.029 A 
ENDROOT
BRANCH   1   7
HETATM    7  N   UNL     1      63.948   7.673   3.779  1.00  0.00    -0.378 N 
HETATM    8  C   UNL     1      63.106   8.819   4.140  1.00  0.00     0.150 C 
HETATM    9  C   UNL     1      62.330   9.284   2.880  1.00  0.00     0.254 C 
HETATM   10  N   UNL     1      61.536   8.199   2.252  1.00  0.00    -0.072 N 
HETATM   11  C   UNL     1      62.422   7.048   1.954  1.00  0.00     0.254 C 
HETATM   12  C   UNL     1      60.896   8.676   1.029  1.00  0.00     0.269 C 
HETATM   13  H   UNL     1      60.805   7.905   2.900  1.00  0.00     0.279 HD
HETATM   14  C   UNL     1      63.193   6.550   3.198  1.00  0.00     0.150 C 
ENDBRANCH   1   7
BRANCH   3  15
HETATM   15  N   UNL     1      67.036   8.694   7.352  1.00  0.00    -0.399 N 
HETATM   16  H   UNL     1      66.381   8.858   8.071  1.00  0.00     0.156 HD
HETATM   17  H   UNL     1      67.932   9.097   7.404  1.00  0.00     0.156 HD
ENDBRANCH   3  15
TORSDOF 2
ENDMDL
MODEL 7
REMARK VINA RESULT:      -4.4      1.748      5.544
REMARK  2 active torsions:
REMARK  status: ('A' for Active; 'I' for Inactive)
REMARK    1  A    between atoms: N_1  and  C_2 
REMARK    2  A    between atoms: C_9  and  N_10 
ROOT
HETATM    1  C   UNL     1      64.249   7.515   4.936  1.00  0.00     0.032 A 
HETATM    2  C   UNL     1      65.366   7.084   4.194  1.00  0.00     0.058 A 
HETATM    3  C   UNL     1      66.358   6.266   4.741  1.00  0.00     0.027 A 
HETATM    4  C   UNL     1      64.129   7.041   6.244  1.00  0.00     0.029 A 
HETATM    5  C   UNL     1      65.070   6.157   6.782  1.00  0.00     0.004 A 
HETATM    6  C   UNL     1      66.171   5.758   6.022  1.00  0.00     0.029 A 
ENDROOT
BRANCH   1   7
HETATM    7  N   UNL     1      63.367   8.416   4.372  1.00  0.00    -0.378 N 
HETATM    8  C   UNL     1      62.708   9.466   5.157  1.00  0.00     0.150 C 
HETATM    9  C   UNL     1      62.497  10.707   4.251  1.00  0.00     0.254 C 
HETATM   10  N   UNL     1      61.746  10.400   3.010  1.00  0.00    -0.072 N 
HETATM   11  C   UNL     1      62.423   9.301   2.281  1.00  0.00     0.254 C 
HETATM   12  C   UNL     1      61.650  11.587   2.163  1.00  0.00     0.269 C 
HETATM   13  H   UNL     1      60.799  10.109   3.257  1.00  0.00     0.279 HD
HETATM   14  C   UNL     1      62.628   8.042   3.154  1.00  0.00     0.150 C 
ENDBRANCH   1   7
BRANCH   3  15
HETATM   15  N   UNL     1      67.406   5.801   3.933  1.00  0.00    -0.399 N 
HETATM   16  H   UNL     1      68.318   6.155   4.057  1.00  0.00     0.156 HD
HETATM   17  H   UNL     1      67.233   5.121   3.243  1.00  0.00     0.156 HD
ENDBRANCH   3  15
TORSDOF 2
ENDMDL
MODEL 8
REMARK VINA RESULT:      -4.3      1.796      5.981
REMARK  2 active torsions:
REMARK  status: ('A' for Active; 'I' for Inactive)
REMARK    1  A    between atoms: N_1  and  C_2 
REMARK    2  A    between atoms: C_9  and  N_10 
ROOT
HETATM    1  C   UNL     1      65.305   7.152   5.952  1.00  0.00     0.032 A 
HETATM    2  C   UNL     1      65.289   6.339   7.102  1.00  0.00     0.058 A 
HETATM    3  C   UNL     1      66.447   5.757   7.625  1.00  0.00     0.027 A 
HETATM    4  C   UNL     1      66.548   7.416   5.374  1.00  0.00     0.029 A 
HETATM    5  C   UNL     1      67.727   6.909   5.930  1.00  0.00     0.004 A 
HETATM    6  C   UNL     1      67.674   6.096   7.064  1.00  0.00     0.029 A 
ENDROOT
BRANCH   1   7
HETATM    7  N   UNL     1      64.111   7.600   5.421  1.00  0.00    -0.378 N 
HETATM    8  C   UNL     1      64.007   8.858   4.674  1.00  0.00     0.150 C 
HETATM    9  C   UNL     1      62.912   8.702   3.587  1.00  0.00     0.254 C 
HETATM   10  N   UNL     1      61.600   8.284   4.138  1.00  0.00    -0.072 N 
HETATM   11  C   UNL     1      61.768   7.039   4.925  1.00  0.00     0.254 C 
HETATM   12  C   UNL     1      60.635   8.076   3.061  1.00  0.00     0.269 C 
HETATM   13  H   UNL     1      61.243   9.023   4.746  1.00  0.00     0.279 HD
HETATM   14  C   UNL     1      62.841   7.172   6.031  1.00  0.00     0.150 C 
ENDBRANCH   1   7
BRANCH   3  15
HETATM   15  N   UNL     1      66.385   5.022   8.818  1.00  0.00    -0.399 N 
HETATM   16  H   UNL     1      66.843   4.152   8.884  1.00  0.00     0.156 HD
HETATM   17  H   UNL     1      65.884   5.374   9.588  1.00  0.00     0.156 HD
ENDBRANCH   3  15
TORSDOF 2
ENDMDL
MODEL 9
REMARK VINA RESULT:      -4.2      2.571      3.401
REMARK  2 active torsions:
REMARK  status: ('A' for Active; 'I' for Inactive)
REMARK    1  A    between atoms: N_1  and  C_2 
REMARK    2  A    between atoms: C_9  and  N_10 
ROOT
HETATM    1  C   UNL     1      61.353   7.927   3.257  1.00  0.00     0.032 A 
HETATM    2  C   UNL     1      61.387   9.314   3.500  1.00  0.00     0.058 A 
HETATM    3  C   UNL     1      61.809  10.233   2.535  1.00  0.00     0.027 A 
HETATM    4  C   UNL     1      61.704   7.494   1.977  1.00  0.00     0.029 A 
HETATM    5  C   UNL     1      62.051   8.405   0.975  1.00  0.00     0.004 A 
HETATM    6  C   UNL     1      62.085   9.773   1.252  1.00  0.00     0.029 A 
ENDROOT
BRANCH   1   7
HETATM    7  N   UNL     1      61.038   7.065   4.289  1.00  0.00    -0.378 N 
HETATM    8  C   UNL     1      62.062   6.468   5.154  1.00  0.00     0.150 C 
HETATM    9  C   UNL     1      61.466   6.281   6.574  1.00  0.00     0.254 C 
HETATM   10  N   UNL     1      60.214   5.485   6.580  1.00  0.00    -0.072 N 
HETATM   11  C   UNL     1      59.233   6.101   5.654  1.00  0.00     0.254 C 
HETATM   12  C   UNL     1      59.660   5.413   7.930  1.00  0.00     0.269 C 
HETATM   13  H   UNL     1      60.422   4.535   6.270  1.00  0.00     0.279 HD
HETATM   14  C   UNL     1      59.793   6.281   4.224  1.00  0.00     0.150 C 
ENDBRANCH   1   7
BRANCH   3  15
HETATM   15  N   UNL     1      61.746  11.609   2.804  1.00  0.00    -0.399 N 
HETATM   16  H   UNL     1      62.340  12.006   3.482  1.00  0.00     0.156 HD
HETATM   17  H   UNL     1      61.109  12.178   2.315  1.00  0.00     0.156 HD
ENDBRANCH   3  15
TORSDOF 2
ENDMDL
