MODEL 1
REMARK VINA RESULT:      -5.1      0.000      0.000
REMARK  2 active torsions:
REMARK  status: ('A' for Active; 'I' for Inactive)
REMARK    1  A    between atoms: C_1  and  C_2 
REMARK    2  A    between atoms: C_4  and  N_8 
ROOT
HETATM    1  C   UNL     1      63.198   9.261   4.474  1.00  0.00     0.007 A 
HETATM    2  C   UNL     1      62.850  10.549   4.948  1.00  0.00     0.037 A 
HETATM    3  C   UNL     1      62.811   8.907   3.163  1.00  0.00     0.015 A 
HETATM    4  C   UNL     1      62.065  11.391   4.139  1.00  0.00     0.030 A 
HETATM    5  C   UNL     1      62.068   9.773   2.359  1.00  0.00     0.001 A 
HETATM    6  C   UNL     1      61.689  11.014   2.851  1.00  0.00     0.002 A 
ENDROOT
BRANCH   1   7
HETATM    7  C   UNL     1      63.929   8.250   5.277  1.00  0.00     0.017 A 
HETATM    8  S   UNL     1      63.098   7.029   6.165  1.00  0.00    -0.101 SA
HETATM    9  C   UNL     1      64.551   6.304   6.689  1.00  0.00     0.050 A 
HETATM   10  C   UNL     1      65.654   7.017   6.287  1.00  0.00     0.008 A 
HETATM   11  C   UNL     1      65.297   8.142   5.488  1.00  0.00     0.020 A 
ENDBRANCH   1   7
BRANCH   2  12
HETATM   12  N   UNL     1      63.041  10.946   6.290  1.00  0.00    -0.398 N 
HETATM   13  H   UNL     1      63.801  11.524   6.528  1.00  0.00     0.156 HD
HETATM   14  H   UNL     1      62.414  10.644   6.986  1.00  0.00     0.156 HD
ENDBRANCH   2  12
TORSDOF 2
ENDMDL
MODEL 2
REMARK VINA RESULT:      -4.8      1.968      2.581
REMARK  2 active torsions:
REMARK  status: ('A' for Active; 'I' for Inactive)
REMARK    1  A    between atoms: C_1  and  C_2 
REMARK    2  A    between atoms: C_4  and  N_8 
ROOT
HETATM    1  C   UNL     1      62.608   9.209   3.775  1.00  0.00     0.007 A 
HETATM    2  C   UNL     1      62.386   8.935   2.404  1.00  0.00     0.037 A 
HETATM    3  C   UNL     1      62.327  10.509   4.249  1.00  0.00     0.015 A 
HETATM    4  C   UNL     1      61.980   9.978   1.551  1.00  0.00     0.030 A 
HETATM    5  C   UNL     1      61.885  11.521   3.395  1.00  0.00     0.001 A 
HETATM    6  C   UNL     1      61.717  11.257   2.043  1.00  0.00     0.002 A 
ENDROOT
BRANCH   1   7
HETATM    7  C   UNL     1      63.138   8.218   4.744  1.00  0.00     0.017 A 
HETATM    8  S   UNL     1      64.830   8.029   5.009  1.00  0.00    -0.101 SA
HETATM    9  C   UNL     1      64.593   6.852   6.223  1.00  0.00     0.050 A 
HETATM   10  C   UNL     1      63.266   6.527   6.370  1.00  0.00     0.008 A 
HETATM   11  C   UNL     1      62.432   7.302   5.512  1.00  0.00     0.020 A 
ENDBRANCH   1   7
BRANCH   2  12
HETATM   12  N   UNL     1      62.783   7.727   1.792  1.00  0.00    -0.398 N 
HETATM   13  H   UNL     1      62.175   7.266   1.172  1.00  0.00     0.156 HD
HETATM   14  H   UNL     1      63.670   7.345   1.988  1.00  0.00     0.156 HD
ENDBRANCH   2  12
TORSDOF 2
ENDMDL
MODEL 3
REMARK VINA RESULT:      -4.7      1.475      2.030
REMARK  2 active torsions:
REMARK  status: ('A' for Active; 'I' for Inactive)
REMARK    1  A    between atoms: C_1  and  C_2 
REMARK    2  A    between atoms: C_4  and  N_8 
ROOT
HETATM    1  C   UNL     1      63.101   9.163   4.371  1.00  0.00     0.007 A 
HETATM    2  C   UNL     1      62.685   8.856   3.053  1.00  0.00     0.037 A 
HETATM    3  C   UNL     1      62.769  10.431   4.896  1.00  0.00     0.015 A 
HETATM    4  C   UNL     1      62.036   9.843   2.288  1.00  0.00     0.030 A 
HETATM    5  C   UNL     1      62.088  11.383   4.135  1.00  0.00     0.001 A 
HETATM    6  C   UNL     1      61.727  11.091   2.828  1.00  0.00     0.002 A 
ENDROOT
BRANCH   1   7
HETATM    7  C   UNL     1      63.885   8.241   5.230  1.00  0.00     0.017 A 
HETATM    8  S   UNL     1      63.124   6.997   6.147  1.00  0.00    -0.101 SA
HETATM    9  C   UNL     1      64.614   6.403   6.732  1.00  0.00     0.050 A 
HETATM   10  C   UNL     1      65.671   7.181   6.327  1.00  0.00     0.008 A 
HETATM   11  C   UNL     1      65.251   8.245   5.475  1.00  0.00     0.020 A 
ENDBRANCH   1   7
BRANCH   2  12
HETATM   12  N   UNL     1      63.099   7.690   2.374  1.00  0.00    -0.398 N 
HETATM   13  H   UNL     1      62.805   7.528   1.449  1.00  0.00     0.156 HD
HETATM   14  H   UNL     1      63.683   7.038   2.826  1.00  0.00     0.156 HD
ENDBRANCH   2  12
TORSDOF 2
ENDMDL
MODEL 4
REMARK VINA RESULT:      -4.4      1.481      1.768
REMARK  2 active torsions:
REMARK  status: ('A' for Active; 'I' for Inactive)
REMARK    1  A    between atoms: C_1  and  C_2 
REMARK    2  A    between atoms: C_4  and  N_8 
ROOT
HETATM    1  C   UNL     1      62.758   8.876   3.670  1.00  0.00     0.007 A 
HETATM    2  C   UNL     1      62.704  10.068   4.432  1.00  0.00     0.037 A 
HETATM    3  C   UNL     1      62.336   8.926   2.324  1.00  0.00     0.015 A 
HETATM    4  C   UNL     1      62.156  11.229   3.855  1.00  0.00     0.030 A 
HETATM    5  C   UNL     1      61.834  10.098   1.757  1.00  0.00     0.001 A 
HETATM    6  C   UNL     1      61.738  11.250   2.525  1.00  0.00     0.002 A 
ENDROOT
BRANCH   1   7
HETATM    7  C   UNL     1      63.214   7.569   4.206  1.00  0.00     0.017 A 
HETATM    8  S   UNL     1      64.886   7.162   4.289  1.00  0.00    -0.101 SA
HETATM    9  C   UNL     1      64.568   5.660   5.035  1.00  0.00     0.050 A 
HETATM   10  C   UNL     1      63.221   5.414   5.138  1.00  0.00     0.008 A 
HETATM   11  C   UNL     1      62.443   6.504   4.650  1.00  0.00     0.020 A 
ENDBRANCH   1   7
BRANCH   2  12
HETATM   12  N   UNL     1      62.945  10.098   5.823  1.00  0.00    -0.398 N 
HETATM   13  H   UNL     1      63.854  10.262   6.161  1.00  0.00     0.156 HD
HETATM   14  H   UNL     1      62.203   9.954   6.454  1.00  0.00     0.156 HD
ENDBRANCH   2  12
TORSDOF 2
ENDMDL
MODEL 5
REMARK VINA RESULT:      -4.3      1.738      4.795
REMARK  2 active torsions:
REMARK  status: ('A' for Active; 'I' for Inactive)
REMARK    1  A    between atoms: C_1  and  C_2 
REMARK    2  A    between atoms: C_4  and  N_8 
ROOT
HETATM    1  C   UNL     1      64.240   8.150   5.272  1.00  0.00     0.007 A 
HETATM    2  C   UNL     1      63.788   7.100   6.107  1.00  0.00     0.037 A 
HETATM    3  C   UNL     1      65.626   8.422   5.236  1.00  0.00     0.015 A 
HETATM    4  C   UNL     1      64.711   6.427   6.928  1.00  0.00     0.030 A 
HETATM    5  C   UNL     1      66.532   7.716   6.028  1.00  0.00     0.001 A 
HETATM    6  C   UNL     1      66.073   6.721   6.880  1.00  0.00     0.002 A 
ENDROOT
BRANCH   1   7
HETATM    7  C   UNL     1      63.346   8.997   4.445  1.00  0.00     0.017 A 
HETATM    8  S   UNL     1      62.780  10.526   5.003  1.00  0.00    -0.101 SA
HETATM    9  C   UNL     1      61.953  10.846   3.545  1.00  0.00     0.050 A 
HETATM   10  C   UNL     1      62.015   9.783   2.677  1.00  0.00     0.008 A 
HETATM   11  C   UNL     1      62.803   8.716   3.199  1.00  0.00     0.020 A 
ENDBRANCH   1   7
BRANCH   2  12
HETATM   12  N   UNL     1      62.418   6.848   6.343  1.00  0.00    -0.398 N 
HETATM   13  H   UNL     1      62.067   5.932   6.274  1.00  0.00     0.156 HD
HETATM   14  H   UNL     1      61.816   7.591   6.577  1.00  0.00     0.156 HD
ENDBRANCH   2  12
TORSDOF 2
ENDMDL
MODEL 6
REMARK VINA RESULT:      -4.2      2.740      3.188
REMARK  2 active torsions:
REMARK  status: ('A' for Active; 'I' for Inactive)
REMARK    1  A    between atoms: C_1  and  C_2 
REMARK    2  A    between atoms: C_4  and  N_8 
ROOT
HETATM    1  C   UNL     1      62.508   8.803   3.013  1.00  0.00     0.007 A 
HETATM    2  C   UNL     1      62.152   9.459   1.810  1.00  0.00     0.037 A 
HETATM    3  C   UNL     1      62.474   9.546   4.213  1.00  0.00     0.015 A 
HETATM    4  C   UNL     1      61.863  10.836   1.837  1.00  0.00     0.030 A 
HETATM    5  C   UNL     1      62.144  10.902   4.225  1.00  0.00     0.001 A 
HETATM    6  C   UNL     1      61.845  11.550   3.035  1.00  0.00     0.002 A 
ENDROOT
BRANCH   1   7
HETATM    7  C   UNL     1      62.934   7.384   3.089  1.00  0.00     0.017 A 
HETATM    8  S   UNL     1      61.789   6.098   3.140  1.00  0.00    -0.101 SA
HETATM    9  C   UNL     1      63.006   4.902   3.137  1.00  0.00     0.050 A 
HETATM   10  C   UNL     1      64.264   5.450   3.194  1.00  0.00     0.008 A 
HETATM   11  C   UNL     1      64.223   6.875   3.180  1.00  0.00     0.020 A 
ENDBRANCH   1   7
BRANCH   2  12
HETATM   12  N   UNL     1      62.307   8.863   0.539  1.00  0.00    -0.398 N 
HETATM   13  H   UNL     1      62.954   9.232  -0.103  1.00  0.00     0.156 HD
HETATM   14  H   UNL     1      61.766   8.076   0.297  1.00  0.00     0.156 HD
ENDBRANCH   2  12
TORSDOF 2
ENDMDL
MODEL 7
REMARK VINA RESULT:      -4.2      2.445      4.221
REMARK  2 active torsions:
REMARK  status: ('A' for Active; 'I' for Inactive)
REMARK    1  A    between atoms: C_1  and  C_2 
REMARK    2  A    between atoms: C_4  and  N_8 
ROOT
HETATM    1  C   UNL     1      62.162   9.258   3.493  1.00  0.00     0.007 A 
HETATM    2  C   UNL     1      61.910  10.648   3.590  1.00  0.00     0.037 A 
HETATM    3  C   UNL     1      62.881   8.637   4.538  1.00  0.00     0.015 A 
HETATM    4  C   UNL     1      62.450  11.372   4.669  1.00  0.00     0.030 A 
HETATM    5  C   UNL     1      63.374   9.365   5.622  1.00  0.00     0.001 A 
HETATM    6  C   UNL     1      63.164  10.736   5.684  1.00  0.00     0.002 A 
ENDROOT
BRANCH   1   7
HETATM    7  C   UNL     1      61.735   8.415   2.349  1.00  0.00     0.017 A 
HETATM    8  S   UNL     1      60.506   7.220   2.518  1.00  0.00    -0.101 SA
HETATM    9  C   UNL     1      60.565   6.805   0.864  1.00  0.00     0.050 A 
HETATM   10  C   UNL     1      61.559   7.483   0.201  1.00  0.00     0.008 A 
HETATM   11  C   UNL     1      62.240   8.398   1.056  1.00  0.00     0.020 A 
ENDBRANCH   1   7
BRANCH   2  12
HETATM   12  N   UNL     1      61.347  11.398   2.534  1.00  0.00    -0.398 N 
HETATM   13  H   UNL     1      60.673  12.088   2.726  1.00  0.00     0.156 HD
HETATM   14  H   UNL     1      61.631  11.229   1.606  1.00  0.00     0.156 HD
ENDBRANCH   2  12
TORSDOF 2
ENDMDL
MODEL 8
REMARK VINA RESULT:      -4.2      2.859      4.243
REMARK  2 active torsions:
REMARK  status: ('A' for Active; 'I' for Inactive)
REMARK    1  A    between atoms: C_1  and  C_2 
REMARK    2  A    between atoms: C_4  and  N_8 
ROOT
HETATM    1  C   UNL     1      61.562   8.672   2.343  1.00  0.00     0.007 A 
HETATM    2  C   UNL     1      60.311   8.010   2.308  1.00  0.00     0.037 A 
HETATM    3  C   UNL     1      62.449   8.478   1.261  1.00  0.00     0.015 A 
HETATM    4  C   UNL     1      60.031   7.123   1.253  1.00  0.00     0.030 A 
HETATM    5  C   UNL     1      62.135   7.626   0.201  1.00  0.00     0.001 A 
HETATM    6  C   UNL     1      60.928   6.942   0.200  1.00  0.00     0.002 A 
ENDROOT
BRANCH   1   7
HETATM    7  C   UNL     1      62.009   9.545   3.456  1.00  0.00     0.017 A 
HETATM    8  S   UNL     1      62.839   8.909   4.825  1.00  0.00    -0.101 SA
HETATM    9  C   UNL     1      63.044  10.452   5.523  1.00  0.00     0.050 A 
HETATM   10  C   UNL     1      62.417  11.432   4.794  1.00  0.00     0.008 A 
HETATM   11  C   UNL     1      61.811  10.910   3.614  1.00  0.00     0.020 A 
ENDBRANCH   1   7
BRANCH   2  12
HETATM   12  N   UNL     1      59.421   8.002   3.404  1.00  0.00    -0.398 N 
HETATM   13  H   UNL     1      59.272   7.172   3.911  1.00  0.00     0.156 HD
HETATM   14  H   UNL     1      58.950   8.828   3.660  1.00  0.00     0.156 HD
ENDBRANCH   2  12
TORSDOF 2
ENDMDL
MODEL 9
REMARK VINA RESULT:      -4.2      2.250      2.654
REMARK  2 active torsions:
REMARK  status: ('A' for Active; 'I' for Inactive)
REMARK    1  A    between atoms: C_1  and  C_2 
REMARK    2  A    between atoms: C_4  and  N_8 
ROOT
HETATM    1  C   UNL     1      62.835   8.676   3.707  1.00  0.00     0.007 A 
HETATM    2  C   UNL     1      63.208   9.212   4.963  1.00  0.00     0.037 A 
HETATM    3  C   UNL     1      62.192   9.530   2.783  1.00  0.00     0.015 A 
HETATM    4  C   UNL     1      62.853  10.537   5.279  1.00  0.00     0.030 A 
HETATM    5  C   UNL     1      61.886  10.854   3.100  1.00  0.00     0.001 A 
HETATM    6  C   UNL     1      62.211  11.357   4.352  1.00  0.00     0.002 A 
ENDROOT
BRANCH   1   7
HETATM    7  C   UNL     1      63.059   7.265   3.306  1.00  0.00     0.017 A 
HETATM    8  S   UNL     1      61.768   6.127   3.247  1.00  0.00    -0.101 SA
HETATM    9  C   UNL     1      62.781   4.882   2.667  1.00  0.00     0.050 A 
HETATM   10  C   UNL     1      64.095   5.277   2.606  1.00  0.00     0.008 A 
HETATM   11  C   UNL     1      64.257   6.642   2.985  1.00  0.00     0.020 A 
ENDBRANCH   1   7
BRANCH   2  12
HETATM   12  N   UNL     1      63.705   8.414   6.017  1.00  0.00    -0.398 N 
HETATM   13  H   UNL     1      64.674   8.345   6.167  1.00  0.00     0.156 HD
HETATM   14  H   UNL     1      63.079   7.927   6.601  1.00  0.00     0.156 HD
ENDBRANCH   2  12
TORSDOF 2
ENDMDL
