MODEL 1
REMARK VINA RESULT:      -5.8      0.000      0.000
REMARK  3 active torsions:
REMARK  status: ('A' for Active; 'I' for Inactive)
REMARK    1  A    between atoms: C_1  and  C_3 
REMARK    2  A    between atoms: C_7  and  C_10 
REMARK    3  A    between atoms: O_8  and  C_10 
ROOT
HETATM    1  C   UNL     1      63.058   9.265   4.199  1.00  0.00    -0.011 A 
HETATM    2  C   UNL     1      62.660  10.567   4.594  1.00  0.00    -0.023 A 
HETATM    3  C   UNL     1      62.739   8.852   2.884  1.00  0.00     0.013 A 
HETATM    4  C   UNL     1      61.969  11.385   3.671  1.00  0.00     0.010 A 
HETATM    5  C   UNL     1      62.046   9.672   1.992  1.00  0.00     0.001 A 
HETATM    6  C   UNL     1      61.661  10.943   2.387  1.00  0.00     0.001 A 
ENDROOT
BRANCH   1   7
HETATM    7  C   UNL     1      63.802   8.323   5.074  1.00  0.00     0.015 A 
HETATM    8  S   UNL     1      62.937   7.216   6.083  1.00  0.00    -0.101 SA
HETATM    9  C   UNL     1      64.364   6.488   6.666  1.00  0.00     0.050 A 
HETATM   10  C   UNL     1      65.489   7.098   6.163  1.00  0.00     0.008 A 
HETATM   11  C   UNL     1      65.166   8.138   5.241  1.00  0.00     0.020 A 
ENDBRANCH   1   7
BRANCH   2  12
HETATM   12  C   UNL     1      62.924  11.162   5.956  1.00  0.00     0.203 C 
BRANCH  12  13
HETATM   13  O   UNL     1      64.295  11.461   6.169  1.00  0.00    -0.396 OA
HETATM   14  H   UNL     1      64.840  10.916   5.581  1.00  0.00     0.209 HD
ENDBRANCH  12  13
ENDBRANCH   2  12
TORSDOF 3
ENDMDL
MODEL 2
REMARK VINA RESULT:      -5.3      1.047      1.217
REMARK  3 active torsions:
REMARK  status: ('A' for Active; 'I' for Inactive)
REMARK    1  A    between atoms: C_1  and  C_3 
REMARK    2  A    between atoms: C_7  and  C_10 
REMARK    3  A    between atoms: O_8  and  C_10 
ROOT
HETATM    1  C   UNL     1      63.199   8.600   3.785  1.00  0.00    -0.011 A 
HETATM    2  C   UNL     1      62.572   9.871   3.828  1.00  0.00    -0.023 A 
HETATM    3  C   UNL     1      63.040   7.831   2.609  1.00  0.00     0.013 A 
HETATM    4  C   UNL     1      61.823  10.308   2.713  1.00  0.00     0.010 A 
HETATM    5  C   UNL     1      62.287   8.277   1.521  1.00  0.00     0.001 A 
HETATM    6  C   UNL     1      61.677   9.520   1.573  1.00  0.00     0.001 A 
ENDROOT
BRANCH   1   7
HETATM    7  C   UNL     1      64.023   8.043   4.887  1.00  0.00     0.015 A 
HETATM    8  S   UNL     1      63.296   7.013   6.073  1.00  0.00    -0.101 SA
HETATM    9  C   UNL     1      64.773   6.744   6.879  1.00  0.00     0.050 A 
HETATM   10  C   UNL     1      65.801   7.460   6.311  1.00  0.00     0.008 A 
HETATM   11  C   UNL     1      65.374   8.191   5.164  1.00  0.00     0.020 A 
ENDBRANCH   1   7
BRANCH   2  12
HETATM   12  C   UNL     1      62.644  10.816   5.004  1.00  0.00     0.203 C 
BRANCH  12  13
HETATM   13  O   UNL     1      62.110  12.099   4.710  1.00  0.00    -0.396 OA
HETATM   14  H   UNL     1      62.831  12.746   4.662  1.00  0.00     0.209 HD
ENDBRANCH  12  13
ENDBRANCH   2  12
TORSDOF 3
ENDMDL
MODEL 3
REMARK VINA RESULT:      -4.8      2.290      3.147
REMARK  3 active torsions:
REMARK  status: ('A' for Active; 'I' for Inactive)
REMARK    1  A    between atoms: C_1  and  C_3 
REMARK    2  A    between atoms: C_7  and  C_10 
REMARK    3  A    between atoms: O_8  and  C_10 
ROOT
HETATM    1  C   UNL     1      62.569   9.251   3.746  1.00  0.00    -0.011 A 
HETATM    2  C   UNL     1      62.406   8.989   2.362  1.00  0.00    -0.023 A 
HETATM    3  C   UNL     1      62.290  10.560   4.203  1.00  0.00     0.013 A 
HETATM    4  C   UNL     1      61.981  10.033   1.509  1.00  0.00     0.010 A 
HETATM    5  C   UNL     1      61.881  11.580   3.341  1.00  0.00     0.001 A 
HETATM    6  C   UNL     1      61.725  11.315   1.990  1.00  0.00     0.001 A 
ENDROOT
BRANCH   1   7
HETATM    7  C   UNL     1      62.994   8.232   4.739  1.00  0.00     0.015 A 
HETATM    8  S   UNL     1      64.657   8.122   5.206  1.00  0.00    -0.101 SA
HETATM    9  C   UNL     1      64.353   6.882   6.335  1.00  0.00     0.050 A 
HETATM   10  C   UNL     1      63.032   6.501   6.331  1.00  0.00     0.008 A 
HETATM   11  C   UNL     1      62.253   7.284   5.428  1.00  0.00     0.020 A 
ENDBRANCH   1   7
BRANCH   2  12
HETATM   12  C   UNL     1      62.659   7.649   1.713  1.00  0.00     0.203 C 
BRANCH  12  13
HETATM   13  O   UNL     1      62.480   7.679   0.305  1.00  0.00    -0.396 OA
HETATM   14  H   UNL     1      61.924   8.436   0.065  1.00  0.00     0.209 HD
ENDBRANCH  12  13
ENDBRANCH   2  12
TORSDOF 3
ENDMDL
MODEL 4
REMARK VINA RESULT:      -4.7      1.930      2.713
REMARK  3 active torsions:
REMARK  status: ('A' for Active; 'I' for Inactive)
REMARK    1  A    between atoms: C_1  and  C_3 
REMARK    2  A    between atoms: C_7  and  C_10 
REMARK    3  A    between atoms: O_8  and  C_10 
ROOT
HETATM    1  C   UNL     1      63.177   9.172   4.349  1.00  0.00    -0.011 A 
HETATM    2  C   UNL     1      62.745   8.837   3.041  1.00  0.00    -0.023 A 
HETATM    3  C   UNL     1      62.822  10.446   4.851  1.00  0.00     0.013 A 
HETATM    4  C   UNL     1      61.992   9.777   2.302  1.00  0.00     0.010 A 
HETATM    5  C   UNL     1      62.085  11.365   4.100  1.00  0.00     0.001 A 
HETATM    6  C   UNL     1      61.668  11.028   2.822  1.00  0.00     0.001 A 
ENDROOT
BRANCH   1   7
HETATM    7  C   UNL     1      63.959   8.262   5.223  1.00  0.00     0.015 A 
HETATM    8  S   UNL     1      63.146   7.055   6.160  1.00  0.00    -0.101 SA
HETATM    9  C   UNL     1      64.603   6.422   6.778  1.00  0.00     0.050 A 
HETATM   10  C   UNL     1      65.694   7.136   6.342  1.00  0.00     0.008 A 
HETATM   11  C   UNL     1      65.326   8.179   5.442  1.00  0.00     0.020 A 
ENDBRANCH   1   7
BRANCH   2  12
HETATM   12  C   UNL     1      63.036   7.522   2.358  1.00  0.00     0.203 C 
BRANCH  12  13
HETATM   13  O   UNL     1      62.590   7.492   1.011  1.00  0.00    -0.396 OA
HETATM   14  H   UNL     1      63.356   7.492   0.416  1.00  0.00     0.209 HD
ENDBRANCH  12  13
ENDBRANCH   2  12
TORSDOF 3
ENDMDL
MODEL 5
REMARK VINA RESULT:      -4.5      1.947      4.576
REMARK  3 active torsions:
REMARK  status: ('A' for Active; 'I' for Inactive)
REMARK    1  A    between atoms: C_1  and  C_3 
REMARK    2  A    between atoms: C_7  and  C_10 
REMARK    3  A    between atoms: O_8  and  C_10 
ROOT
HETATM    1  C   UNL     1      62.394   7.837   4.405  1.00  0.00    -0.011 A 
HETATM    2  C   UNL     1      63.596   7.636   5.128  1.00  0.00    -0.023 A 
HETATM    3  C   UNL     1      61.302   6.987   4.697  1.00  0.00     0.013 A 
HETATM    4  C   UNL     1      63.653   6.607   6.095  1.00  0.00     0.010 A 
HETATM    5  C   UNL     1      61.383   5.969   5.649  1.00  0.00     0.001 A 
HETATM    6  C   UNL     1      62.562   5.780   6.352  1.00  0.00     0.001 A 
ENDROOT
BRANCH   1   7
HETATM    7  C   UNL     1      62.210   8.894   3.378  1.00  0.00     0.015 A 
HETATM    8  S   UNL     1      61.906  10.527   3.864  1.00  0.00    -0.101 SA
HETATM    9  C   UNL     1      61.894  11.100   2.258  1.00  0.00     0.050 A 
HETATM   10  C   UNL     1      62.056  10.079   1.352  1.00  0.00     0.008 A 
HETATM   11  C   UNL     1      62.252   8.820   1.994  1.00  0.00     0.020 A 
ENDBRANCH   1   7
BRANCH   2  12
HETATM   12  C   UNL     1      64.851   8.455   4.941  1.00  0.00     0.203 C 
BRANCH  12  13
HETATM   13  O   UNL     1      64.896   9.593   5.788  1.00  0.00    -0.396 OA
HETATM   14  H   UNL     1      65.818   9.854   5.931  1.00  0.00     0.209 HD
ENDBRANCH  12  13
ENDBRANCH   2  12
TORSDOF 3
ENDMDL
MODEL 6
REMARK VINA RESULT:      -4.4      2.195      4.908
REMARK  3 active torsions:
REMARK  status: ('A' for Active; 'I' for Inactive)
REMARK    1  A    between atoms: C_1  and  C_3 
REMARK    2  A    between atoms: C_7  and  C_10 
REMARK    3  A    between atoms: O_8  and  C_10 
ROOT
HETATM    1  C   UNL     1      63.762   8.282   5.005  1.00  0.00    -0.011 A 
HETATM    2  C   UNL     1      63.193   7.219   5.749  1.00  0.00    -0.023 A 
HETATM    3  C   UNL     1      65.146   8.530   5.167  1.00  0.00     0.013 A 
HETATM    4  C   UNL     1      64.018   6.464   6.613  1.00  0.00     0.010 A 
HETATM    5  C   UNL     1      65.941   7.778   6.034  1.00  0.00     0.001 A 
HETATM    6  C   UNL     1      65.375   6.740   6.758  1.00  0.00     0.001 A 
ENDROOT
BRANCH   1   7
HETATM    7  C   UNL     1      63.000   9.133   4.056  1.00  0.00     0.015 A 
HETATM    8  S   UNL     1      62.488  10.715   4.535  1.00  0.00    -0.101 SA
HETATM    9  C   UNL     1      61.808  11.057   3.009  1.00  0.00     0.050 A 
HETATM   10  C   UNL     1      61.904   9.983   2.157  1.00  0.00     0.008 A 
HETATM   11  C   UNL     1      62.598   8.888   2.752  1.00  0.00     0.020 A 
ENDBRANCH   1   7
BRANCH   2  12
HETATM   12  C   UNL     1      61.737   6.823   5.691  1.00  0.00     0.203 C 
BRANCH  12  13
HETATM   13  O   UNL     1      61.231   6.405   6.950  1.00  0.00    -0.396 OA
HETATM   14  H   UNL     1      61.448   5.471   7.092  1.00  0.00     0.209 HD
ENDBRANCH  12  13
ENDBRANCH   2  12
TORSDOF 3
ENDMDL
MODEL 7
REMARK VINA RESULT:      -4.4      2.593      3.247
REMARK  3 active torsions:
REMARK  status: ('A' for Active; 'I' for Inactive)
REMARK    1  A    between atoms: C_1  and  C_3 
REMARK    2  A    between atoms: C_7  and  C_10 
REMARK    3  A    between atoms: O_8  and  C_10 
ROOT
HETATM    1  C   UNL     1      62.876   8.879   3.899  1.00  0.00    -0.011 A 
HETATM    2  C   UNL     1      62.204   9.632   2.904  1.00  0.00    -0.023 A 
HETATM    3  C   UNL     1      63.163   9.520   5.126  1.00  0.00     0.013 A 
HETATM    4  C   UNL     1      61.855  10.974   3.176  1.00  0.00     0.010 A 
HETATM    5  C   UNL     1      62.819  10.852   5.370  1.00  0.00     0.001 A 
HETATM    6  C   UNL     1      62.162  11.580   4.392  1.00  0.00     0.001 A 
ENDROOT
BRANCH   1   7
HETATM    7  C   UNL     1      63.278   7.459   3.734  1.00  0.00     0.015 A 
HETATM    8  S   UNL     1      62.102   6.202   3.918  1.00  0.00    -0.101 SA
HETATM    9  C   UNL     1      63.220   4.974   3.533  1.00  0.00     0.050 A 
HETATM   10  C   UNL     1      64.481   5.480   3.324  1.00  0.00     0.008 A 
HETATM   11  C   UNL     1      64.510   6.902   3.425  1.00  0.00     0.020 A 
ENDBRANCH   1   7
BRANCH   2  12
HETATM   12  C   UNL     1      61.822   9.099   1.544  1.00  0.00     0.203 C 
BRANCH  12  13
HETATM   13  O   UNL     1      60.418   8.977   1.376  1.00  0.00    -0.396 OA
HETATM   14  H   UNL     1      60.211   8.106   1.005  1.00  0.00     0.209 HD
ENDBRANCH  12  13
ENDBRANCH   2  12
TORSDOF 3
ENDMDL
MODEL 8
REMARK VINA RESULT:      -4.2      2.645      4.663
REMARK  3 active torsions:
REMARK  status: ('A' for Active; 'I' for Inactive)
REMARK    1  A    between atoms: C_1  and  C_3 
REMARK    2  A    between atoms: C_7  and  C_10 
REMARK    3  A    between atoms: O_8  and  C_10 
ROOT
HETATM    1  C   UNL     1      61.963   9.104   3.360  1.00  0.00    -0.011 A 
HETATM    2  C   UNL     1      62.956   8.461   4.141  1.00  0.00    -0.023 A 
HETATM    3  C   UNL     1      61.712  10.472   3.615  1.00  0.00     0.013 A 
HETATM    4  C   UNL     1      63.641   9.203   5.130  1.00  0.00     0.010 A 
HETATM    5  C   UNL     1      62.394  11.184   4.604  1.00  0.00     0.001 A 
HETATM    6  C   UNL     1      63.363  10.547   5.363  1.00  0.00     0.001 A 
ENDROOT
BRANCH   1   7
HETATM    7  C   UNL     1      61.190   8.433   2.284  1.00  0.00     0.015 A 
HETATM    8  S   UNL     1      59.807   7.472   2.685  1.00  0.00    -0.101 SA
HETATM    9  C   UNL     1      59.451   7.140   1.052  1.00  0.00     0.050 A 
HETATM   10  C   UNL     1      60.384   7.687   0.204  1.00  0.00     0.008 A 
HETATM   11  C   UNL     1      61.370   8.439   0.909  1.00  0.00     0.020 A 
ENDBRANCH   1   7
BRANCH   2  12
HETATM   12  C   UNL     1      63.347   7.010   3.996  1.00  0.00     0.203 C 
BRANCH  12  13
HETATM   13  O   UNL     1      64.243   6.787   2.919  1.00  0.00    -0.396 OA
HETATM   14  H   UNL     1      64.081   7.442   2.223  1.00  0.00     0.209 HD
ENDBRANCH  12  13
ENDBRANCH   2  12
TORSDOF 3
ENDMDL
MODEL 9
REMARK VINA RESULT:      -4.2      2.535      3.549
REMARK  3 active torsions:
REMARK  status: ('A' for Active; 'I' for Inactive)
REMARK    1  A    between atoms: C_1  and  C_3 
REMARK    2  A    between atoms: C_7  and  C_10 
REMARK    3  A    between atoms: O_8  and  C_10 
ROOT
HETATM    1  C   UNL     1      62.245   8.522   3.531  1.00  0.00    -0.011 A 
HETATM    2  C   UNL     1      62.792   8.792   4.811  1.00  0.00    -0.023 A 
HETATM    3  C   UNL     1      61.802   9.623   2.762  1.00  0.00     0.013 A 
HETATM    4  C   UNL     1      62.867  10.130   5.259  1.00  0.00     0.010 A 
HETATM    5  C   UNL     1      61.876  10.937   3.228  1.00  0.00     0.001 A 
HETATM    6  C   UNL     1      62.411  11.192   4.480  1.00  0.00     0.001 A 
ENDROOT
BRANCH   1   7
HETATM    7  C   UNL     1      62.130   7.161   2.948  1.00  0.00     0.015 A 
HETATM    8  S   UNL     1      63.499   6.431   2.182  1.00  0.00    -0.101 SA
HETATM    9  C   UNL     1      62.664   4.977   1.871  1.00  0.00     0.050 A 
HETATM   10  C   UNL     1      61.353   5.045   2.279  1.00  0.00     0.008 A 
HETATM   11  C   UNL     1      61.052   6.289   2.908  1.00  0.00     0.020 A 
ENDBRANCH   1   7
BRANCH   2  12
HETATM   12  C   UNL     1      63.312   7.735   5.756  1.00  0.00     0.203 C 
BRANCH  12  13
HETATM   13  O   UNL     1      62.650   7.747   7.011  1.00  0.00    -0.396 OA
HETATM   14  H   UNL     1      61.884   7.154   6.979  1.00  0.00     0.209 HD
ENDBRANCH  12  13
ENDBRANCH   2  12
TORSDOF 3
ENDMDL
