MODEL 1
REMARK VINA RESULT:      -4.6      0.000      0.000
REMARK  3 active torsions:
REMARK  status: ('A' for Active; 'I' for Inactive)
REMARK    1  A    between atoms: C_1  and  C_3 
REMARK    2  A    between atoms: C_7  and  C_9 
REMARK    3  A    between atoms: N_8  and  C_9 
ROOT
HETATM    1  C   UNL     1      63.176   9.182   4.342  1.00  0.00    -0.011 A 
HETATM    2  C   UNL     1      62.739   8.862   3.030  1.00  0.00    -0.021 A 
HETATM    3  C   UNL     1      62.838  10.459   4.850  1.00  0.00     0.013 A 
HETATM    4  C   UNL     1      61.995   9.817   2.296  1.00  0.00     0.010 A 
HETATM    5  C   UNL     1      62.082  11.377   4.116  1.00  0.00     0.001 A 
HETATM    6  C   UNL     1      61.661  11.055   2.836  1.00  0.00     0.001 A 
ENDROOT
BRANCH   1   7
HETATM    7  C   UNL     1      63.936   8.242   5.207  1.00  0.00     0.015 A 
HETATM    8  S   UNL     1      63.091   7.072   6.161  1.00  0.00    -0.101 SA
HETATM    9  C   UNL     1      64.533   6.380   6.754  1.00  0.00     0.050 A 
HETATM   10  C   UNL     1      65.647   7.002   6.247  1.00  0.00     0.008 A 
HETATM   11  C   UNL     1      65.302   8.097   5.397  1.00  0.00     0.020 A 
ENDBRANCH   1   7
BRANCH   2  12
HETATM   12  C   UNL     1      62.988   7.536   2.338  1.00  0.00     0.271 C 
BRANCH  12  13
HETATM   13  N   UNL     1      61.784   6.826   1.906  1.00  0.00    -0.075 N 
HETATM   14  C   UNL     1      61.050   6.241   3.018  1.00  0.00     0.267 C 
HETATM   15  H   UNL     1      62.055   6.080   1.265  1.00  0.00     0.277 HD
HETATM   16  H   UNL     1      61.170   7.505   1.453  1.00  0.00     0.277 HD
ENDBRANCH  12  13
ENDBRANCH   2  12
TORSDOF 3
ENDMDL
MODEL 2
REMARK VINA RESULT:      -4.5      1.965      2.398
REMARK  3 active torsions:
REMARK  status: ('A' for Active; 'I' for Inactive)
REMARK    1  A    between atoms: C_1  and  C_3 
REMARK    2  A    between atoms: C_7  and  C_9 
REMARK    3  A    between atoms: N_8  and  C_9 
ROOT
HETATM    1  C   UNL     1      62.896   8.680   3.846  1.00  0.00    -0.011 A 
HETATM    2  C   UNL     1      62.198   9.455   2.884  1.00  0.00    -0.021 A 
HETATM    3  C   UNL     1      63.254   9.312   5.060  1.00  0.00     0.013 A 
HETATM    4  C   UNL     1      61.892  10.806   3.173  1.00  0.00     0.010 A 
HETATM    5  C   UNL     1      62.919  10.641   5.335  1.00  0.00     0.001 A 
HETATM    6  C   UNL     1      62.238  11.390   4.389  1.00  0.00     0.001 A 
ENDROOT
BRANCH   1   7
HETATM    7  C   UNL     1      63.240   7.246   3.654  1.00  0.00     0.015 A 
HETATM    8  S   UNL     1      62.079   6.021   4.032  1.00  0.00    -0.101 SA
HETATM    9  C   UNL     1      63.102   4.760   3.510  1.00  0.00     0.050 A 
HETATM   10  C   UNL     1      64.304   5.236   3.045  1.00  0.00     0.008 A 
HETATM   11  C   UNL     1      64.398   6.655   3.171  1.00  0.00     0.020 A 
ENDBRANCH   1   7
BRANCH   2  12
HETATM   12  C   UNL     1      61.717   8.936   1.542  1.00  0.00     0.271 C 
BRANCH  12  13
HETATM   13  N   UNL     1      60.266   8.789   1.418  1.00  0.00    -0.075 N 
HETATM   14  C   UNL     1      59.886   7.857   0.366  1.00  0.00     0.267 C 
HETATM   15  H   UNL     1      59.861   9.702   1.209  1.00  0.00     0.277 HD
HETATM   16  H   UNL     1      59.916   8.417   2.302  1.00  0.00     0.277 HD
ENDBRANCH  12  13
ENDBRANCH   2  12
TORSDOF 3
ENDMDL
MODEL 3
REMARK VINA RESULT:      -4.2      2.045      3.800
REMARK  3 active torsions:
REMARK  status: ('A' for Active; 'I' for Inactive)
REMARK    1  A    between atoms: C_1  and  C_3 
REMARK    2  A    between atoms: C_7  and  C_9 
REMARK    3  A    between atoms: N_8  and  C_9 
ROOT
HETATM    1  C   UNL     1      62.518   8.577   3.406  1.00  0.00    -0.011 A 
HETATM    2  C   UNL     1      62.938   8.841   4.736  1.00  0.00    -0.021 A 
HETATM    3  C   UNL     1      62.014   9.663   2.652  1.00  0.00     0.013 A 
HETATM    4  C   UNL     1      62.838  10.158   5.246  1.00  0.00     0.010 A 
HETATM    5  C   UNL     1      61.948  10.960   3.168  1.00  0.00     0.001 A 
HETATM    6  C   UNL     1      62.359  11.207   4.467  1.00  0.00     0.001 A 
ENDROOT
BRANCH   1   7
HETATM    7  C   UNL     1      62.608   7.238   2.766  1.00  0.00     0.015 A 
HETATM    8  S   UNL     1      61.197   6.244   2.644  1.00  0.00    -0.101 SA
HETATM    9  C   UNL     1      62.023   5.018   1.792  1.00  0.00     0.050 A 
HETATM   10  C   UNL     1      63.342   5.338   1.585  1.00  0.00     0.008 A 
HETATM   11  C   UNL     1      63.685   6.588   2.183  1.00  0.00     0.020 A 
ENDBRANCH   1   7
BRANCH   2  12
HETATM   12  C   UNL     1      63.525   7.805   5.677  1.00  0.00     0.271 C 
BRANCH  12  13
HETATM   13  N   UNL     1      64.934   8.004   6.016  1.00  0.00    -0.075 N 
HETATM   14  C   UNL     1      65.461   6.943   6.863  1.00  0.00     0.267 C 
HETATM   15  H   UNL     1      65.030   8.893   6.509  1.00  0.00     0.277 HD
HETATM   16  H   UNL     1      65.466   7.998   5.145  1.00  0.00     0.277 HD
ENDBRANCH  12  13
ENDBRANCH   2  12
TORSDOF 3
ENDMDL
MODEL 4
REMARK VINA RESULT:      -4.1      1.882      2.383
REMARK  3 active torsions:
REMARK  status: ('A' for Active; 'I' for Inactive)
REMARK    1  A    between atoms: C_1  and  C_3 
REMARK    2  A    between atoms: C_7  and  C_9 
REMARK    3  A    between atoms: N_8  and  C_9 
ROOT
HETATM    1  C   UNL     1      64.013   8.035   4.655  1.00  0.00    -0.011 A 
HETATM    2  C   UNL     1      63.798   7.396   3.407  1.00  0.00    -0.021 A 
HETATM    3  C   UNL     1      63.319   9.244   4.900  1.00  0.00     0.013 A 
HETATM    4  C   UNL     1      62.912   7.983   2.472  1.00  0.00     0.010 A 
HETATM    5  C   UNL     1      62.430   9.793   3.971  1.00  0.00     0.001 A 
HETATM    6  C   UNL     1      62.228   9.162   2.754  1.00  0.00     0.001 A 
ENDROOT
BRANCH   1   7
HETATM    7  C   UNL     1      64.898   7.488   5.717  1.00  0.00     0.015 A 
HETATM    8  S   UNL     1      66.578   7.903   5.739  1.00  0.00    -0.101 SA
HETATM    9  C   UNL     1      66.869   7.030   7.175  1.00  0.00     0.050 A 
HETATM   10  C   UNL     1      65.727   6.433   7.653  1.00  0.00     0.008 A 
HETATM   11  C   UNL     1      64.611   6.659   6.792  1.00  0.00     0.020 A 
ENDBRANCH   1   7
BRANCH   2  12
HETATM   12  C   UNL     1      64.437   6.086   2.987  1.00  0.00     0.271 C 
BRANCH  12  13
HETATM   13  N   UNL     1      63.743   4.883   3.446  1.00  0.00    -0.075 N 
HETATM   14  C   UNL     1      64.618   3.977   4.178  1.00  0.00     0.267 C 
HETATM   15  H   UNL     1      63.369   4.390   2.635  1.00  0.00     0.277 HD
HETATM   16  H   UNL     1      63.001   5.177   4.082  1.00  0.00     0.277 HD
ENDBRANCH  12  13
ENDBRANCH   2  12
TORSDOF 3
ENDMDL
MODEL 5
REMARK VINA RESULT:      -4.0      2.915      6.079
REMARK  3 active torsions:
REMARK  status: ('A' for Active; 'I' for Inactive)
REMARK    1  A    between atoms: C_1  and  C_3 
REMARK    2  A    between atoms: C_7  and  C_9 
REMARK    3  A    between atoms: N_8  and  C_9 
ROOT
HETATM    1  C   UNL     1      66.226   6.342   7.112  1.00  0.00    -0.011 A 
HETATM    2  C   UNL     1      66.795   5.104   6.715  1.00  0.00    -0.021 A 
HETATM    3  C   UNL     1      66.606   6.863   8.371  1.00  0.00     0.013 A 
HETATM    4  C   UNL     1      67.705   4.451   7.581  1.00  0.00     0.010 A 
HETATM    5  C   UNL     1      67.526   6.214   9.199  1.00  0.00     0.001 A 
HETATM    6  C   UNL     1      68.075   5.005   8.804  1.00  0.00     0.001 A 
ENDROOT
BRANCH   1   7
HETATM    7  C   UNL     1      65.284   7.122   6.267  1.00  0.00     0.015 A 
HETATM    8  S   UNL     1      63.615   6.671   6.192  1.00  0.00    -0.101 SA
HETATM    9  C   UNL     1      63.212   7.980   5.175  1.00  0.00     0.050 A 
HETATM   10  C   UNL     1      64.305   8.763   4.890  1.00  0.00     0.008 A 
HETATM   11  C   UNL     1      65.497   8.244   5.479  1.00  0.00     0.020 A 
ENDBRANCH   1   7
BRANCH   2  12
HETATM   12  C   UNL     1      66.520   4.412   5.394  1.00  0.00     0.271 C 
BRANCH  12  13
HETATM   13  N   UNL     1      67.406   4.799   4.296  1.00  0.00    -0.075 N 
HETATM   14  C   UNL     1      66.682   5.352   3.160  1.00  0.00     0.267 C 
HETATM   15  H   UNL     1      67.922   3.975   3.985  1.00  0.00     0.277 HD
HETATM   16  H   UNL     1      68.034   5.525   4.645  1.00  0.00     0.277 HD
ENDBRANCH  12  13
ENDBRANCH   2  12
TORSDOF 3
ENDMDL
MODEL 6
REMARK VINA RESULT:      -3.9      2.242      3.659
REMARK  3 active torsions:
REMARK  status: ('A' for Active; 'I' for Inactive)
REMARK    1  A    between atoms: C_1  and  C_3 
REMARK    2  A    between atoms: C_7  and  C_9 
REMARK    3  A    between atoms: N_8  and  C_9 
ROOT
HETATM    1  C   UNL     1      61.561   7.858   3.465  1.00  0.00    -0.011 A 
HETATM    2  C   UNL     1      62.140   9.055   3.963  1.00  0.00    -0.021 A 
HETATM    3  C   UNL     1      61.120   7.855   2.120  1.00  0.00     0.013 A 
HETATM    4  C   UNL     1      62.252  10.177   3.108  1.00  0.00     0.010 A 
HETATM    5  C   UNL     1      61.264   8.968   1.287  1.00  0.00     0.001 A 
HETATM    6  C   UNL     1      61.829  10.132   1.783  1.00  0.00     0.001 A 
ENDROOT
BRANCH   1   7
HETATM    7  C   UNL     1      61.423   6.615   4.269  1.00  0.00     0.015 A 
HETATM    8  S   UNL     1      62.637   5.386   4.173  1.00  0.00    -0.101 SA
HETATM    9  C   UNL     1      61.871   4.410   5.344  1.00  0.00     0.050 A 
HETATM   10  C   UNL     1      60.719   4.988   5.819  1.00  0.00     0.008 A 
HETATM   11  C   UNL     1      60.441   6.228   5.169  1.00  0.00     0.020 A 
ENDBRANCH   1   7
BRANCH   2  12
HETATM   12  C   UNL     1      62.686   9.229   5.367  1.00  0.00     0.271 C 
BRANCH  12  13
HETATM   13  N   UNL     1      64.120   9.509   5.443  1.00  0.00    -0.075 N 
HETATM   14  C   UNL     1      64.935   8.372   5.038  1.00  0.00     0.267 C 
HETATM   15  H   UNL     1      64.356   9.753   6.406  1.00  0.00     0.277 HD
HETATM   16  H   UNL     1      64.321  10.277   4.801  1.00  0.00     0.277 HD
ENDBRANCH  12  13
ENDBRANCH   2  12
TORSDOF 3
ENDMDL
MODEL 7
REMARK VINA RESULT:      -3.8      2.447      3.912
REMARK  3 active torsions:
REMARK  status: ('A' for Active; 'I' for Inactive)
REMARK    1  A    between atoms: C_1  and  C_3 
REMARK    2  A    between atoms: C_7  and  C_9 
REMARK    3  A    between atoms: N_8  and  C_9 
ROOT
HETATM    1  C   UNL     1      61.810   8.488   2.549  1.00  0.00    -0.011 A 
HETATM    2  C   UNL     1      60.865   7.442   2.722  1.00  0.00    -0.021 A 
HETATM    3  C   UNL     1      62.437   8.600   1.286  1.00  0.00     0.013 A 
HETATM    4  C   UNL     1      60.594   6.569   1.642  1.00  0.00     0.010 A 
HETATM    5  C   UNL     1      62.135   7.740   0.225  1.00  0.00     0.001 A 
HETATM    6  C   UNL     1      61.213   6.722   0.405  1.00  0.00     0.001 A 
ENDROOT
BRANCH   1   7
HETATM    7  C   UNL     1      62.145   9.476   3.608  1.00  0.00     0.015 A 
HETATM    8  S   UNL     1      63.144   9.007   4.941  1.00  0.00    -0.101 SA
HETATM    9  C   UNL     1      63.139  10.574   5.614  1.00  0.00     0.050 A 
HETATM   10  C   UNL     1      62.407  11.455   4.856  1.00  0.00     0.008 A 
HETATM   11  C   UNL     1      61.803  10.814   3.733  1.00  0.00     0.020 A 
ENDBRANCH   1   7
BRANCH   2  12
HETATM   12  C   UNL     1      60.082   7.190   3.996  1.00  0.00     0.271 C 
BRANCH  12  13
HETATM   13  N   UNL     1      60.652   6.173   4.882  1.00  0.00    -0.075 N 
HETATM   14  C   UNL     1      59.782   5.860   6.006  1.00  0.00     0.267 C 
HETATM   15  H   UNL     1      61.543   6.516   5.243  1.00  0.00     0.277 HD
HETATM   16  H   UNL     1      60.772   5.319   4.336  1.00  0.00     0.277 HD
ENDBRANCH  12  13
ENDBRANCH   2  12
TORSDOF 3
ENDMDL
MODEL 8
REMARK VINA RESULT:      -3.8      3.045      5.918
REMARK  3 active torsions:
REMARK  status: ('A' for Active; 'I' for Inactive)
REMARK    1  A    between atoms: C_1  and  C_3 
REMARK    2  A    between atoms: C_7  and  C_9 
REMARK    3  A    between atoms: N_8  and  C_9 
ROOT
HETATM    1  C   UNL     1      65.504   6.514   4.672  1.00  0.00    -0.011 A 
HETATM    2  C   UNL     1      66.150   6.107   5.869  1.00  0.00    -0.021 A 
HETATM    3  C   UNL     1      65.902   5.887   3.468  1.00  0.00     0.013 A 
HETATM    4  C   UNL     1      67.149   5.107   5.810  1.00  0.00     0.010 A 
HETATM    5  C   UNL     1      66.874   4.883   3.438  1.00  0.00     0.001 A 
HETATM    6  C   UNL     1      67.500   4.494   4.611  1.00  0.00     0.001 A 
ENDROOT
BRANCH   1   7
HETATM    7  C   UNL     1      64.422   7.534   4.628  1.00  0.00     0.015 A 
HETATM    8  S   UNL     1      62.839   7.090   4.090  1.00  0.00    -0.101 SA
HETATM    9  C   UNL     1      62.204   8.646   4.382  1.00  0.00     0.050 A 
HETATM   10  C   UNL     1      63.154   9.501   4.886  1.00  0.00     0.008 A 
HETATM   11  C   UNL     1      64.433   8.874   4.983  1.00  0.00     0.020 A 
ENDBRANCH   1   7
BRANCH   2  12
HETATM   12  C   UNL     1      65.833   6.653   7.248  1.00  0.00     0.271 C 
BRANCH  12  13
HETATM   13  N   UNL     1      66.979   7.201   7.975  1.00  0.00    -0.075 N 
HETATM   14  C   UNL     1      67.201   6.538   9.252  1.00  0.00     0.267 C 
HETATM   15  H   UNL     1      66.813   8.194   8.147  1.00  0.00     0.277 HD
HETATM   16  H   UNL     1      67.810   7.053   7.401  1.00  0.00     0.277 HD
ENDBRANCH  12  13
ENDBRANCH   2  12
TORSDOF 3
ENDMDL
MODEL 9
REMARK VINA RESULT:      -3.8      2.138      2.917
REMARK  3 active torsions:
REMARK  status: ('A' for Active; 'I' for Inactive)
REMARK    1  A    between atoms: C_1  and  C_3 
REMARK    2  A    between atoms: C_7  and  C_9 
REMARK    3  A    between atoms: N_8  and  C_9 
ROOT
HETATM    1  C   UNL     1      62.452   7.810   2.778  1.00  0.00    -0.011 A 
HETATM    2  C   UNL     1      61.311   6.982   2.950  1.00  0.00    -0.021 A 
HETATM    3  C   UNL     1      62.416   8.762   1.732  1.00  0.00     0.013 A 
HETATM    4  C   UNL     1      60.204   7.141   2.083  1.00  0.00     0.010 A 
HETATM    5  C   UNL     1      61.301   8.918   0.904  1.00  0.00     0.001 A 
HETATM    6  C   UNL     1      60.194   8.104   1.079  1.00  0.00     0.001 A 
ENDROOT
BRANCH   1   7
HETATM    7  C   UNL     1      63.654   7.745   3.650  1.00  0.00     0.015 A 
HETATM    8  S   UNL     1      63.864   8.904   4.919  1.00  0.00    -0.101 SA
HETATM    9  C   UNL     1      65.305   8.175   5.469  1.00  0.00     0.050 A 
HETATM   10  C   UNL     1      65.636   7.069   4.726  1.00  0.00     0.008 A 
HETATM   11  C   UNL     1      64.714   6.852   3.658  1.00  0.00     0.020 A 
ENDBRANCH   1   7
BRANCH   2  12
HETATM   12  C   UNL     1      61.167   5.928   4.031  1.00  0.00     0.271 C 
BRANCH  12  13
HETATM   13  N   UNL     1      60.673   6.423   5.317  1.00  0.00    -0.075 N 
HETATM   14  C   UNL     1      61.608   6.181   6.406  1.00  0.00     0.267 C 
HETATM   15  H   UNL     1      59.792   5.954   5.532  1.00  0.00     0.277 HD
HETATM   16  H   UNL     1      60.549   7.433   5.233  1.00  0.00     0.277 HD
ENDBRANCH  12  13
ENDBRANCH   2  12
TORSDOF 3
ENDMDL
