MODEL 1
REMARK VINA RESULT:      -5.5      0.000      0.000
REMARK  3 active torsions:
REMARK  status: ('A' for Active; 'I' for Inactive)
REMARK    1  A    between atoms: C_1  and  C_5 
REMARK    2  A    between atoms: C_6  and  C_12 
REMARK    3  A    between atoms: N_7  and  C_12 
ROOT
HETATM    1  C   UNL     1      63.439   8.363   4.776  1.00  0.00    -0.025 A 
HETATM    2  C   UNL     1      64.808   8.444   5.089  1.00  0.00     0.021 A 
HETATM    3  C   UNL     1      65.419   7.582   6.019  1.00  0.00    -0.032 A 
HETATM    4  C   UNL     1      62.702   7.342   5.401  1.00  0.00     0.012 A 
HETATM    5  C   UNL     1      63.293   6.471   6.320  1.00  0.00     0.001 A 
HETATM    6  C   UNL     1      64.645   6.593   6.631  1.00  0.00     0.009 A 
ENDROOT
BRANCH   1   7
HETATM    7  C   UNL     1      62.801   9.343   3.864  1.00  0.00    -0.023 A 
HETATM    8  C   UNL     1      62.457  10.636   4.286  1.00  0.00     0.029 A 
HETATM    9  C   UNL     1      61.814  11.496   3.406  1.00  0.00     0.088 A 
HETATM   10  N   UNL     1      61.502  11.174   2.135  1.00  0.00    -0.375 N 
HETATM   11  C   UNL     1      61.843   9.937   1.732  1.00  0.00     0.088 A 
ATOM     12  HN  UNL     1      61.034  11.833   1.512  1.00  0.00     0.164 HD
HETATM   13  C   UNL     1      62.475   9.004   2.544  1.00  0.00     0.029 A 
ENDBRANCH   1   7
BRANCH   3  14
HETATM   14  C   UNL     1      66.885   7.740   6.355  1.00  0.00     0.270 C 
BRANCH  14  15
HETATM   15  N   UNL     1      67.224   7.019   7.583  1.00  0.00    -0.075 N 
HETATM   16  C   UNL     1      68.075   5.874   7.308  1.00  0.00     0.267 C 
HETATM   17  H   UNL     1      66.365   6.697   8.026  1.00  0.00     0.277 HD
HETATM   18  H   UNL     1      67.732   7.655   8.198  1.00  0.00     0.277 HD
ENDBRANCH  14  15
ENDBRANCH   3  14
TORSDOF 3
ENDMDL
MODEL 2
REMARK VINA RESULT:      -5.5      0.137      1.215
REMARK  3 active torsions:
REMARK  status: ('A' for Active; 'I' for Inactive)
REMARK    1  A    between atoms: C_1  and  C_5 
REMARK    2  A    between atoms: C_6  and  C_12 
REMARK    3  A    between atoms: N_7  and  C_12 
ROOT
HETATM    1  C   UNL     1      63.370   8.378   4.786  1.00  0.00    -0.025 A 
HETATM    2  C   UNL     1      64.744   8.451   5.075  1.00  0.00     0.021 A 
HETATM    3  C   UNL     1      65.371   7.573   5.979  1.00  0.00    -0.032 A 
HETATM    4  C   UNL     1      62.642   7.349   5.409  1.00  0.00     0.012 A 
HETATM    5  C   UNL     1      63.248   6.463   6.303  1.00  0.00     0.001 A 
HETATM    6  C   UNL     1      64.605   6.577   6.591  1.00  0.00     0.009 A 
ENDROOT
BRANCH   1   7
HETATM    7  C   UNL     1      62.718   9.374   3.901  1.00  0.00    -0.023 A 
HETATM    8  C   UNL     1      62.423   9.095   2.559  1.00  0.00     0.029 A 
HETATM    9  C   UNL     1      61.859  10.082   1.761  1.00  0.00     0.088 A 
HETATM   10  N   UNL     1      61.553  11.318   2.201  1.00  0.00    -0.375 N 
HETATM   11  C   UNL     1      61.828  11.578   3.492  1.00  0.00     0.088 A 
ATOM     12  HN  UNL     1      61.134  12.019   1.589  1.00  0.00     0.164 HD
HETATM   13  C   UNL     1      62.403  10.659   4.361  1.00  0.00     0.029 A 
ENDBRANCH   1   7
BRANCH   3  14
HETATM   14  C   UNL     1      66.843   7.722   6.289  1.00  0.00     0.270 C 
BRANCH  14  15
HETATM   15  N   UNL     1      67.151   7.225   7.631  1.00  0.00    -0.075 N 
HETATM   16  C   UNL     1      67.976   6.030   7.578  1.00  0.00     0.267 C 
HETATM   17  H   UNL     1      66.280   7.006   8.112  1.00  0.00     0.277 HD
HETATM   18  H   UNL     1      67.668   7.949   8.130  1.00  0.00     0.277 HD
ENDBRANCH  14  15
ENDBRANCH   3  14
TORSDOF 3
ENDMDL
MODEL 3
REMARK VINA RESULT:      -5.4      1.395      6.184
REMARK  3 active torsions:
REMARK  status: ('A' for Active; 'I' for Inactive)
REMARK    1  A    between atoms: C_1  and  C_5 
REMARK    2  A    between atoms: C_6  and  C_12 
REMARK    3  A    between atoms: N_7  and  C_12 
ROOT
HETATM    1  C   UNL     1      63.455   8.993   4.639  1.00  0.00    -0.025 A 
HETATM    2  C   UNL     1      62.980   8.690   3.350  1.00  0.00     0.021 A 
HETATM    3  C   UNL     1      62.152   9.568   2.627  1.00  0.00    -0.032 A 
HETATM    4  C   UNL     1      63.103  10.247   5.168  1.00  0.00     0.012 A 
HETATM    5  C   UNL     1      62.289  11.137   4.462  1.00  0.00     0.001 A 
HETATM    6  C   UNL     1      61.811  10.797   3.199  1.00  0.00     0.009 A 
ENDROOT
BRANCH   1   7
HETATM    7  C   UNL     1      64.248   8.010   5.415  1.00  0.00    -0.023 A 
HETATM    8  C   UNL     1      65.629   8.158   5.610  1.00  0.00     0.029 A 
HETATM    9  C   UNL     1      66.333   7.180   6.301  1.00  0.00     0.088 A 
HETATM   10  N   UNL     1      65.765   6.076   6.826  1.00  0.00    -0.375 N 
HETATM   11  C   UNL     1      64.439   5.944   6.645  1.00  0.00     0.088 A 
ATOM     12  HN  UNL     1      66.311   5.379   7.333  1.00  0.00     0.164 HD
HETATM   13  C   UNL     1      63.655   6.862   5.957  1.00  0.00     0.029 A 
ENDBRANCH   1   7
BRANCH   3  14
HETATM   14  C   UNL     1      61.631   9.176   1.262  1.00  0.00     0.270 C 
BRANCH  14  15
HETATM   15  N   UNL     1      60.220   8.792   1.328  1.00  0.00    -0.075 N 
HETATM   16  C   UNL     1      59.899   7.783   0.332  1.00  0.00     0.267 C 
HETATM   17  H   UNL     1      59.644   9.617   1.163  1.00  0.00     0.277 HD
HETATM   18  H   UNL     1      60.037   8.401   2.252  1.00  0.00     0.277 HD
ENDBRANCH  14  15
ENDBRANCH   3  14
TORSDOF 3
ENDMDL
MODEL 4
REMARK VINA RESULT:      -5.3      1.327      6.171
REMARK  3 active torsions:
REMARK  status: ('A' for Active; 'I' for Inactive)
REMARK    1  A    between atoms: C_1  and  C_5 
REMARK    2  A    between atoms: C_6  and  C_12 
REMARK    3  A    between atoms: N_7  and  C_12 
ROOT
HETATM    1  C   UNL     1      64.559   7.573   4.305  1.00  0.00    -0.025 A 
HETATM    2  C   UNL     1      63.741   8.714   4.393  1.00  0.00     0.021 A 
HETATM    3  C   UNL     1      62.700   8.966   3.481  1.00  0.00    -0.032 A 
HETATM    4  C   UNL     1      64.262   6.654   3.283  1.00  0.00     0.012 A 
HETATM    5  C   UNL     1      63.227   6.882   2.373  1.00  0.00     0.001 A 
HETATM    6  C   UNL     1      62.452   8.035   2.468  1.00  0.00     0.009 A 
ENDROOT
BRANCH   1   7
HETATM    7  C   UNL     1      65.708   7.380   5.222  1.00  0.00    -0.023 A 
HETATM    8  C   UNL     1      67.034   7.545   4.797  1.00  0.00     0.029 A 
HETATM    9  C   UNL     1      68.075   7.301   5.683  1.00  0.00     0.088 A 
HETATM   10  N   UNL     1      67.896   6.920   6.964  1.00  0.00    -0.375 N 
HETATM   11  C   UNL     1      66.622   6.772   7.370  1.00  0.00     0.088 A 
ATOM     12  HN  UNL     1      68.683   6.754   7.591  1.00  0.00     0.164 HD
HETATM   13  C   UNL     1      65.518   6.981   6.552  1.00  0.00     0.029 A 
ENDBRANCH   1   7
BRANCH   3  14
HETATM   14  C   UNL     1      61.878  10.230   3.591  1.00  0.00     0.270 C 
BRANCH  14  15
HETATM   15  N   UNL     1      61.362  10.639   2.284  1.00  0.00    -0.075 N 
HETATM   16  C   UNL     1      61.708  12.018   1.984  1.00  0.00     0.267 C 
HETATM   17  H   UNL     1      60.347  10.543   2.284  1.00  0.00     0.277 HD
HETATM   18  H   UNL     1      61.782  10.041   1.572  1.00  0.00     0.277 HD
ENDBRANCH  14  15
ENDBRANCH   3  14
TORSDOF 3
ENDMDL
MODEL 5
REMARK VINA RESULT:      -5.1      1.409      2.067
REMARK  3 active torsions:
REMARK  status: ('A' for Active; 'I' for Inactive)
REMARK    1  A    between atoms: C_1  and  C_5 
REMARK    2  A    between atoms: C_6  and  C_12 
REMARK    3  A    between atoms: N_7  and  C_12 
ROOT
HETATM    1  C   UNL     1      64.481   7.653   4.451  1.00  0.00    -0.025 A 
HETATM    2  C   UNL     1      64.930   7.703   5.784  1.00  0.00     0.021 A 
HETATM    3  C   UNL     1      65.851   6.775   6.303  1.00  0.00    -0.032 A 
HETATM    4  C   UNL     1      65.033   6.653   3.631  1.00  0.00     0.012 A 
HETATM    5  C   UNL     1      65.955   5.728   4.126  1.00  0.00     0.001 A 
HETATM    6  C   UNL     1      66.359   5.785   5.458  1.00  0.00     0.009 A 
ENDROOT
BRANCH   1   7
HETATM    7  C   UNL     1      63.440   8.586   3.957  1.00  0.00    -0.023 A 
HETATM    8  C   UNL     1      62.821   8.414   2.710  1.00  0.00     0.029 A 
HETATM    9  C   UNL     1      61.889   9.347   2.273  1.00  0.00     0.088 A 
HETATM   10  N   UNL     1      61.516  10.427   2.988  1.00  0.00    -0.375 N 
HETATM   11  C   UNL     1      62.106  10.583   4.186  1.00  0.00     0.088 A 
ATOM     12  HN  UNL     1      60.824  11.091   2.638  1.00  0.00     0.164 HD
HETATM   13  C   UNL     1      63.057   9.710   4.701  1.00  0.00     0.029 A 
ENDBRANCH   1   7
BRANCH   3  14
HETATM   14  C   UNL     1      66.267   6.845   7.755  1.00  0.00     0.270 C 
BRANCH  14  15
HETATM   15  N   UNL     1      67.719   6.715   7.894  1.00  0.00    -0.075 N 
HETATM   16  C   UNL     1      68.069   5.765   8.937  1.00  0.00     0.267 C 
HETATM   17  H   UNL     1      68.112   7.625   8.128  1.00  0.00     0.277 HD
HETATM   18  H   UNL     1      68.096   6.374   7.010  1.00  0.00     0.277 HD
ENDBRANCH  14  15
ENDBRANCH   3  14
TORSDOF 3
ENDMDL
MODEL 6
REMARK VINA RESULT:      -4.7      1.201      5.857
REMARK  3 active torsions:
REMARK  status: ('A' for Active; 'I' for Inactive)
REMARK    1  A    between atoms: C_1  and  C_5 
REMARK    2  A    between atoms: C_6  and  C_12 
REMARK    3  A    between atoms: N_7  and  C_12 
ROOT
HETATM    1  C   UNL     1      63.603   7.565   5.289  1.00  0.00    -0.025 A 
HETATM    2  C   UNL     1      63.333   8.669   4.462  1.00  0.00     0.021 A 
HETATM    3  C   UNL     1      62.097   8.838   3.811  1.00  0.00    -0.032 A 
HETATM    4  C   UNL     1      62.558   6.644   5.483  1.00  0.00     0.012 A 
HETATM    5  C   UNL     1      61.321   6.799   4.853  1.00  0.00     0.001 A 
HETATM    6  C   UNL     1      61.092   7.889   4.017  1.00  0.00     0.009 A 
ENDROOT
BRANCH   1   7
HETATM    7  C   UNL     1      64.945   7.363   5.887  1.00  0.00    -0.023 A 
HETATM    8  C   UNL     1      65.127   6.657   7.085  1.00  0.00     0.029 A 
HETATM    9  C   UNL     1      66.399   6.543   7.628  1.00  0.00     0.088 A 
HETATM   10  N   UNL     1      67.506   7.064   7.062  1.00  0.00    -0.375 N 
HETATM   11  C   UNL     1      67.329   7.732   5.908  1.00  0.00     0.088 A 
ATOM     12  HN  UNL     1      68.429   6.957   7.485  1.00  0.00     0.164 HD
HETATM   13  C   UNL     1      66.093   7.909   5.297  1.00  0.00     0.029 A 
ENDBRANCH   1   7
BRANCH   3  14
HETATM   14  C   UNL     1      61.872  10.021   2.895  1.00  0.00     0.270 C 
BRANCH  14  15
HETATM   15  N   UNL     1      61.237   9.604   1.644  1.00  0.00    -0.075 N 
HETATM   16  C   UNL     1      62.196   8.988   0.742  1.00  0.00     0.267 C 
HETATM   17  H   UNL     1      60.832  10.422   1.189  1.00  0.00     0.277 HD
HETATM   18  H   UNL     1      60.516   8.917   1.864  1.00  0.00     0.277 HD
ENDBRANCH  14  15
ENDBRANCH   3  14
TORSDOF 3
ENDMDL
MODEL 7
REMARK VINA RESULT:      -4.6      2.531      3.262
REMARK  3 active torsions:
REMARK  status: ('A' for Active; 'I' for Inactive)
REMARK    1  A    between atoms: C_1  and  C_5 
REMARK    2  A    between atoms: C_6  and  C_12 
REMARK    3  A    between atoms: N_7  and  C_12 
ROOT
HETATM    1  C   UNL     1      64.955   7.838   4.750  1.00  0.00    -0.025 A 
HETATM    2  C   UNL     1      65.455   6.645   4.197  1.00  0.00     0.021 A 
HETATM    3  C   UNL     1      66.651   6.052   4.642  1.00  0.00    -0.032 A 
HETATM    4  C   UNL     1      65.683   8.400   5.813  1.00  0.00     0.012 A 
HETATM    5  C   UNL     1      66.868   7.821   6.275  1.00  0.00     0.001 A 
HETATM    6  C   UNL     1      67.352   6.655   5.690  1.00  0.00     0.009 A 
ENDROOT
BRANCH   1   7
HETATM    7  C   UNL     1      63.743   8.491   4.198  1.00  0.00    -0.023 A 
HETATM    8  C   UNL     1      63.098   8.010   3.050  1.00  0.00     0.029 A 
HETATM    9  C   UNL     1      61.997   8.690   2.546  1.00  0.00     0.088 A 
HETATM   10  N   UNL     1      61.481   9.802   3.107  1.00  0.00    -0.375 N 
HETATM   11  C   UNL     1      62.098  10.254   4.213  1.00  0.00     0.088 A 
ATOM     12  HN  UNL     1      60.667  10.275   2.713  1.00  0.00     0.164 HD
HETATM   13  C   UNL     1      63.211   9.648   4.782  1.00  0.00     0.029 A 
ENDBRANCH   1   7
BRANCH   3  14
HETATM   14  C   UNL     1      67.169   4.793   3.984  1.00  0.00     0.270 C 
BRANCH  14  15
HETATM   15  N   UNL     1      67.460   5.021   2.568  1.00  0.00    -0.075 N 
HETATM   16  C   UNL     1      66.996   3.916   1.746  1.00  0.00     0.267 C 
HETATM   17  H   UNL     1      68.467   5.123   2.449  1.00  0.00     0.277 HD
HETATM   18  H   UNL     1      66.973   5.867   2.273  1.00  0.00     0.277 HD
ENDBRANCH  14  15
ENDBRANCH   3  14
TORSDOF 3
ENDMDL
MODEL 8
REMARK VINA RESULT:      -4.6      1.824      2.570
REMARK  3 active torsions:
REMARK  status: ('A' for Active; 'I' for Inactive)
REMARK    1  A    between atoms: C_1  and  C_5 
REMARK    2  A    between atoms: C_6  and  C_12 
REMARK    3  A    between atoms: N_7  and  C_12 
ROOT
HETATM    1  C   UNL     1      63.980   8.044   5.142  1.00  0.00    -0.025 A 
HETATM    2  C   UNL     1      63.435   6.798   5.502  1.00  0.00     0.021 A 
HETATM    3  C   UNL     1      64.186   5.811   6.168  1.00  0.00    -0.032 A 
HETATM    4  C   UNL     1      65.312   8.288   5.520  1.00  0.00     0.012 A 
HETATM    5  C   UNL     1      66.072   7.324   6.189  1.00  0.00     0.001 A 
HETATM    6  C   UNL     1      65.513   6.090   6.507  1.00  0.00     0.009 A 
ENDROOT
BRANCH   1   7
HETATM    7  C   UNL     1      63.195   9.028   4.359  1.00  0.00    -0.023 A 
HETATM    8  C   UNL     1      62.859  10.288   4.874  1.00  0.00     0.029 A 
HETATM    9  C   UNL     1      62.077  11.152   4.118  1.00  0.00     0.088 A 
HETATM   10  N   UNL     1      61.617  10.862   2.884  1.00  0.00    -0.375 N 
HETATM   11  C   UNL     1      61.950   9.656   2.391  1.00  0.00     0.088 A 
ATOM     12  HN  UNL     1      61.049  11.522   2.353  1.00  0.00     0.164 HD
HETATM   13  C   UNL     1      62.716   8.722   3.078  1.00  0.00     0.029 A 
ENDBRANCH   1   7
BRANCH   3  14
HETATM   14  C   UNL     1      63.566   4.471   6.493  1.00  0.00     0.270 C 
BRANCH  14  15
HETATM   15  N   UNL     1      64.461   3.664   7.324  1.00  0.00    -0.075 N 
HETATM   16  C   UNL     1      64.258   2.243   7.097  1.00  0.00     0.267 C 
HETATM   17  H   UNL     1      64.280   3.873   8.305  1.00  0.00     0.277 HD
HETATM   18  H   UNL     1      65.423   3.895   7.076  1.00  0.00     0.277 HD
ENDBRANCH  14  15
ENDBRANCH   3  14
TORSDOF 3
ENDMDL
MODEL 9
REMARK VINA RESULT:      -4.6      2.449      3.585
REMARK  3 active torsions:
REMARK  status: ('A' for Active; 'I' for Inactive)
REMARK    1  A    between atoms: C_1  and  C_5 
REMARK    2  A    between atoms: C_6  and  C_12 
REMARK    3  A    between atoms: N_7  and  C_12 
ROOT
HETATM    1  C   UNL     1      61.970   8.560   3.271  1.00  0.00    -0.025 A 
HETATM    2  C   UNL     1      63.078   8.003   3.934  1.00  0.00     0.021 A 
HETATM    3  C   UNL     1      63.857   8.738   4.847  1.00  0.00    -0.032 A 
HETATM    4  C   UNL     1      61.636   9.886   3.594  1.00  0.00     0.012 A 
HETATM    5  C   UNL     1      62.392  10.631   4.503  1.00  0.00     0.001 A 
HETATM    6  C   UNL     1      63.501  10.061   5.124  1.00  0.00     0.009 A 
ENDROOT
BRANCH   1   7
HETATM    7  C   UNL     1      61.224   7.791   2.245  1.00  0.00    -0.023 A 
HETATM    8  C   UNL     1      60.687   8.404   1.103  1.00  0.00     0.029 A 
HETATM    9  C   UNL     1      59.953   7.647   0.200  1.00  0.00     0.088 A 
HETATM   10  N   UNL     1      59.725   6.326   0.339  1.00  0.00    -0.375 N 
HETATM   11  C   UNL     1      60.250   5.741   1.431  1.00  0.00     0.088 A 
ATOM     12  HN  UNL     1      59.184   5.798  -0.347  1.00  0.00     0.164 HD
HETATM   13  C   UNL     1      60.987   6.419   2.394  1.00  0.00     0.029 A 
ENDBRANCH   1   7
BRANCH   3  14
HETATM   14  C   UNL     1      65.066   8.106   5.500  1.00  0.00     0.270 C 
BRANCH  14  15
HETATM   15  N   UNL     1      64.689   7.376   6.711  1.00  0.00    -0.075 N 
HETATM   16  C   UNL     1      65.855   6.837   7.390  1.00  0.00     0.267 C 
HETATM   17  H   UNL     1      64.068   6.609   6.456  1.00  0.00     0.277 HD
HETATM   18  H   UNL     1      64.221   8.025   7.344  1.00  0.00     0.277 HD
ENDBRANCH  14  15
ENDBRANCH   3  14
TORSDOF 3
ENDMDL
