MODEL 1
REMARK VINA RESULT:      -5.1      0.000      0.000
REMARK  2 active torsions:
REMARK  status: ('A' for Active; 'I' for Inactive)
REMARK    1  A    between atoms: C_1  and  C_5 
REMARK    2  A    between atoms: C_6  and  N_7 
ROOT
HETATM    1  C   UNL     1      63.972   8.348   5.140  1.00  0.00    -0.024 A 
HETATM    2  C   UNL     1      65.347   8.606   5.314  1.00  0.00     0.041 A 
HETATM    3  C   UNL     1      66.156   7.825   6.150  1.00  0.00     0.026 A 
HETATM    4  C   UNL     1      63.441   7.237   5.819  1.00  0.00     0.012 A 
HETATM    5  C   UNL     1      64.244   6.424   6.622  1.00  0.00     0.003 A 
HETATM    6  C   UNL     1      65.600   6.705   6.765  1.00  0.00     0.029 A 
ENDROOT
BRANCH   1   7
HETATM    7  C   UNL     1      63.126   9.202   4.270  1.00  0.00    -0.023 A 
HETATM    8  C   UNL     1      62.755   8.801   2.978  1.00  0.00     0.029 A 
HETATM    9  C   UNL     1      61.972   9.640   2.197  1.00  0.00     0.088 A 
HETATM   10  N   UNL     1      61.520  10.842   2.605  1.00  0.00    -0.375 N 
HETATM   11  C   UNL     1      61.872  11.220   3.848  1.00  0.00     0.088 A 
ATOM     12  HN  UNL     1      60.944  11.433   2.004  1.00  0.00     0.164 HD
HETATM   13  C   UNL     1      62.661  10.456   4.697  1.00  0.00     0.029 A 
ENDBRANCH   1   7
BRANCH   3  14
HETATM   14  N   UNL     1      67.542   8.027   6.176  1.00  0.00    -0.399 N 
HETATM   15  H   UNL     1      68.154   7.257   6.129  1.00  0.00     0.156 HD
HETATM   16  H   UNL     1      67.906   8.940   6.241  1.00  0.00     0.156 HD
ENDBRANCH   3  14
TORSDOF 2
ENDMDL
MODEL 2
REMARK VINA RESULT:      -5.0      1.197      5.276
REMARK  2 active torsions:
REMARK  status: ('A' for Active; 'I' for Inactive)
REMARK    1  A    between atoms: C_1  and  C_5 
REMARK    2  A    between atoms: C_6  and  N_7 
ROOT
HETATM    1  C   UNL     1      63.129   8.362   3.431  1.00  0.00    -0.024 A 
HETATM    2  C   UNL     1      62.610   9.669   3.337  1.00  0.00     0.041 A 
HETATM    3  C   UNL     1      61.963  10.138   2.185  1.00  0.00     0.026 A 
HETATM    4  C   UNL     1      62.940   7.519   2.322  1.00  0.00     0.012 A 
HETATM    5  C   UNL     1      62.260   7.958   1.183  1.00  0.00     0.003 A 
HETATM    6  C   UNL     1      61.755   9.254   1.127  1.00  0.00     0.029 A 
ENDROOT
BRANCH   1   7
HETATM    7  C   UNL     1      63.832   7.893   4.651  1.00  0.00    -0.023 A 
HETATM    8  C   UNL     1      65.098   8.381   5.007  1.00  0.00     0.029 A 
HETATM    9  C   UNL     1      65.722   7.902   6.151  1.00  0.00     0.088 A 
HETATM   10  N   UNL     1      65.180   6.983   6.973  1.00  0.00    -0.375 N 
HETATM   11  C   UNL     1      63.962   6.523   6.632  1.00  0.00     0.088 A 
ATOM     12  HN  UNL     1      65.666   6.655   7.808  1.00  0.00     0.164 HD
HETATM   13  C   UNL     1      63.267   6.932   5.503  1.00  0.00     0.029 A 
ENDBRANCH   1   7
BRANCH   3  14
HETATM   14  N   UNL     1      61.335  11.390   2.190  1.00  0.00    -0.399 N 
HETATM   15  H   UNL     1      61.786  12.166   2.594  1.00  0.00     0.156 HD
HETATM   16  H   UNL     1      60.442  11.495   1.790  1.00  0.00     0.156 HD
ENDBRANCH   3  14
TORSDOF 2
ENDMDL
MODEL 3
REMARK VINA RESULT:      -5.0      1.074      5.279
REMARK  2 active torsions:
REMARK  status: ('A' for Active; 'I' for Inactive)
REMARK    1  A    between atoms: C_1  and  C_5 
REMARK    2  A    between atoms: C_6  and  N_7 
ROOT
HETATM    1  C   UNL     1      63.226   9.065   4.394  1.00  0.00    -0.024 A 
HETATM    2  C   UNL     1      62.876   8.713   3.074  1.00  0.00     0.041 A 
HETATM    3  C   UNL     1      62.112   9.553   2.252  1.00  0.00     0.026 A 
HETATM    4  C   UNL     1      62.804  10.326   4.851  1.00  0.00     0.012 A 
HETATM    5  C   UNL     1      62.078  11.192   4.028  1.00  0.00     0.003 A 
HETATM    6  C   UNL     1      61.756  10.813   2.728  1.00  0.00     0.029 A 
ENDROOT
BRANCH   1   7
HETATM    7  C   UNL     1      64.014   8.152   5.258  1.00  0.00    -0.023 A 
HETATM    8  C   UNL     1      65.383   8.355   5.491  1.00  0.00     0.029 A 
HETATM    9  C   UNL     1      66.081   7.466   6.297  1.00  0.00     0.088 A 
HETATM   10  N   UNL     1      65.522   6.398   6.897  1.00  0.00    -0.375 N 
HETATM   11  C   UNL     1      64.208   6.211   6.678  1.00  0.00     0.088 A 
ATOM     12  HN  UNL     1      66.065   5.766   7.486  1.00  0.00     0.164 HD
HETATM   13  C   UNL     1      63.430   7.038   5.879  1.00  0.00     0.029 A 
ENDBRANCH   1   7
BRANCH   3  14
HETATM   14  N   UNL     1      61.915   9.227   0.903  1.00  0.00    -0.399 N 
HETATM   15  H   UNL     1      61.028   8.935   0.592  1.00  0.00     0.156 HD
HETATM   16  H   UNL     1      62.664   9.291   0.267  1.00  0.00     0.156 HD
ENDBRANCH   3  14
TORSDOF 2
ENDMDL
MODEL 4
REMARK VINA RESULT:      -4.9      1.417      2.111
REMARK  2 active torsions:
REMARK  status: ('A' for Active; 'I' for Inactive)
REMARK    1  A    between atoms: C_1  and  C_5 
REMARK    2  A    between atoms: C_6  and  N_7 
ROOT
HETATM    1  C   UNL     1      64.736   7.801   4.419  1.00  0.00    -0.024 A 
HETATM    2  C   UNL     1      65.288   8.364   5.588  1.00  0.00     0.041 A 
HETATM    3  C   UNL     1      66.461   7.870   6.176  1.00  0.00     0.026 A 
HETATM    4  C   UNL     1      65.437   6.731   3.834  1.00  0.00     0.012 A 
HETATM    5  C   UNL     1      66.630   6.256   4.385  1.00  0.00     0.003 A 
HETATM    6  C   UNL     1      67.149   6.841   5.537  1.00  0.00     0.029 A 
ENDROOT
BRANCH   1   7
HETATM    7  C   UNL     1      63.480   8.322   3.825  1.00  0.00    -0.023 A 
HETATM    8  C   UNL     1      62.843   9.466   4.331  1.00  0.00     0.029 A 
HETATM    9  C   UNL     1      61.663   9.907   3.749  1.00  0.00     0.088 A 
HETATM   10  N   UNL     1      61.073   9.307   2.698  1.00  0.00    -0.375 N 
HETATM   11  C   UNL     1      61.691   8.215   2.211  1.00  0.00     0.088 A 
ATOM     12  HN  UNL     1      60.205   9.661   2.293  1.00  0.00     0.164 HD
HETATM   13  C   UNL     1      62.866   7.692   2.732  1.00  0.00     0.029 A 
ENDBRANCH   1   7
BRANCH   3  14
HETATM   14  N   UNL     1      67.051   8.552   7.249  1.00  0.00    -0.399 N 
HETATM   15  H   UNL     1      67.936   8.970   7.140  1.00  0.00     0.156 HD
HETATM   16  H   UNL     1      66.581   8.614   8.112  1.00  0.00     0.156 HD
ENDBRANCH   3  14
TORSDOF 2
ENDMDL
MODEL 5
REMARK VINA RESULT:      -4.9      2.476      4.674
REMARK  2 active torsions:
REMARK  status: ('A' for Active; 'I' for Inactive)
REMARK    1  A    between atoms: C_1  and  C_5 
REMARK    2  A    between atoms: C_6  and  N_7 
ROOT
HETATM    1  C   UNL     1      63.270   8.757   3.906  1.00  0.00    -0.024 A 
HETATM    2  C   UNL     1      63.567   9.496   5.069  1.00  0.00     0.041 A 
HETATM    3  C   UNL     1      63.061  10.784   5.289  1.00  0.00     0.026 A 
HETATM    4  C   UNL     1      62.402   9.356   2.975  1.00  0.00     0.012 A 
HETATM    5  C   UNL     1      61.855  10.621   3.200  1.00  0.00     0.003 A 
HETATM    6  C   UNL     1      62.166  11.319   4.364  1.00  0.00     0.029 A 
ENDROOT
BRANCH   1   7
HETATM    7  C   UNL     1      63.836   7.405   3.679  1.00  0.00    -0.023 A 
HETATM    8  C   UNL     1      63.617   6.704   2.483  1.00  0.00     0.029 A 
HETATM    9  C   UNL     1      64.158   5.435   2.323  1.00  0.00     0.088 A 
HETATM   10  N   UNL     1      64.907   4.814   3.254  1.00  0.00    -0.375 N 
HETATM   11  C   UNL     1      65.122   5.493   4.396  1.00  0.00     0.088 A 
ATOM     12  HN  UNL     1      65.291   3.881   3.101  1.00  0.00     0.164 HD
HETATM   13  C   UNL     1      64.614   6.759   4.653  1.00  0.00     0.029 A 
ENDBRANCH   1   7
BRANCH   3  14
HETATM   14  N   UNL     1      63.262  11.418   6.523  1.00  0.00    -0.399 N 
HETATM   15  H   UNL     1      63.418  12.389   6.557  1.00  0.00     0.156 HD
HETATM   16  H   UNL     1      63.247  10.893   7.355  1.00  0.00     0.156 HD
ENDBRANCH   3  14
TORSDOF 2
ENDMDL
MODEL 6
REMARK VINA RESULT:      -4.7      1.597      2.441
REMARK  2 active torsions:
REMARK  status: ('A' for Active; 'I' for Inactive)
REMARK    1  A    between atoms: C_1  and  C_5 
REMARK    2  A    between atoms: C_6  and  N_7 
ROOT
HETATM    1  C   UNL     1      63.635   8.225   4.814  1.00  0.00    -0.024 A 
HETATM    2  C   UNL     1      63.057   6.998   5.196  1.00  0.00     0.041 A 
HETATM    3  C   UNL     1      63.737   6.062   5.988  1.00  0.00     0.026 A 
HETATM    4  C   UNL     1      64.929   8.497   5.295  1.00  0.00     0.012 A 
HETATM    5  C   UNL     1      65.603   7.593   6.120  1.00  0.00     0.003 A 
HETATM    6  C   UNL     1      64.997   6.393   6.482  1.00  0.00     0.029 A 
ENDROOT
BRANCH   1   7
HETATM    7  C   UNL     1      62.909   9.192   3.955  1.00  0.00    -0.023 A 
HETATM    8  C   UNL     1      62.549  10.467   4.419  1.00  0.00     0.029 A 
HETATM    9  C   UNL     1      61.859  11.332   3.581  1.00  0.00     0.088 A 
HETATM   10  N   UNL     1      61.508  11.033   2.315  1.00  0.00    -0.375 N 
HETATM   11  C   UNL     1      61.862   9.813   1.872  1.00  0.00     0.088 A 
ATOM     12  HN  UNL     1      61.003  11.695   1.726  1.00  0.00     0.164 HD
HETATM   13  C   UNL     1      62.542   8.876   2.638  1.00  0.00     0.029 A 
ENDBRANCH   1   7
BRANCH   3  14
HETATM   14  N   UNL     1      63.070   4.926   6.464  1.00  0.00    -0.399 N 
HETATM   15  H   UNL     1      63.455   4.032   6.319  1.00  0.00     0.156 HD
HETATM   16  H   UNL     1      62.215   5.021   6.943  1.00  0.00     0.156 HD
ENDBRANCH   3  14
TORSDOF 2
ENDMDL
MODEL 7
REMARK VINA RESULT:      -4.7      1.730      2.470
REMARK  2 active torsions:
REMARK  status: ('A' for Active; 'I' for Inactive)
REMARK    1  A    between atoms: C_1  and  C_5 
REMARK    2  A    between atoms: C_6  and  N_7 
ROOT
HETATM    1  C   UNL     1      65.164   7.859   4.730  1.00  0.00    -0.024 A 
HETATM    2  C   UNL     1      65.738   6.866   3.911  1.00  0.00     0.041 A 
HETATM    3  C   UNL     1      66.929   6.211   4.251  1.00  0.00     0.026 A 
HETATM    4  C   UNL     1      65.822   8.148   5.939  1.00  0.00     0.012 A 
HETATM    5  C   UNL     1      66.987   7.474   6.312  1.00  0.00     0.003 A 
HETATM    6  C   UNL     1      67.522   6.493   5.481  1.00  0.00     0.029 A 
ENDROOT
BRANCH   1   7
HETATM    7  C   UNL     1      63.915   8.559   4.341  1.00  0.00    -0.023 A 
HETATM    8  C   UNL     1      63.512   9.750   4.964  1.00  0.00     0.029 A 
HETATM    9  C   UNL     1      62.328  10.362   4.574  1.00  0.00     0.088 A 
HETATM   10  N   UNL     1      61.520   9.888   3.606  1.00  0.00    -0.375 N 
HETATM   11  C   UNL     1      61.915   8.750   3.005  1.00  0.00     0.088 A 
ATOM     12  HN  UNL     1      60.658  10.366   3.342  1.00  0.00     0.164 HD
HETATM   13  C   UNL     1      63.074   8.061   3.335  1.00  0.00     0.029 A 
ENDBRANCH   1   7
BRANCH   3  14
HETATM   14  N   UNL     1      67.382   5.130   3.483  1.00  0.00    -0.399 N 
HETATM   15  H   UNL     1      68.342   4.913   3.455  1.00  0.00     0.156 HD
HETATM   16  H   UNL     1      66.740   4.587   2.971  1.00  0.00     0.156 HD
ENDBRANCH   3  14
TORSDOF 2
ENDMDL
MODEL 8
REMARK VINA RESULT:      -4.6      2.062      5.168
REMARK  2 active torsions:
REMARK  status: ('A' for Active; 'I' for Inactive)
REMARK    1  A    between atoms: C_1  and  C_5 
REMARK    2  A    between atoms: C_6  and  N_7 
ROOT
HETATM    1  C   UNL     1      64.294   8.149   4.512  1.00  0.00    -0.024 A 
HETATM    2  C   UNL     1      64.248   9.302   5.323  1.00  0.00     0.041 A 
HETATM    3  C   UNL     1      63.274  10.296   5.157  1.00  0.00     0.026 A 
HETATM    4  C   UNL     1      63.289   8.014   3.538  1.00  0.00     0.012 A 
HETATM    5  C   UNL     1      62.286   8.975   3.390  1.00  0.00     0.003 A 
HETATM    6  C   UNL     1      62.268  10.098   4.213  1.00  0.00     0.029 A 
ENDROOT
BRANCH   1   7
HETATM    7  C   UNL     1      65.348   7.119   4.686  1.00  0.00    -0.023 A 
HETATM    8  C   UNL     1      65.932   6.864   5.936  1.00  0.00     0.029 A 
HETATM    9  C   UNL     1      66.923   5.899   6.046  1.00  0.00     0.088 A 
HETATM   10  N   UNL     1      67.372   5.161   5.013  1.00  0.00    -0.375 N 
HETATM   11  C   UNL     1      66.804   5.403   3.817  1.00  0.00     0.088 A 
ATOM     12  HN  UNL     1      68.102   4.457   5.131  1.00  0.00     0.164 HD
HETATM   13  C   UNL     1      65.816   6.355   3.606  1.00  0.00     0.029 A 
ENDBRANCH   1   7
BRANCH   3  14
HETATM   14  N   UNL     1      63.178  11.347   6.079  1.00  0.00    -0.399 N 
HETATM   15  H   UNL     1      63.786  12.118   6.011  1.00  0.00     0.156 HD
HETATM   16  H   UNL     1      62.503  11.315   6.794  1.00  0.00     0.156 HD
ENDBRANCH   3  14
TORSDOF 2
ENDMDL
MODEL 9
REMARK VINA RESULT:      -4.6      1.572      5.389
REMARK  2 active torsions:
REMARK  status: ('A' for Active; 'I' for Inactive)
REMARK    1  A    between atoms: C_1  and  C_5 
REMARK    2  A    between atoms: C_6  and  N_7 
ROOT
HETATM    1  C   UNL     1      64.407   8.145   4.631  1.00  0.00    -0.024 A 
HETATM    2  C   UNL     1      63.941   7.486   3.475  1.00  0.00     0.041 A 
HETATM    3  C   UNL     1      62.801   7.911   2.780  1.00  0.00     0.026 A 
HETATM    4  C   UNL     1      63.695   9.285   5.047  1.00  0.00     0.012 A 
HETATM    5  C   UNL     1      62.583   9.745   4.339  1.00  0.00     0.003 A 
HETATM    6  C   UNL     1      62.154   9.073   3.198  1.00  0.00     0.029 A 
ENDROOT
BRANCH   1   7
HETATM    7  C   UNL     1      65.602   7.666   5.369  1.00  0.00    -0.023 A 
HETATM    8  C   UNL     1      65.507   7.141   6.667  1.00  0.00     0.029 A 
HETATM    9  C   UNL     1      66.655   6.716   7.321  1.00  0.00     0.088 A 
HETATM   10  N   UNL     1      67.889   6.763   6.782  1.00  0.00    -0.375 N 
HETATM   11  C   UNL     1      67.974   7.260   5.534  1.00  0.00     0.088 A 
ATOM     12  HN  UNL     1      68.711   6.440   7.291  1.00  0.00     0.164 HD
HETATM   13  C   UNL     1      66.886   7.719   4.806  1.00  0.00     0.029 A 
ENDBRANCH   1   7
BRANCH   3  14
HETATM   14  N   UNL     1      62.461   7.318   1.556  1.00  0.00    -0.399 N 
HETATM   15  H   UNL     1      61.791   6.597   1.528  1.00  0.00     0.156 HD
HETATM   16  H   UNL     1      62.893   7.622   0.725  1.00  0.00     0.156 HD
ENDBRANCH   3  14
TORSDOF 2
ENDMDL
