MODEL 1
REMARK VINA RESULT:      -5.2      0.000      0.000
REMARK  3 active torsions:
REMARK  status: ('A' for Active; 'I' for Inactive)
REMARK    1  A    between atoms: C_1  and  C_4 
REMARK    2  A    between atoms: C_9  and  C_13 
REMARK    3  A    between atoms: O_10  and  C_13 
ROOT
HETATM    1  C   UNL     1      63.620   8.402   4.858  1.00  0.00    -0.026 A 
HETATM    2  C   UNL     1      65.008   8.521   5.053  1.00  0.00     0.013 A 
HETATM    3  C   UNL     1      62.961   7.396   5.585  1.00  0.00     0.013 A 
HETATM    4  C   UNL     1      65.706   7.677   5.927  1.00  0.00     0.010 A 
HETATM    5  C   UNL     1      63.650   6.559   6.472  1.00  0.00     0.010 A 
HETATM    6  C   UNL     1      65.031   6.689   6.647  1.00  0.00    -0.035 A 
ENDROOT
BRANCH   1   7
HETATM    7  C   UNL     1      62.888   9.301   3.932  1.00  0.00    -0.023 A 
HETATM    8  C   UNL     1      62.486  10.590   4.317  1.00  0.00     0.029 A 
HETATM    9  C   UNL     1      61.789  11.387   3.420  1.00  0.00     0.088 A 
HETATM   10  N   UNL     1      61.469  11.009   2.168  1.00  0.00    -0.375 N 
HETATM   11  C   UNL     1      61.864   9.775   1.799  1.00  0.00     0.088 A 
ATOM     12  HN  UNL     1      60.957  11.623   1.535  1.00  0.00     0.164 HD
HETATM   13  C   UNL     1      62.556   8.904   2.628  1.00  0.00     0.029 A 
ENDBRANCH   1   7
BRANCH   6  14
HETATM   14  C   UNL     1      65.766   5.778   7.593  1.00  0.00     0.202 C 
BRANCH  14  15
HETATM   15  O   UNL     1      66.112   6.470   8.786  1.00  0.00    -0.396 OA
HETATM   16  H   UNL     1      67.019   6.805   8.714  1.00  0.00     0.209 HD
ENDBRANCH  14  15
ENDBRANCH   6  14
TORSDOF 3
ENDMDL
MODEL 2
REMARK VINA RESULT:      -5.1      0.554      1.871
REMARK  3 active torsions:
REMARK  status: ('A' for Active; 'I' for Inactive)
REMARK    1  A    between atoms: C_1  and  C_4 
REMARK    2  A    between atoms: C_9  and  C_13 
REMARK    3  A    between atoms: O_10  and  C_13 
ROOT
HETATM    1  C   UNL     1      63.868   8.372   4.982  1.00  0.00    -0.026 A 
HETATM    2  C   UNL     1      63.325   7.319   5.739  1.00  0.00     0.013 A 
HETATM    3  C   UNL     1      65.231   8.658   5.178  1.00  0.00     0.013 A 
HETATM    4  C   UNL     1      64.099   6.589   6.650  1.00  0.00     0.010 A 
HETATM    5  C   UNL     1      66.014   7.922   6.077  1.00  0.00     0.010 A 
HETATM    6  C   UNL     1      65.452   6.882   6.825  1.00  0.00    -0.035 A 
ENDROOT
BRANCH   1   7
HETATM    7  C   UNL     1      63.043   9.139   4.016  1.00  0.00    -0.023 A 
HETATM    8  C   UNL     1      62.714   8.626   2.753  1.00  0.00     0.029 A 
HETATM    9  C   UNL     1      61.953   9.389   1.878  1.00  0.00     0.088 A 
HETATM   10  N   UNL     1      61.484  10.618   2.166  1.00  0.00    -0.375 N 
HETATM   11  C   UNL     1      61.794  11.104   3.383  1.00  0.00     0.088 A 
ATOM     12  HN  UNL     1      60.925  11.150   1.499  1.00  0.00     0.164 HD
HETATM   13  C   UNL     1      62.556  10.420   4.318  1.00  0.00     0.029 A 
ENDBRANCH   1   7
BRANCH   6  14
HETATM   14  C   UNL     1      66.298   6.104   7.797  1.00  0.00     0.202 C 
BRANCH  14  15
HETATM   15  O   UNL     1      67.439   6.858   8.183  1.00  0.00    -0.396 OA
HETATM   16  H   UNL     1      67.298   7.793   7.965  1.00  0.00     0.209 HD
ENDBRANCH  14  15
ENDBRANCH   6  14
TORSDOF 3
ENDMDL
MODEL 3
REMARK VINA RESULT:      -5.1      0.907      1.618
REMARK  3 active torsions:
REMARK  status: ('A' for Active; 'I' for Inactive)
REMARK    1  A    between atoms: C_1  and  C_4 
REMARK    2  A    between atoms: C_9  and  C_13 
REMARK    3  A    between atoms: O_10  and  C_13 
ROOT
HETATM    1  C   UNL     1      64.279   8.172   5.372  1.00  0.00    -0.026 A 
HETATM    2  C   UNL     1      63.784   7.068   6.089  1.00  0.00     0.013 A 
HETATM    3  C   UNL     1      65.662   8.412   5.450  1.00  0.00     0.013 A 
HETATM    4  C   UNL     1      64.625   6.246   6.851  1.00  0.00     0.010 A 
HETATM    5  C   UNL     1      66.510   7.585   6.197  1.00  0.00     0.010 A 
HETATM    6  C   UNL     1      65.997   6.495   6.909  1.00  0.00    -0.035 A 
ENDROOT
BRANCH   1   7
HETATM    7  C   UNL     1      63.384   9.037   4.565  1.00  0.00    -0.023 A 
HETATM    8  C   UNL     1      62.948  10.288   5.029  1.00  0.00     0.029 A 
HETATM    9  C   UNL     1      62.097  11.053   4.244  1.00  0.00     0.088 A 
HETATM   10  N   UNL     1      61.655  10.679   3.029  1.00  0.00    -0.375 N 
HETATM   11  C   UNL     1      62.083   9.482   2.582  1.00  0.00     0.088 A 
ATOM     12  HN  UNL     1      61.031  11.268   2.477  1.00  0.00     0.164 HD
HETATM   13  C   UNL     1      62.924   8.644   3.299  1.00  0.00     0.029 A 
ENDBRANCH   1   7
BRANCH   6  14
HETATM   14  C   UNL     1      66.914   5.618   7.719  1.00  0.00     0.202 C 
BRANCH  14  15
HETATM   15  O   UNL     1      66.185   4.928   8.726  1.00  0.00    -0.396 OA
HETATM   16  H   UNL     1      65.311   4.683   8.382  1.00  0.00     0.209 HD
ENDBRANCH  14  15
ENDBRANCH   6  14
TORSDOF 3
ENDMDL
MODEL 4
REMARK VINA RESULT:      -5.0      3.622      5.993
REMARK  3 active torsions:
REMARK  status: ('A' for Active; 'I' for Inactive)
REMARK    1  A    between atoms: C_1  and  C_4 
REMARK    2  A    between atoms: C_9  and  C_13 
REMARK    3  A    between atoms: O_10  and  C_13 
ROOT
HETATM    1  C   UNL     1      63.802   8.337   4.760  1.00  0.00    -0.026 A 
HETATM    2  C   UNL     1      63.460   7.916   3.462  1.00  0.00     0.013 A 
HETATM    3  C   UNL     1      63.343   9.605   5.157  1.00  0.00     0.013 A 
HETATM    4  C   UNL     1      62.703   8.720   2.600  1.00  0.00     0.010 A 
HETATM    5  C   UNL     1      62.572  10.408   4.306  1.00  0.00     0.010 A 
HETATM    6  C   UNL     1      62.249   9.973   3.016  1.00  0.00    -0.035 A 
ENDROOT
BRANCH   1   7
HETATM    7  C   UNL     1      64.602   7.479   5.668  1.00  0.00    -0.023 A 
HETATM    8  C   UNL     1      64.147   6.221   6.089  1.00  0.00     0.029 A 
HETATM    9  C   UNL     1      64.925   5.462   6.952  1.00  0.00     0.088 A 
HETATM   10  N   UNL     1      66.125   5.852   7.421  1.00  0.00    -0.375 N 
HETATM   11  C   UNL     1      66.564   7.057   7.008  1.00  0.00     0.088 A 
ATOM     12  HN  UNL     1      66.672   5.268   8.054  1.00  0.00     0.164 HD
HETATM   13  C   UNL     1      65.852   7.888   6.156  1.00  0.00     0.029 A 
ENDBRANCH   1   7
BRANCH   6  14
HETATM   14  C   UNL     1      61.430  10.846   2.103  1.00  0.00     0.202 C 
BRANCH  14  15
HETATM   15  O   UNL     1      62.095  12.079   1.862  1.00  0.00    -0.396 OA
HETATM   16  H   UNL     1      62.876  12.143   2.433  1.00  0.00     0.209 HD
ENDBRANCH  14  15
ENDBRANCH   6  14
TORSDOF 3
ENDMDL
MODEL 5
REMARK VINA RESULT:      -4.8      3.695      5.954
REMARK  3 active torsions:
REMARK  status: ('A' for Active; 'I' for Inactive)
REMARK    1  A    between atoms: C_1  and  C_4 
REMARK    2  A    between atoms: C_9  and  C_13 
REMARK    3  A    between atoms: O_10  and  C_13 
ROOT
HETATM    1  C   UNL     1      64.585   7.807   4.555  1.00  0.00    -0.026 A 
HETATM    2  C   UNL     1      64.202   7.046   3.436  1.00  0.00     0.013 A 
HETATM    3  C   UNL     1      63.864   8.990   4.796  1.00  0.00     0.013 A 
HETATM    4  C   UNL     1      63.155   7.445   2.595  1.00  0.00     0.010 A 
HETATM    5  C   UNL     1      62.807   9.387   3.968  1.00  0.00     0.010 A 
HETATM    6  C   UNL     1      62.445   8.619   2.856  1.00  0.00    -0.035 A 
ENDROOT
BRANCH   1   7
HETATM    7  C   UNL     1      65.694   7.376   5.443  1.00  0.00    -0.023 A 
HETATM    8  C   UNL     1      65.476   7.038   6.787  1.00  0.00     0.029 A 
HETATM    9  C   UNL     1      66.548   6.657   7.582  1.00  0.00     0.088 A 
HETATM   10  N   UNL     1      67.818   6.574   7.142  1.00  0.00    -0.375 N 
HETATM   11  C   UNL     1      68.022   6.891   5.848  1.00  0.00     0.088 A 
ATOM     12  HN  UNL     1      68.582   6.288   7.753  1.00  0.00     0.164 HD
HETATM   13  C   UNL     1      67.016   7.292   4.982  1.00  0.00     0.029 A 
ENDBRANCH   1   7
BRANCH   6  14
HETATM   14  C   UNL     1      61.315   9.059   1.965  1.00  0.00     0.202 C 
BRANCH  14  15
HETATM   15  O   UNL     1      61.189  10.475   1.978  1.00  0.00    -0.396 OA
HETATM   16  H   UNL     1      61.927  10.870   1.487  1.00  0.00     0.209 HD
ENDBRANCH  14  15
ENDBRANCH   6  14
TORSDOF 3
ENDMDL
MODEL 6
REMARK VINA RESULT:      -4.6      1.284      1.785
REMARK  3 active torsions:
REMARK  status: ('A' for Active; 'I' for Inactive)
REMARK    1  A    between atoms: C_1  and  C_4 
REMARK    2  A    between atoms: C_9  and  C_13 
REMARK    3  A    between atoms: O_10  and  C_13 
ROOT
HETATM    1  C   UNL     1      63.784   7.675   4.419  1.00  0.00    -0.026 A 
HETATM    2  C   UNL     1      64.848   6.966   3.832  1.00  0.00     0.013 A 
HETATM    3  C   UNL     1      63.484   7.374   5.759  1.00  0.00     0.013 A 
HETATM    4  C   UNL     1      65.575   6.003   4.543  1.00  0.00     0.010 A 
HETATM    5  C   UNL     1      64.217   6.422   6.481  1.00  0.00     0.010 A 
HETATM    6  C   UNL     1      65.267   5.724   5.876  1.00  0.00    -0.035 A 
ENDROOT
BRANCH   1   7
HETATM    7  C   UNL     1      63.020   8.696   3.660  1.00  0.00    -0.023 A 
HETATM    8  C   UNL     1      62.701   8.525   2.305  1.00  0.00     0.029 A 
HETATM    9  C   UNL     1      61.999   9.516   1.634  1.00  0.00     0.088 A 
HETATM   10  N   UNL     1      61.578  10.659   2.209  1.00  0.00    -0.375 N 
HETATM   11  C   UNL     1      61.877  10.816   3.513  1.00  0.00     0.088 A 
ATOM     12  HN  UNL     1      61.061  11.366   1.686  1.00  0.00     0.164 HD
HETATM   13  C   UNL     1      62.583   9.886   4.262  1.00  0.00     0.029 A 
ENDBRANCH   1   7
BRANCH   6  14
HETATM   14  C   UNL     1      66.042   4.696   6.655  1.00  0.00     0.202 C 
BRANCH  14  15
HETATM   15  O   UNL     1      65.233   4.128   7.677  1.00  0.00    -0.396 OA
HETATM   16  H   UNL     1      64.504   3.631   7.274  1.00  0.00     0.209 HD
ENDBRANCH  14  15
ENDBRANCH   6  14
TORSDOF 3
ENDMDL
MODEL 7
REMARK VINA RESULT:      -4.5      3.647      5.986
REMARK  3 active torsions:
REMARK  status: ('A' for Active; 'I' for Inactive)
REMARK    1  A    between atoms: C_1  and  C_4 
REMARK    2  A    between atoms: C_9  and  C_13 
REMARK    3  A    between atoms: O_10  and  C_13 
ROOT
HETATM    1  C   UNL     1      63.878   7.296   5.224  1.00  0.00    -0.026 A 
HETATM    2  C   UNL     1      63.525   8.601   5.611  1.00  0.00     0.013 A 
HETATM    3  C   UNL     1      63.601   6.931   3.894  1.00  0.00     0.013 A 
HETATM    4  C   UNL     1      62.923   9.498   4.719  1.00  0.00     0.010 A 
HETATM    5  C   UNL     1      63.013   7.828   2.993  1.00  0.00     0.010 A 
HETATM    6  C   UNL     1      62.664   9.120   3.400  1.00  0.00    -0.035 A 
ENDROOT
BRANCH   1   7
HETATM    7  C   UNL     1      64.517   6.352   6.173  1.00  0.00    -0.023 A 
HETATM    8  C   UNL     1      65.427   6.787   7.148  1.00  0.00     0.029 A 
HETATM    9  C   UNL     1      66.012   5.863   8.003  1.00  0.00     0.088 A 
HETATM   10  N   UNL     1      65.754   4.541   7.972  1.00  0.00    -0.375 N 
HETATM   11  C   UNL     1      64.873   4.128   7.040  1.00  0.00     0.088 A 
ATOM     12  HN  UNL     1      66.200   3.890   8.617  1.00  0.00     0.164 HD
HETATM   13  C   UNL     1      64.247   4.976   6.138  1.00  0.00     0.029 A 
ENDBRANCH   1   7
BRANCH   6  14
HETATM   14  C   UNL     1      62.023  10.074   2.429  1.00  0.00     0.202 C 
BRANCH  14  15
HETATM   15  O   UNL     1      61.287  11.074   3.122  1.00  0.00    -0.396 OA
HETATM   16  H   UNL     1      61.793  11.372   3.893  1.00  0.00     0.209 HD
ENDBRANCH  14  15
ENDBRANCH   6  14
TORSDOF 3
ENDMDL
MODEL 8
REMARK VINA RESULT:      -4.3      3.950      6.029
REMARK  3 active torsions:
REMARK  status: ('A' for Active; 'I' for Inactive)
REMARK    1  A    between atoms: C_1  and  C_4 
REMARK    2  A    between atoms: C_9  and  C_13 
REMARK    3  A    between atoms: O_10  and  C_13 
ROOT
HETATM    1  C   UNL     1      63.183   7.596   3.052  1.00  0.00    -0.026 A 
HETATM    2  C   UNL     1      62.076   8.393   3.396  1.00  0.00     0.013 A 
HETATM    3  C   UNL     1      63.111   6.903   1.831  1.00  0.00     0.013 A 
HETATM    4  C   UNL     1      60.950   8.491   2.567  1.00  0.00     0.010 A 
HETATM    5  C   UNL     1      61.995   7.008   0.991  1.00  0.00     0.010 A 
HETATM    6  C   UNL     1      60.901   7.801   1.354  1.00  0.00    -0.035 A 
ENDROOT
BRANCH   1   7
HETATM    7  C   UNL     1      64.372   7.499   3.934  1.00  0.00    -0.023 A 
HETATM    8  C   UNL     1      64.578   8.390   4.998  1.00  0.00     0.029 A 
HETATM    9  C   UNL     1      65.715   8.268   5.785  1.00  0.00     0.088 A 
HETATM   10  N   UNL     1      66.658   7.323   5.603  1.00  0.00    -0.375 N 
HETATM   11  C   UNL     1      66.452   6.464   4.586  1.00  0.00     0.088 A 
ATOM     12  HN  UNL     1      67.481   7.262   6.202  1.00  0.00     0.164 HD
HETATM   13  C   UNL     1      65.353   6.514   3.742  1.00  0.00     0.029 A 
ENDBRANCH   1   7
BRANCH   6  14
HETATM   14  C   UNL     1      59.702   7.900   0.451  1.00  0.00     0.202 C 
BRANCH  14  15
HETATM   15  O   UNL     1      58.720   8.759   1.016  1.00  0.00    -0.396 OA
HETATM   16  H   UNL     1      58.178   9.141   0.309  1.00  0.00     0.209 HD
ENDBRANCH  14  15
ENDBRANCH   6  14
TORSDOF 3
ENDMDL
MODEL 9
REMARK VINA RESULT:      -4.1      1.778      2.545
REMARK  3 active torsions:
REMARK  status: ('A' for Active; 'I' for Inactive)
REMARK    1  A    between atoms: C_1  and  C_4 
REMARK    2  A    between atoms: C_9  and  C_13 
REMARK    3  A    between atoms: O_10  and  C_13 
ROOT
HETATM    1  C   UNL     1      62.710   7.666   4.140  1.00  0.00    -0.026 A 
HETATM    2  C   UNL     1      62.540   6.859   5.279  1.00  0.00     0.013 A 
HETATM    3  C   UNL     1      63.970   8.267   3.970  1.00  0.00     0.013 A 
HETATM    4  C   UNL     1      63.572   6.662   6.205  1.00  0.00     0.010 A 
HETATM    5  C   UNL     1      65.011   8.062   4.884  1.00  0.00     0.010 A 
HETATM    6  C   UNL     1      64.820   7.260   6.014  1.00  0.00    -0.035 A 
ENDROOT
BRANCH   1   7
HETATM    7  C   UNL     1      61.613   7.868   3.162  1.00  0.00    -0.023 A 
HETATM    8  C   UNL     1      61.812   8.565   1.960  1.00  0.00     0.029 A 
HETATM    9  C   UNL     1      60.750   8.741   1.084  1.00  0.00     0.088 A 
HETATM   10  N   UNL     1      59.508   8.270   1.304  1.00  0.00    -0.375 N 
HETATM   11  C   UNL     1      59.322   7.594   2.455  1.00  0.00     0.088 A 
ATOM     12  HN  UNL     1      58.751   8.417   0.637  1.00  0.00     0.164 HD
HETATM   13  C   UNL     1      60.320   7.377   3.394  1.00  0.00     0.029 A 
ENDBRANCH   1   7
BRANCH   6  14
HETATM   14  C   UNL     1      65.940   7.054   6.998  1.00  0.00     0.202 C 
BRANCH  14  15
HETATM   15  O   UNL     1      65.426   6.868   8.310  1.00  0.00    -0.396 OA
HETATM   16  H   UNL     1      64.934   7.660   8.580  1.00  0.00     0.209 HD
ENDBRANCH  14  15
ENDBRANCH   6  14
TORSDOF 3
ENDMDL
