MODEL 1
REMARK VINA RESULT:      -5.6      0.000      0.000
REMARK  3 active torsions:
REMARK  status: ('A' for Active; 'I' for Inactive)
REMARK    1  A    between atoms: C_1  and  C_5 
REMARK    2  A    between atoms: C_6  and  C_12 
REMARK    3  A    between atoms: O_7  and  C_12 
ROOT
HETATM    1  C   UNL     1      63.382   8.404   4.766  1.00  0.00    -0.025 A 
HETATM    2  C   UNL     1      64.751   8.493   5.087  1.00  0.00     0.021 A 
HETATM    3  C   UNL     1      65.368   7.612   5.995  1.00  0.00    -0.034 A 
HETATM    4  C   UNL     1      62.651   7.370   5.378  1.00  0.00     0.012 A 
HETATM    5  C   UNL     1      63.255   6.474   6.267  1.00  0.00     0.002 A 
HETATM    6  C   UNL     1      64.606   6.598   6.578  1.00  0.00     0.009 A 
ENDROOT
BRANCH   1   7
HETATM    7  C   UNL     1      62.742   9.370   3.838  1.00  0.00    -0.023 A 
HETATM    8  C   UNL     1      62.460   9.042   2.504  1.00  0.00     0.029 A 
HETATM    9  C   UNL     1      61.854   9.982   1.679  1.00  0.00     0.088 A 
HETATM   10  N   UNL     1      61.516  11.224   2.076  1.00  0.00    -0.375 N 
HETATM   11  C   UNL     1      61.791  11.536   3.357  1.00  0.00     0.088 A 
ATOM     12  HN  UNL     1      61.078  11.891   1.442  1.00  0.00     0.164 HD
HETATM   13  C   UNL     1      62.383  10.659   4.256  1.00  0.00     0.029 A 
ENDBRANCH   1   7
BRANCH   3  14
HETATM   14  C   UNL     1      66.822   7.788   6.339  1.00  0.00     0.202 C 
BRANCH  14  15
HETATM   15  O   UNL     1      67.014   8.939   7.150  1.00  0.00    -0.396 OA
HETATM   16  H   UNL     1      67.850   8.858   7.635  1.00  0.00     0.209 HD
ENDBRANCH  14  15
ENDBRANCH   3  14
TORSDOF 3
ENDMDL
MODEL 2
REMARK VINA RESULT:      -5.6      3.068      4.991
REMARK  3 active torsions:
REMARK  status: ('A' for Active; 'I' for Inactive)
REMARK    1  A    between atoms: C_1  and  C_5 
REMARK    2  A    between atoms: C_6  and  C_12 
REMARK    3  A    between atoms: O_7  and  C_12 
ROOT
HETATM    1  C   UNL     1      64.252   8.097   4.266  1.00  0.00    -0.025 A 
HETATM    2  C   UNL     1      64.134   9.198   5.137  1.00  0.00     0.021 A 
HETATM    3  C   UNL     1      63.066  10.111   5.053  1.00  0.00    -0.034 A 
HETATM    4  C   UNL     1      63.234   7.931   3.310  1.00  0.00     0.012 A 
HETATM    5  C   UNL     1      62.156   8.818   3.227  1.00  0.00     0.002 A 
HETATM    6  C   UNL     1      62.074   9.906   4.091  1.00  0.00     0.009 A 
ENDROOT
BRANCH   1   7
HETATM    7  C   UNL     1      65.409   7.171   4.345  1.00  0.00    -0.023 A 
HETATM    8  C   UNL     1      65.520   6.050   3.510  1.00  0.00     0.029 A 
HETATM    9  C   UNL     1      66.628   5.218   3.622  1.00  0.00     0.088 A 
HETATM   10  N   UNL     1      67.627   5.410   4.504  1.00  0.00    -0.375 N 
HETATM   11  C   UNL     1      67.516   6.487   5.305  1.00  0.00     0.088 A 
ATOM     12  HN  UNL     1      68.423   4.776   4.562  1.00  0.00     0.164 HD
HETATM   13  C   UNL     1      66.453   7.379   5.258  1.00  0.00     0.029 A 
ENDBRANCH   1   7
BRANCH   3  14
HETATM   14  C   UNL     1      63.019  11.298   5.977  1.00  0.00     0.202 C 
BRANCH  14  15
HETATM   15  O   UNL     1      64.316  11.603   6.472  1.00  0.00    -0.396 OA
HETATM   16  H   UNL     1      64.237  12.086   7.310  1.00  0.00     0.209 HD
ENDBRANCH  14  15
ENDBRANCH   3  14
TORSDOF 3
ENDMDL
MODEL 3
REMARK VINA RESULT:      -5.5      2.592      3.556
REMARK  3 active torsions:
REMARK  status: ('A' for Active; 'I' for Inactive)
REMARK    1  A    between atoms: C_1  and  C_5 
REMARK    2  A    between atoms: C_6  and  C_12 
REMARK    3  A    between atoms: O_7  and  C_12 
ROOT
HETATM    1  C   UNL     1      61.981   8.498   3.416  1.00  0.00    -0.025 A 
HETATM    2  C   UNL     1      62.038   9.683   4.175  1.00  0.00     0.021 A 
HETATM    3  C   UNL     1      63.128   9.988   5.011  1.00  0.00    -0.034 A 
HETATM    4  C   UNL     1      63.084   7.630   3.508  1.00  0.00     0.012 A 
HETATM    5  C   UNL     1      64.185   7.929   4.318  1.00  0.00     0.002 A 
HETATM    6  C   UNL     1      64.205   9.101   5.070  1.00  0.00     0.009 A 
ENDROOT
BRANCH   1   7
HETATM    7  C   UNL     1      60.802   8.176   2.575  1.00  0.00    -0.023 A 
HETATM    8  C   UNL     1      60.768   8.464   1.203  1.00  0.00     0.029 A 
HETATM    9  C   UNL     1      59.640   8.136   0.459  1.00  0.00     0.088 A 
HETATM   10  N   UNL     1      58.542   7.552   0.976  1.00  0.00    -0.375 N 
HETATM   11  C   UNL     1      58.578   7.278   2.294  1.00  0.00     0.088 A 
ATOM     12  HN  UNL     1      57.730   7.330   0.402  1.00  0.00     0.164 HD
HETATM   13  C   UNL     1      59.663   7.559   3.113  1.00  0.00     0.029 A 
ENDBRANCH   1   7
BRANCH   3  14
HETATM   14  C   UNL     1      63.110  11.245   5.838  1.00  0.00     0.202 C 
BRANCH  14  15
HETATM   15  O   UNL     1      64.375  11.467   6.446  1.00  0.00    -0.396 OA
HETATM   16  H   UNL     1      64.255  11.627   7.396  1.00  0.00     0.209 HD
ENDBRANCH  14  15
ENDBRANCH   3  14
TORSDOF 3
ENDMDL
MODEL 4
REMARK VINA RESULT:      -5.4      2.910      4.729
REMARK  3 active torsions:
REMARK  status: ('A' for Active; 'I' for Inactive)
REMARK    1  A    between atoms: C_1  and  C_5 
REMARK    2  A    between atoms: C_6  and  C_12 
REMARK    3  A    between atoms: O_7  and  C_12 
ROOT
HETATM    1  C   UNL     1      62.745   8.921   2.979  1.00  0.00    -0.025 A 
HETATM    2  C   UNL     1      62.986   9.418   4.275  1.00  0.00     0.021 A 
HETATM    3  C   UNL     1      62.600  10.713   4.667  1.00  0.00    -0.034 A 
HETATM    4  C   UNL     1      62.072   9.775   2.086  1.00  0.00     0.012 A 
HETATM    5  C   UNL     1      61.664  11.057   2.467  1.00  0.00     0.002 A 
HETATM    6  C   UNL     1      61.931  11.527   3.750  1.00  0.00     0.009 A 
ENDROOT
BRANCH   1   7
HETATM    7  C   UNL     1      63.198   7.568   2.574  1.00  0.00    -0.023 A 
HETATM    8  C   UNL     1      64.066   6.806   3.371  1.00  0.00     0.029 A 
HETATM    9  C   UNL     1      64.455   5.541   2.948  1.00  0.00     0.088 A 
HETATM   10  N   UNL     1      64.055   4.979   1.791  1.00  0.00    -0.375 N 
HETATM   11  C   UNL     1      63.223   5.714   1.028  1.00  0.00     0.088 A 
ATOM     12  HN  UNL     1      64.365   4.050   1.509  1.00  0.00     0.164 HD
HETATM   13  C   UNL     1      62.773   6.981   1.374  1.00  0.00     0.029 A 
ENDBRANCH   1   7
BRANCH   3  14
HETATM   14  C   UNL     1      62.930  11.208   6.049  1.00  0.00     0.202 C 
BRANCH  14  15
HETATM   15  O   UNL     1      64.335  11.345   6.214  1.00  0.00    -0.396 OA
HETATM   16  H   UNL     1      64.641  12.136   5.741  1.00  0.00     0.209 HD
ENDBRANCH  14  15
ENDBRANCH   3  14
TORSDOF 3
ENDMDL
MODEL 5
REMARK VINA RESULT:      -5.4      2.953      5.364
REMARK  3 active torsions:
REMARK  status: ('A' for Active; 'I' for Inactive)
REMARK    1  A    between atoms: C_1  and  C_5 
REMARK    2  A    between atoms: C_6  and  C_12 
REMARK    3  A    between atoms: O_7  and  C_12 
ROOT
HETATM    1  C   UNL     1      63.205   8.225   3.470  1.00  0.00    -0.025 A 
HETATM    2  C   UNL     1      62.734   9.548   3.358  1.00  0.00     0.021 A 
HETATM    3  C   UNL     1      62.099  10.023   2.196  1.00  0.00    -0.034 A 
HETATM    4  C   UNL     1      62.989   7.378   2.369  1.00  0.00     0.012 A 
HETATM    5  C   UNL     1      62.340   7.829   1.215  1.00  0.00     0.002 A 
HETATM    6  C   UNL     1      61.901   9.147   1.126  1.00  0.00     0.009 A 
ENDROOT
BRANCH   1   7
HETATM    7  C   UNL     1      63.911   7.758   4.689  1.00  0.00    -0.023 A 
HETATM    8  C   UNL     1      63.391   6.742   5.505  1.00  0.00     0.029 A 
HETATM    9  C   UNL     1      64.097   6.338   6.632  1.00  0.00     0.088 A 
HETATM   10  N   UNL     1      65.272   6.872   7.015  1.00  0.00    -0.375 N 
HETATM   11  C   UNL     1      65.767   7.848   6.230  1.00  0.00     0.088 A 
ATOM     12  HN  UNL     1      65.760   6.554   7.852  1.00  0.00     0.164 HD
HETATM   13  C   UNL     1      65.140   8.309   5.081  1.00  0.00     0.029 A 
ENDBRANCH   1   7
BRANCH   3  14
HETATM   14  C   UNL     1      61.663  11.461   2.113  1.00  0.00     0.202 C 
BRANCH  14  15
HETATM   15  O   UNL     1      61.805  12.105   3.372  1.00  0.00    -0.396 OA
HETATM   16  H   UNL     1      62.643  12.593   3.393  1.00  0.00     0.209 HD
ENDBRANCH  14  15
ENDBRANCH   3  14
TORSDOF 3
ENDMDL
MODEL 6
REMARK VINA RESULT:      -5.3      3.391      5.582
REMARK  3 active torsions:
REMARK  status: ('A' for Active; 'I' for Inactive)
REMARK    1  A    between atoms: C_1  and  C_5 
REMARK    2  A    between atoms: C_6  and  C_12 
REMARK    3  A    between atoms: O_7  and  C_12 
ROOT
HETATM    1  C   UNL     1      64.575   7.821   4.545  1.00  0.00    -0.025 A 
HETATM    2  C   UNL     1      63.881   9.021   4.794  1.00  0.00     0.021 A 
HETATM    3  C   UNL     1      62.813   9.453   3.985  1.00  0.00    -0.034 A 
HETATM    4  C   UNL     1      64.136   7.047   3.456  1.00  0.00     0.012 A 
HETATM    5  C   UNL     1      63.062   7.451   2.656  1.00  0.00     0.002 A 
HETATM    6  C   UNL     1      62.406   8.652   2.916  1.00  0.00     0.009 A 
ENDROOT
BRANCH   1   7
HETATM    7  C   UNL     1      65.727   7.407   5.384  1.00  0.00    -0.023 A 
HETATM    8  C   UNL     1      67.030   7.332   4.872  1.00  0.00     0.029 A 
HETATM    9  C   UNL     1      68.074   6.945   5.703  1.00  0.00     0.088 A 
HETATM   10  N   UNL     1      67.920   6.617   7.001  1.00  0.00    -0.375 N 
HETATM   11  C   UNL     1      66.667   6.689   7.489  1.00  0.00     0.088 A 
ATOM     12  HN  UNL     1      68.708   6.331   7.581  1.00  0.00     0.164 HD
HETATM   13  C   UNL     1      65.566   7.076   6.737  1.00  0.00     0.029 A 
ENDBRANCH   1   7
BRANCH   3  14
HETATM   14  C   UNL     1      62.142  10.770   4.268  1.00  0.00     0.202 C 
BRANCH  14  15
HETATM   15  O   UNL     1      61.335  11.172   3.170  1.00  0.00    -0.396 OA
HETATM   16  H   UNL     1      61.804  10.990   2.340  1.00  0.00     0.209 HD
ENDBRANCH  14  15
ENDBRANCH   3  14
TORSDOF 3
ENDMDL
MODEL 7
REMARK VINA RESULT:      -5.3      3.317      5.639
REMARK  3 active torsions:
REMARK  status: ('A' for Active; 'I' for Inactive)
REMARK    1  A    between atoms: C_1  and  C_5 
REMARK    2  A    between atoms: C_6  and  C_12 
REMARK    3  A    between atoms: O_7  and  C_12 
ROOT
HETATM    1  C   UNL     1      63.445   9.026   4.612  1.00  0.00    -0.025 A 
HETATM    2  C   UNL     1      62.968   8.719   3.323  1.00  0.00     0.021 A 
HETATM    3  C   UNL     1      62.142   9.599   2.598  1.00  0.00    -0.034 A 
HETATM    4  C   UNL     1      63.079  10.276   5.145  1.00  0.00     0.012 A 
HETATM    5  C   UNL     1      62.276  11.170   4.428  1.00  0.00     0.002 A 
HETATM    6  C   UNL     1      61.806  10.831   3.162  1.00  0.00     0.009 A 
ENDROOT
BRANCH   1   7
HETATM    7  C   UNL     1      64.278   8.065   5.376  1.00  0.00    -0.023 A 
HETATM    8  C   UNL     1      63.722   6.957   6.031  1.00  0.00     0.029 A 
HETATM    9  C   UNL     1      64.550   6.084   6.728  1.00  0.00     0.088 A 
HETATM   10  N   UNL     1      65.884   6.234   6.830  1.00  0.00    -0.375 N 
HETATM   11  C   UNL     1      66.414   7.300   6.201  1.00  0.00     0.088 A 
ATOM     12  HN  UNL     1      66.460   5.576   7.354  1.00  0.00     0.164 HD
HETATM   13  C   UNL     1      65.669   8.218   5.473  1.00  0.00     0.029 A 
ENDBRANCH   1   7
BRANCH   3  14
HETATM   14  C   UNL     1      61.620   9.195   1.246  1.00  0.00     0.202 C 
BRANCH  14  15
HETATM   15  O   UNL     1      60.236   8.882   1.312  1.00  0.00    -0.396 OA
HETATM   16  H   UNL     1      59.803   9.152   0.487  1.00  0.00     0.209 HD
ENDBRANCH  14  15
ENDBRANCH   3  14
TORSDOF 3
ENDMDL
MODEL 8
REMARK VINA RESULT:      -4.7      3.573      5.743
REMARK  3 active torsions:
REMARK  status: ('A' for Active; 'I' for Inactive)
REMARK    1  A    between atoms: C_1  and  C_5 
REMARK    2  A    between atoms: C_6  and  C_12 
REMARK    3  A    between atoms: O_7  and  C_12 
ROOT
HETATM    1  C   UNL     1      64.100   8.481   4.374  1.00  0.00    -0.025 A 
HETATM    2  C   UNL     1      63.362   8.088   3.241  1.00  0.00     0.021 A 
HETATM    3  C   UNL     1      62.194   8.761   2.835  1.00  0.00    -0.034 A 
HETATM    4  C   UNL     1      63.632   9.604   5.080  1.00  0.00     0.012 A 
HETATM    5  C   UNL     1      62.486  10.296   4.677  1.00  0.00     0.002 A 
HETATM    6  C   UNL     1      61.766   9.874   3.563  1.00  0.00     0.009 A 
ENDROOT
BRANCH   1   7
HETATM    7  C   UNL     1      65.305   7.731   4.809  1.00  0.00    -0.023 A 
HETATM    8  C   UNL     1      65.978   8.034   6.001  1.00  0.00     0.029 A 
HETATM    9  C   UNL     1      67.098   7.295   6.364  1.00  0.00     0.088 A 
HETATM   10  N   UNL     1      67.604   6.286   5.630  1.00  0.00    -0.375 N 
HETATM   11  C   UNL     1      66.956   5.999   4.485  1.00  0.00     0.088 A 
ATOM     12  HN  UNL     1      68.431   5.769   5.924  1.00  0.00     0.164 HD
HETATM   13  C   UNL     1      65.824   6.674   4.047  1.00  0.00     0.029 A 
ENDBRANCH   1   7
BRANCH   3  14
HETATM   14  C   UNL     1      61.416   8.264   1.646  1.00  0.00     0.202 C 
BRANCH  14  15
HETATM   15  O   UNL     1      60.091   8.775   1.661  1.00  0.00    -0.396 OA
HETATM   16  H   UNL     1      59.470   8.072   1.414  1.00  0.00     0.209 HD
ENDBRANCH  14  15
ENDBRANCH   3  14
TORSDOF 3
ENDMDL
MODEL 9
REMARK VINA RESULT:      -4.7      1.853      2.360
REMARK  3 active torsions:
REMARK  status: ('A' for Active; 'I' for Inactive)
REMARK    1  A    between atoms: C_1  and  C_5 
REMARK    2  A    between atoms: C_6  and  C_12 
REMARK    3  A    between atoms: O_7  and  C_12 
ROOT
HETATM    1  C   UNL     1      64.830   7.604   4.851  1.00  0.00    -0.025 A 
HETATM    2  C   UNL     1      65.041   7.435   6.233  1.00  0.00     0.021 A 
HETATM    3  C   UNL     1      66.036   6.581   6.743  1.00  0.00    -0.034 A 
HETATM    4  C   UNL     1      65.682   6.893   3.986  1.00  0.00     0.012 A 
HETATM    5  C   UNL     1      66.690   6.056   4.477  1.00  0.00     0.002 A 
HETATM    6  C   UNL     1      66.863   5.896   5.849  1.00  0.00     0.009 A 
ENDROOT
BRANCH   1   7
HETATM    7  C   UNL     1      63.746   8.477   4.336  1.00  0.00    -0.023 A 
HETATM    8  C   UNL     1      63.077   8.200   3.136  1.00  0.00     0.029 A 
HETATM    9  C   UNL     1      62.064   9.048   2.702  1.00  0.00     0.088 A 
HETATM   10  N   UNL     1      61.674  10.153   3.365  1.00  0.00    -0.375 N 
HETATM   11  C   UNL     1      62.320  10.417   4.517  1.00  0.00     0.088 A 
ATOM     12  HN  UNL     1      60.930  10.756   3.015  1.00  0.00     0.164 HD
HETATM   13  C   UNL     1      63.335   9.623   5.033  1.00  0.00     0.029 A 
ENDBRANCH   1   7
BRANCH   3  14
HETATM   14  C   UNL     1      66.182   6.400   8.230  1.00  0.00     0.202 C 
BRANCH  14  15
HETATM   15  O   UNL     1      66.049   5.031   8.587  1.00  0.00    -0.396 OA
HETATM   16  H   UNL     1      65.528   4.569   7.912  1.00  0.00     0.209 HD
ENDBRANCH  14  15
ENDBRANCH   3  14
TORSDOF 3
ENDMDL
