MODEL 1
REMARK VINA RESULT:      -5.5      0.000      0.000
REMARK  3 active torsions:
REMARK  status: ('A' for Active; 'I' for Inactive)
REMARK    1  A    between atoms: N_1  and  C_2 
REMARK    2  A    between atoms: C_4  and  C_10 
REMARK    3  A    between atoms: N_9  and  C_10 
ROOT
HETATM    1  C   UNL     1      62.927   9.162   4.011  1.00  0.00     0.038 A 
HETATM    2  C   UNL     1      62.487  10.480   4.339  1.00  0.00    -0.006 A 
HETATM    3  C   UNL     1      62.712   8.744   2.676  1.00  0.00     0.030 A 
HETATM    4  C   UNL     1      61.938  11.302   3.320  1.00  0.00     0.011 A 
HETATM    5  C   UNL     1      62.126   9.557   1.699  1.00  0.00     0.002 A 
HETATM    6  C   UNL     1      61.748  10.846   2.019  1.00  0.00     0.001 A 
ENDROOT
BRANCH   1   7
HETATM    7  N   UNL     1      63.462   8.264   4.937  1.00  0.00    -0.377 N 
HETATM    8  C   UNL     1      62.667   7.683   6.033  1.00  0.00     0.150 C 
HETATM    9  C   UNL     1      63.131   6.221   6.248  1.00  0.00     0.254 C 
HETATM   10  N   UNL     1      64.554   6.154   6.654  1.00  0.00    -0.072 N 
HETATM   11  C   UNL     1      65.385   6.861   5.651  1.00  0.00     0.254 C 
HETATM   12  C   UNL     1      64.985   4.764   6.784  1.00  0.00     0.269 C 
HETATM   13  H   UNL     1      64.661   6.606   7.563  1.00  0.00     0.279 HD
HETATM   14  C   UNL     1      64.897   8.294   5.311  1.00  0.00     0.150 C 
ENDBRANCH   1   7
BRANCH   2  15
HETATM   15  C   UNL     1      62.592  11.059   5.738  1.00  0.00     0.270 C 
BRANCH  15  16
HETATM   16  N   UNL     1      63.925  11.513   6.160  1.00  0.00    -0.075 N 
HETATM   17  H   UNL     1      64.572  10.725   6.152  1.00  0.00     0.274 HD
HETATM   18  H   UNL     1      63.870  11.900   7.101  1.00  0.00     0.274 HD
HETATM   19  H   UNL     1      64.258  12.231   5.515  1.00  0.00     0.274 HD
ENDBRANCH  15  16
ENDBRANCH   2  15
TORSDOF 3
ENDMDL
MODEL 2
REMARK VINA RESULT:      -5.3      1.632      2.104
REMARK  3 active torsions:
REMARK  status: ('A' for Active; 'I' for Inactive)
REMARK    1  A    between atoms: N_1  and  C_2 
REMARK    2  A    between atoms: C_4  and  C_10 
REMARK    3  A    between atoms: N_9  and  C_10 
ROOT
HETATM    1  C   UNL     1      63.074   7.984   3.086  1.00  0.00     0.038 A 
HETATM    2  C   UNL     1      62.323   9.122   2.662  1.00  0.00    -0.006 A 
HETATM    3  C   UNL     1      63.207   6.934   2.146  1.00  0.00     0.030 A 
HETATM    4  C   UNL     1      61.825   9.168   1.333  1.00  0.00     0.011 A 
HETATM    5  C   UNL     1      62.666   6.984   0.856  1.00  0.00     0.002 A 
HETATM    6  C   UNL     1      61.983   8.110   0.444  1.00  0.00     0.001 A 
ENDROOT
BRANCH   1   7
HETATM    7  N   UNL     1      63.592   7.826   4.373  1.00  0.00    -0.377 N 
HETATM    8  C   UNL     1      62.793   7.301   5.495  1.00  0.00     0.150 C 
HETATM    9  C   UNL     1      63.715   6.431   6.384  1.00  0.00     0.254 C 
HETATM   10  N   UNL     1      64.820   7.226   6.967  1.00  0.00    -0.072 N 
HETATM   11  C   UNL     1      65.569   7.899   5.879  1.00  0.00     0.254 C 
HETATM   12  C   UNL     1      65.714   6.370   7.744  1.00  0.00     0.269 C 
HETATM   13  H   UNL     1      64.429   7.930   7.594  1.00  0.00     0.279 HD
HETATM   14  C   UNL     1      64.679   8.695   4.887  1.00  0.00     0.150 C 
ENDBRANCH   1   7
BRANCH   2  15
HETATM   15  C   UNL     1      62.041  10.306   3.568  1.00  0.00     0.270 C 
BRANCH  15  16
HETATM   16  N   UNL     1      61.683  11.567   2.904  1.00  0.00    -0.075 N 
HETATM   17  H   UNL     1      61.803  12.342   3.557  1.00  0.00     0.274 HD
HETATM   18  H   UNL     1      60.712  11.527   2.599  1.00  0.00     0.274 HD
HETATM   19  H   UNL     1      62.289  11.709   2.095  1.00  0.00     0.274 HD
ENDBRANCH  15  16
ENDBRANCH   2  15
TORSDOF 3
ENDMDL
MODEL 3
REMARK VINA RESULT:      -5.2      1.017      2.531
REMARK  3 active torsions:
REMARK  status: ('A' for Active; 'I' for Inactive)
REMARK    1  A    between atoms: N_1  and  C_2 
REMARK    2  A    between atoms: C_4  and  C_10 
REMARK    3  A    between atoms: N_9  and  C_10 
ROOT
HETATM    1  C   UNL     1      62.806   9.169   3.929  1.00  0.00     0.038 A 
HETATM    2  C   UNL     1      62.592   8.739   2.584  1.00  0.00    -0.006 A 
HETATM    3  C   UNL     1      62.461  10.510   4.221  1.00  0.00     0.030 A 
HETATM    4  C   UNL     1      61.995   9.634   1.657  1.00  0.00     0.011 A 
HETATM    5  C   UNL     1      61.916  11.388   3.277  1.00  0.00     0.002 A 
HETATM    6  C   UNL     1      61.671  10.944   1.993  1.00  0.00     0.001 A 
ENDROOT
BRANCH   1   7
HETATM    7  N   UNL     1      63.402   8.380   4.914  1.00  0.00    -0.377 N 
HETATM    8  C   UNL     1      62.632   7.737   5.994  1.00  0.00     0.150 C 
HETATM    9  C   UNL     1      63.267   6.356   6.289  1.00  0.00     0.254 C 
HETATM   10  N   UNL     1      64.664   6.488   6.765  1.00  0.00    -0.072 N 
HETATM   11  C   UNL     1      65.450   7.263   5.775  1.00  0.00     0.254 C 
HETATM   12  C   UNL     1      65.263   5.171   6.970  1.00  0.00     0.269 C 
HETATM   13  H   UNL     1      64.665   6.980   7.658  1.00  0.00     0.279 HD
HETATM   14  C   UNL     1      64.800   8.608   5.355  1.00  0.00     0.150 C 
ENDBRANCH   1   7
BRANCH   2  15
HETATM   15  C   UNL     1      62.962   7.351   2.094  1.00  0.00     0.270 C 
BRANCH  15  16
HETATM   16  N   UNL     1      62.029   6.268   2.433  1.00  0.00    -0.075 N 
HETATM   17  H   UNL     1      62.360   5.393   2.024  1.00  0.00     0.274 HD
HETATM   18  H   UNL     1      61.105   6.488   2.063  1.00  0.00     0.274 HD
HETATM   19  H   UNL     1      61.976   6.169   3.447  1.00  0.00     0.274 HD
ENDBRANCH  15  16
ENDBRANCH   2  15
TORSDOF 3
ENDMDL
MODEL 4
REMARK VINA RESULT:      -5.0      1.764      3.146
REMARK  3 active torsions:
REMARK  status: ('A' for Active; 'I' for Inactive)
REMARK    1  A    between atoms: N_1  and  C_2 
REMARK    2  A    between atoms: C_4  and  C_10 
REMARK    3  A    between atoms: N_9  and  C_10 
ROOT
HETATM    1  C   UNL     1      63.624   8.907   4.726  1.00  0.00     0.038 A 
HETATM    2  C   UNL     1      63.061   8.575   3.456  1.00  0.00    -0.006 A 
HETATM    3  C   UNL     1      63.275  10.173   5.254  1.00  0.00     0.030 A 
HETATM    4  C   UNL     1      62.152   9.477   2.844  1.00  0.00     0.011 A 
HETATM    5  C   UNL     1      62.412  11.066   4.608  1.00  0.00     0.002 A 
HETATM    6  C   UNL     1      61.838  10.711   3.404  1.00  0.00     0.001 A 
ENDROOT
BRANCH   1   7
HETATM    7  N   UNL     1      64.541   8.105   5.407  1.00  0.00    -0.377 N 
HETATM    8  C   UNL     1      65.983   8.110   5.103  1.00  0.00     0.150 C 
HETATM    9  C   UNL     1      66.760   7.933   6.431  1.00  0.00     0.254 C 
HETATM   10  N   UNL     1      66.452   6.636   7.076  1.00  0.00    -0.072 N 
HETATM   11  C   UNL     1      64.987   6.518   7.269  1.00  0.00     0.254 C 
HETATM   12  C   UNL     1      67.144   6.523   8.358  1.00  0.00     0.269 C 
HETATM   13  H   UNL     1      66.776   5.880   6.473  1.00  0.00     0.279 HD
HETATM   14  C   UNL     1      64.149   6.799   5.992  1.00  0.00     0.150 C 
ENDBRANCH   1   7
BRANCH   2  15
HETATM   15  C   UNL     1      63.379   7.282   2.728  1.00  0.00     0.270 C 
BRANCH  15  16
HETATM   16  N   UNL     1      62.777   7.115   1.398  1.00  0.00    -0.075 N 
HETATM   17  H   UNL     1      62.920   6.158   1.077  1.00  0.00     0.274 HD
HETATM   18  H   UNL     1      63.215   7.762   0.743  1.00  0.00     0.274 HD
HETATM   19  H   UNL     1      61.777   7.309   1.451  1.00  0.00     0.274 HD
ENDBRANCH  15  16
ENDBRANCH   2  15
TORSDOF 3
ENDMDL
MODEL 5
REMARK VINA RESULT:      -4.9      2.343      4.846
REMARK  3 active torsions:
REMARK  status: ('A' for Active; 'I' for Inactive)
REMARK    1  A    between atoms: N_1  and  C_2 
REMARK    2  A    between atoms: C_4  and  C_10 
REMARK    3  A    between atoms: N_9  and  C_10 
ROOT
HETATM    1  C   UNL     1      63.318   8.021   3.796  1.00  0.00     0.038 A 
HETATM    2  C   UNL     1      63.808   8.940   4.773  1.00  0.00    -0.006 A 
HETATM    3  C   UNL     1      64.195   6.972   3.429  1.00  0.00     0.030 A 
HETATM    4  C   UNL     1      65.082   8.718   5.358  1.00  0.00     0.011 A 
HETATM    5  C   UNL     1      65.467   6.800   3.987  1.00  0.00     0.002 A 
HETATM    6  C   UNL     1      65.907   7.670   4.964  1.00  0.00     0.001 A 
ENDROOT
BRANCH   1   7
HETATM    7  N   UNL     1      62.091   8.154   3.144  1.00  0.00    -0.377 N 
HETATM    8  C   UNL     1      61.869   9.123   2.056  1.00  0.00     0.150 C 
HETATM    9  C   UNL     1      60.916   8.479   1.019  1.00  0.00     0.254 C 
HETATM   10  N   UNL     1      59.593   8.171   1.609  1.00  0.00    -0.072 N 
HETATM   11  C   UNL     1      59.776   7.314   2.805  1.00  0.00     0.254 C 
HETATM   12  C   UNL     1      58.738   7.502   0.631  1.00  0.00     0.269 C 
HETATM   13  H   UNL     1      59.141   9.043   1.884  1.00  0.00     0.279 HD
HETATM   14  C   UNL     1      60.809   7.857   3.829  1.00  0.00     0.150 C 
ENDBRANCH   1   7
BRANCH   2  15
HETATM   15  C   UNL     1      63.016  10.151   5.233  1.00  0.00     0.270 C 
BRANCH  15  16
HETATM   16  N   UNL     1      63.737  11.128   6.061  1.00  0.00    -0.075 N 
HETATM   17  H   UNL     1      64.656  10.757   6.303  1.00  0.00     0.274 HD
HETATM   18  H   UNL     1      63.207  11.308   6.913  1.00  0.00     0.274 HD
HETATM   19  H   UNL     1      63.850  11.998   5.539  1.00  0.00     0.274 HD
ENDBRANCH  15  16
ENDBRANCH   2  15
TORSDOF 3
ENDMDL
MODEL 6
REMARK VINA RESULT:      -4.5      1.498      2.032
REMARK  3 active torsions:
REMARK  status: ('A' for Active; 'I' for Inactive)
REMARK    1  A    between atoms: N_1  and  C_2 
REMARK    2  A    between atoms: C_4  and  C_10 
REMARK    3  A    between atoms: N_9  and  C_10 
ROOT
HETATM    1  C   UNL     1      63.224   7.922   3.330  1.00  0.00     0.038 A 
HETATM    2  C   UNL     1      62.832   9.209   3.810  1.00  0.00    -0.006 A 
HETATM    3  C   UNL     1      62.809   7.590   2.019  1.00  0.00     0.030 A 
HETATM    4  C   UNL     1      62.129  10.087   2.945  1.00  0.00     0.011 A 
HETATM    5  C   UNL     1      62.075   8.456   1.201  1.00  0.00     0.002 A 
HETATM    6  C   UNL     1      61.744   9.715   1.661  1.00  0.00     0.001 A 
ENDROOT
BRANCH   1   7
HETATM    7  N   UNL     1      63.900   6.974   4.101  1.00  0.00    -0.377 N 
HETATM    8  C   UNL     1      65.367   6.836   4.088  1.00  0.00     0.150 C 
HETATM    9  C   UNL     1      65.835   6.478   5.520  1.00  0.00     0.254 C 
HETATM   10  N   UNL     1      65.276   5.181   5.968  1.00  0.00    -0.072 N 
HETATM   11  C   UNL     1      63.799   5.218   5.858  1.00  0.00     0.254 C 
HETATM   12  C   UNL     1      65.676   4.900   7.345  1.00  0.00     0.269 C 
HETATM   13  H   UNL     1      65.642   4.438   5.373  1.00  0.00     0.279 HD
HETATM   14  C   UNL     1      63.272   5.682   4.473  1.00  0.00     0.150 C 
ENDBRANCH   1   7
BRANCH   2  15
HETATM   15  C   UNL     1      63.148   9.695   5.213  1.00  0.00     0.270 C 
BRANCH  15  16
HETATM   16  N   UNL     1      62.689   8.843   6.319  1.00  0.00    -0.075 N 
HETATM   17  H   UNL     1      61.714   8.585   6.168  1.00  0.00     0.274 HD
HETATM   18  H   UNL     1      62.773   9.353   7.198  1.00  0.00     0.274 HD
HETATM   19  H   UNL     1      63.261   7.999   6.359  1.00  0.00     0.274 HD
ENDBRANCH  15  16
ENDBRANCH   2  15
TORSDOF 3
ENDMDL
MODEL 7
REMARK VINA RESULT:      -4.4      1.497      5.456
REMARK  3 active torsions:
REMARK  status: ('A' for Active; 'I' for Inactive)
REMARK    1  A    between atoms: N_1  and  C_2 
REMARK    2  A    between atoms: C_4  and  C_10 
REMARK    3  A    between atoms: N_9  and  C_10 
ROOT
HETATM    1  C   UNL     1      64.301   8.012   5.344  1.00  0.00     0.038 A 
HETATM    2  C   UNL     1      63.934   6.895   6.156  1.00  0.00    -0.006 A 
HETATM    3  C   UNL     1      65.667   8.382   5.367  1.00  0.00     0.030 A 
HETATM    4  C   UNL     1      64.944   6.193   6.865  1.00  0.00     0.011 A 
HETATM    5  C   UNL     1      66.636   7.701   6.112  1.00  0.00     0.002 A 
HETATM    6  C   UNL     1      66.275   6.595   6.855  1.00  0.00     0.001 A 
ENDROOT
BRANCH   1   7
HETATM    7  N   UNL     1      63.389   8.785   4.622  1.00  0.00    -0.377 N 
HETATM    8  C   UNL     1      62.569   9.839   5.246  1.00  0.00     0.150 C 
HETATM    9  C   UNL     1      62.427  11.005   4.236  1.00  0.00     0.254 C 
HETATM   10  N   UNL     1      61.728  10.577   3.003  1.00  0.00    -0.072 N 
HETATM   11  C   UNL     1      62.435   9.415   2.414  1.00  0.00     0.254 C 
HETATM   12  C   UNL     1      61.668  11.675   2.040  1.00  0.00     0.269 C 
HETATM   13  H   UNL     1      60.772  10.308   3.238  1.00  0.00     0.279 HD
HETATM   14  C   UNL     1      62.708   8.259   3.414  1.00  0.00     0.150 C 
ENDBRANCH   1   7
BRANCH   2  15
HETATM   15  C   UNL     1      62.503   6.407   6.286  1.00  0.00     0.270 C 
BRANCH  15  16
HETATM   16  N   UNL     1      62.129   5.249   5.463  1.00  0.00    -0.075 N 
HETATM   17  H   UNL     1      62.863   4.543   5.516  1.00  0.00     0.274 HD
HETATM   18  H   UNL     1      62.010   5.545   4.495  1.00  0.00     0.274 HD
HETATM   19  H   UNL     1      61.254   4.854   5.809  1.00  0.00     0.274 HD
ENDBRANCH  15  16
ENDBRANCH   2  15
TORSDOF 3
ENDMDL
MODEL 8
REMARK VINA RESULT:      -4.4      2.141      5.938
REMARK  3 active torsions:
REMARK  status: ('A' for Active; 'I' for Inactive)
REMARK    1  A    between atoms: N_1  and  C_2 
REMARK    2  A    between atoms: C_4  and  C_10 
REMARK    3  A    between atoms: N_9  and  C_10 
ROOT
HETATM    1  C   UNL     1      65.607   6.854   6.125  1.00  0.00     0.038 A 
HETATM    2  C   UNL     1      66.554   6.176   5.299  1.00  0.00    -0.006 A 
HETATM    3  C   UNL     1      65.882   6.867   7.514  1.00  0.00     0.030 A 
HETATM    4  C   UNL     1      67.722   5.628   5.890  1.00  0.00     0.011 A 
HETATM    5  C   UNL     1      67.020   6.279   8.078  1.00  0.00     0.002 A 
HETATM    6  C   UNL     1      67.950   5.667   7.262  1.00  0.00     0.001 A 
ENDROOT
BRANCH   1   7
HETATM    7  N   UNL     1      64.417   7.411   5.653  1.00  0.00    -0.377 N 
HETATM    8  C   UNL     1      64.342   8.772   5.091  1.00  0.00     0.150 C 
HETATM    9  C   UNL     1      63.321   8.761   3.927  1.00  0.00     0.254 C 
HETATM   10  N   UNL     1      61.962   8.406   4.396  1.00  0.00    -0.072 N 
HETATM   11  C   UNL     1      62.011   7.105   5.105  1.00  0.00     0.254 C 
HETATM   12  C   UNL     1      61.033   8.335   3.271  1.00  0.00     0.269 C 
HETATM   13  H   UNL     1      61.632   9.128   5.037  1.00  0.00     0.279 HD
HETATM   14  C   UNL     1      63.099   7.019   6.210  1.00  0.00     0.150 C 
ENDBRANCH   1   7
BRANCH   2  15
HETATM   15  C   UNL     1      66.377   6.022   3.800  1.00  0.00     0.270 C 
BRANCH  15  16
HETATM   16  N   UNL     1      67.371   5.193   3.105  1.00  0.00    -0.075 N 
HETATM   17  H   UNL     1      68.303   5.578   3.259  1.00  0.00     0.274 HD
HETATM   18  H   UNL     1      67.168   5.184   2.106  1.00  0.00     0.274 HD
HETATM   19  H   UNL     1      67.333   4.240   3.469  1.00  0.00     0.274 HD
ENDBRANCH  15  16
ENDBRANCH   2  15
TORSDOF 3
ENDMDL
MODEL 9
REMARK VINA RESULT:      -4.2      2.699      4.226
REMARK  3 active torsions:
REMARK  status: ('A' for Active; 'I' for Inactive)
REMARK    1  A    between atoms: N_1  and  C_2 
REMARK    2  A    between atoms: C_4  and  C_10 
REMARK    3  A    between atoms: N_9  and  C_10 
ROOT
HETATM    1  C   UNL     1      62.331   8.822   3.144  1.00  0.00     0.038 A 
HETATM    2  C   UNL     1      62.953   8.783   4.429  1.00  0.00    -0.006 A 
HETATM    3  C   UNL     1      61.799  10.071   2.743  1.00  0.00     0.030 A 
HETATM    4  C   UNL     1      63.063   9.981   5.182  1.00  0.00     0.011 A 
HETATM    5  C   UNL     1      61.879  11.229   3.525  1.00  0.00     0.002 A 
HETATM    6  C   UNL     1      62.525  11.187   4.744  1.00  0.00     0.001 A 
ENDROOT
BRANCH   1   7
HETATM    7  N   UNL     1      62.152   7.703   2.329  1.00  0.00    -0.377 N 
HETATM    8  C   UNL     1      62.582   7.666   0.919  1.00  0.00     0.150 C 
HETATM    9  C   UNL     1      63.100   6.241   0.606  1.00  0.00     0.254 C 
HETATM   10  N   UNL     1      62.033   5.226   0.765  1.00  0.00    -0.072 N 
HETATM   11  C   UNL     1      61.462   5.323   2.130  1.00  0.00     0.254 C 
HETATM   12  C   UNL     1      62.563   3.884   0.531  1.00  0.00     0.269 C 
HETATM   13  H   UNL     1      61.300   5.403   0.078  1.00  0.00     0.279 HD
HETATM   14  C   UNL     1      61.030   6.756   2.542  1.00  0.00     0.150 C 
ENDBRANCH   1   7
BRANCH   2  15
HETATM   15  C   UNL     1      63.522   7.511   5.030  1.00  0.00     0.270 C 
BRANCH  15  16
HETATM   16  N   UNL     1      63.603   7.459   6.496  1.00  0.00    -0.075 N 
HETATM   17  H   UNL     1      63.035   6.685   6.841  1.00  0.00     0.274 HD
HETATM   18  H   UNL     1      63.257   8.335   6.886  1.00  0.00     0.274 HD
HETATM   19  H   UNL     1      64.573   7.319   6.778  1.00  0.00     0.274 HD
ENDBRANCH  15  16
ENDBRANCH   2  15
TORSDOF 3
ENDMDL
