MODEL 1
REMARK VINA RESULT:      -5.3      0.000      0.000
REMARK  3 active torsions:
REMARK  status: ('A' for Active; 'I' for Inactive)
REMARK    1  A    between atoms: C_1  and  C_5 
REMARK    2  A    between atoms: C_9  and  C_13 
REMARK    3  A    between atoms: N_10  and  C_13 
ROOT
HETATM    1  C   UNL     1      63.426   9.057   4.725  1.00  0.00    -0.002 A 
HETATM    2  C   UNL     1      62.965   8.719   3.443  1.00  0.00     0.023 A 
HETATM    3  C   UNL     1      62.161   9.596   2.693  1.00  0.00    -0.032 A 
HETATM    4  C   UNL     1      63.077  10.312   5.246  1.00  0.00     0.014 A 
HETATM    5  C   UNL     1      62.303  11.205   4.501  1.00  0.00     0.002 A 
HETATM    6  C   UNL     1      61.845  10.848   3.233  1.00  0.00     0.009 A 
ENDROOT
BRANCH   1   7
HETATM    7  C   UNL     1      64.220   8.125   5.545  1.00  0.00     0.084 A 
HETATM    8  N   UNL     1      65.465   8.342   5.927  1.00  0.00    -0.359 N 
HETATM    9  C   UNL     1      65.912   7.297   6.711  1.00  0.00     0.096 A 
ATOM     10  HN  UNL     1      66.017   9.163   5.678  1.00  0.00     0.166 HD
HETATM   11  C   UNL     1      65.020   6.265   6.892  1.00  0.00     0.069 A 
HETATM   12  S   UNL     1      63.566   6.610   6.060  1.00  0.00    -0.082 SA
ENDBRANCH   1   7
BRANCH   3  13
HETATM   13  C   UNL     1      61.652   9.184   1.329  1.00  0.00     0.270 C 
BRANCH  13  14
HETATM   14  N   UNL     1      60.231   8.838   1.375  1.00  0.00    -0.075 N 
HETATM   15  C   UNL     1      59.901   7.825   0.386  1.00  0.00     0.267 C 
HETATM   16  H   UNL     1      59.679   9.676   1.190  1.00  0.00     0.277 HD
HETATM   17  H   UNL     1      60.021   8.466   2.301  1.00  0.00     0.277 HD
ENDBRANCH  13  14
ENDBRANCH   3  13
TORSDOF 3
ENDMDL
MODEL 2
REMARK VINA RESULT:      -5.1      1.020      1.107
REMARK  3 active torsions:
REMARK  status: ('A' for Active; 'I' for Inactive)
REMARK    1  A    between atoms: C_1  and  C_5 
REMARK    2  A    between atoms: C_9  and  C_13 
REMARK    3  A    between atoms: N_10  and  C_13 
ROOT
HETATM    1  C   UNL     1      63.589   8.884   4.708  1.00  0.00    -0.002 A 
HETATM    2  C   UNL     1      63.132   8.489   3.440  1.00  0.00     0.023 A 
HETATM    3  C   UNL     1      62.253   9.290   2.690  1.00  0.00    -0.032 A 
HETATM    4  C   UNL     1      63.157  10.119   5.213  1.00  0.00     0.014 A 
HETATM    5  C   UNL     1      62.306  10.939   4.467  1.00  0.00     0.002 A 
HETATM    6  C   UNL     1      61.855  10.525   3.213  1.00  0.00     0.009 A 
ENDROOT
BRANCH   1   7
HETATM    7  C   UNL     1      64.463   8.028   5.529  1.00  0.00     0.084 A 
HETATM    8  N   UNL     1      64.073   7.390   6.617  1.00  0.00    -0.359 N 
HETATM    9  C   UNL     1      65.116   6.648   7.134  1.00  0.00     0.096 A 
ATOM     10  HN  UNL     1      63.136   7.439   7.018  1.00  0.00     0.166 HD
HETATM   11  C   UNL     1      66.312   6.753   6.462  1.00  0.00     0.069 A 
HETATM   12  S   UNL     1      66.131   7.812   5.131  1.00  0.00    -0.082 SA
ENDBRANCH   1   7
BRANCH   3  13
HETATM   13  C   UNL     1      61.753   8.816   1.343  1.00  0.00     0.270 C 
BRANCH  13  14
HETATM   14  N   UNL     1      60.309   9.016   1.213  1.00  0.00    -0.075 N 
HETATM   15  C   UNL     1      59.593   7.751   1.270  1.00  0.00     0.267 C 
HETATM   16  H   UNL     1      60.115   9.467   0.320  1.00  0.00     0.277 HD
HETATM   17  H   UNL     1      59.994   9.599   1.987  1.00  0.00     0.277 HD
ENDBRANCH  13  14
ENDBRANCH   3  13
TORSDOF 3
ENDMDL
MODEL 3
REMARK VINA RESULT:      -4.6      1.992      2.917
REMARK  3 active torsions:
REMARK  status: ('A' for Active; 'I' for Inactive)
REMARK    1  A    between atoms: C_1  and  C_5 
REMARK    2  A    between atoms: C_9  and  C_13 
REMARK    3  A    between atoms: N_10  and  C_13 
ROOT
HETATM    1  C   UNL     1      64.143   7.455   5.327  1.00  0.00    -0.002 A 
HETATM    2  C   UNL     1      63.746   8.782   5.102  1.00  0.00     0.023 A 
HETATM    3  C   UNL     1      62.600   9.092   4.348  1.00  0.00    -0.032 A 
HETATM    4  C   UNL     1      63.355   6.427   4.789  1.00  0.00     0.014 A 
HETATM    5  C   UNL     1      62.198   6.718   4.061  1.00  0.00     0.002 A 
HETATM    6  C   UNL     1      61.825   8.045   3.840  1.00  0.00     0.009 A 
ENDROOT
BRANCH   1   7
HETATM    7  C   UNL     1      65.373   7.118   6.065  1.00  0.00     0.084 A 
HETATM    8  N   UNL     1      65.470   7.094   7.382  1.00  0.00    -0.359 N 
HETATM    9  C   UNL     1      66.740   6.708   7.760  1.00  0.00     0.096 A 
ATOM     10  HN  UNL     1      64.714   7.328   8.027  1.00  0.00     0.166 HD
HETATM   11  C   UNL     1      67.623   6.477   6.730  1.00  0.00     0.069 A 
HETATM   12  S   UNL     1      66.841   6.744   5.233  1.00  0.00    -0.082 SA
ENDBRANCH   1   7
BRANCH   3  13
HETATM   13  C   UNL     1      62.222  10.536   4.096  1.00  0.00     0.270 C 
BRANCH  13  14
HETATM   14  N   UNL     1      61.361  10.660   2.919  1.00  0.00    -0.075 N 
HETATM   15  C   UNL     1      61.809  11.736   2.048  1.00  0.00     0.267 C 
HETATM   16  H   UNL     1      60.408  10.856   3.225  1.00  0.00     0.277 HD
HETATM   17  H   UNL     1      61.400   9.786   2.398  1.00  0.00     0.277 HD
ENDBRANCH  13  14
ENDBRANCH   3  13
TORSDOF 3
ENDMDL
MODEL 4
REMARK VINA RESULT:      -4.5      1.615      1.686
REMARK  3 active torsions:
REMARK  status: ('A' for Active; 'I' for Inactive)
REMARK    1  A    between atoms: C_1  and  C_5 
REMARK    2  A    between atoms: C_9  and  C_13 
REMARK    3  A    between atoms: N_10  and  C_13 
ROOT
HETATM    1  C   UNL     1      63.834   8.571   4.637  1.00  0.00    -0.002 A 
HETATM    2  C   UNL     1      63.415   8.123   3.374  1.00  0.00     0.023 A 
HETATM    3  C   UNL     1      62.496   8.853   2.599  1.00  0.00    -0.032 A 
HETATM    4  C   UNL     1      63.321   9.786   5.113  1.00  0.00     0.014 A 
HETATM    5  C   UNL     1      62.429  10.537   4.342  1.00  0.00     0.002 A 
HETATM    6  C   UNL     1      62.017  10.071   3.094  1.00  0.00     0.009 A 
ENDROOT
BRANCH   1   7
HETATM    7  C   UNL     1      64.750   7.787   5.483  1.00  0.00     0.084 A 
HETATM    8  N   UNL     1      64.432   7.287   6.663  1.00  0.00    -0.359 N 
HETATM    9  C   UNL     1      65.496   6.577   7.183  1.00  0.00     0.096 A 
ATOM     10  HN  UNL     1      63.530   7.407   7.124  1.00  0.00     0.166 HD
HETATM   11  C   UNL     1      66.638   6.570   6.416  1.00  0.00     0.069 A 
HETATM   12  S   UNL     1      66.378   7.478   4.990  1.00  0.00    -0.082 SA
ENDBRANCH   1   7
BRANCH   3  13
HETATM   13  C   UNL     1      62.040   8.323   1.258  1.00  0.00     0.270 C 
BRANCH  13  14
HETATM   14  N   UNL     1      62.069   6.860   1.229  1.00  0.00    -0.075 N 
HETATM   15  C   UNL     1      62.986   6.369   0.212  1.00  0.00     0.267 C 
HETATM   16  H   UNL     1      61.131   6.513   1.026  1.00  0.00     0.277 HD
HETATM   17  H   UNL     1      62.387   6.526   2.138  1.00  0.00     0.277 HD
ENDBRANCH  13  14
ENDBRANCH   3  13
TORSDOF 3
ENDMDL
MODEL 5
REMARK VINA RESULT:      -4.5      1.796      5.586
REMARK  3 active torsions:
REMARK  status: ('A' for Active; 'I' for Inactive)
REMARK    1  A    between atoms: C_1  and  C_5 
REMARK    2  A    between atoms: C_9  and  C_13 
REMARK    3  A    between atoms: N_10  and  C_13 
ROOT
HETATM    1  C   UNL     1      61.795   8.794   3.179  1.00  0.00    -0.002 A 
HETATM    2  C   UNL     1      62.907   8.042   3.591  1.00  0.00     0.023 A 
HETATM    3  C   UNL     1      63.841   8.550   4.512  1.00  0.00    -0.032 A 
HETATM    4  C   UNL     1      61.623  10.075   3.722  1.00  0.00     0.014 A 
HETATM    5  C   UNL     1      62.527  10.582   4.660  1.00  0.00     0.002 A 
HETATM    6  C   UNL     1      63.632   9.824   5.049  1.00  0.00     0.009 A 
ENDROOT
BRANCH   1   7
HETATM    7  C   UNL     1      60.842   8.297   2.171  1.00  0.00     0.084 A 
HETATM    8  N   UNL     1      60.926   8.548   0.878  1.00  0.00    -0.359 N 
HETATM    9  C   UNL     1      59.904   7.911   0.201  1.00  0.00     0.096 A 
ATOM     10  HN  UNL     1      61.641   9.129   0.441  1.00  0.00     0.166 HD
HETATM   11  C   UNL     1      59.019   7.208   0.985  1.00  0.00     0.069 A 
HETATM   12  S   UNL     1      59.478   7.338   2.628  1.00  0.00    -0.082 SA
ENDBRANCH   1   7
BRANCH   3  13
HETATM   13  C   UNL     1      65.047   7.726   4.906  1.00  0.00     0.270 C 
BRANCH  13  14
HETATM   14  N   UNL     1      65.317   7.834   6.340  1.00  0.00    -0.075 N 
HETATM   15  C   UNL     1      66.706   8.183   6.592  1.00  0.00     0.267 C 
HETATM   16  H   UNL     1      65.114   6.938   6.785  1.00  0.00     0.277 HD
HETATM   17  H   UNL     1      64.725   8.569   6.725  1.00  0.00     0.277 HD
ENDBRANCH  13  14
ENDBRANCH   3  13
TORSDOF 3
ENDMDL
MODEL 6
REMARK VINA RESULT:      -4.4      2.596      6.409
REMARK  3 active torsions:
REMARK  status: ('A' for Active; 'I' for Inactive)
REMARK    1  A    between atoms: C_1  and  C_5 
REMARK    2  A    between atoms: C_9  and  C_13 
REMARK    3  A    between atoms: N_10  and  C_13 
ROOT
HETATM    1  C   UNL     1      65.189   7.514   4.741  1.00  0.00    -0.002 A 
HETATM    2  C   UNL     1      66.006   7.309   5.864  1.00  0.00     0.023 A 
HETATM    3  C   UNL     1      66.958   6.274   5.904  1.00  0.00    -0.032 A 
HETATM    4  C   UNL     1      65.351   6.663   3.638  1.00  0.00     0.014 A 
HETATM    5  C   UNL     1      66.312   5.648   3.653  1.00  0.00     0.002 A 
HETATM    6  C   UNL     1      67.109   5.454   4.782  1.00  0.00     0.009 A 
ENDROOT
BRANCH   1   7
HETATM    7  C   UNL     1      64.148   8.557   4.708  1.00  0.00     0.084 A 
HETATM    8  N   UNL     1      64.046   9.536   5.587  1.00  0.00    -0.359 N 
HETATM    9  C   UNL     1      62.990  10.364   5.259  1.00  0.00     0.096 A 
ATOM     10  HN  UNL     1      64.659   9.664   6.393  1.00  0.00     0.166 HD
HETATM   11  C   UNL     1      62.264   9.990   4.152  1.00  0.00     0.069 A 
HETATM   12  S   UNL     1      62.922   8.557   3.490  1.00  0.00    -0.082 SA
ENDBRANCH   1   7
BRANCH   3  13
HETATM   13  C   UNL     1      67.798   6.061   7.145  1.00  0.00     0.270 C 
BRANCH  13  14
HETATM   14  N   UNL     1      66.987   5.560   8.254  1.00  0.00    -0.075 N 
HETATM   15  C   UNL     1      66.908   6.532   9.333  1.00  0.00     0.267 C 
HETATM   16  H   UNL     1      67.406   4.701   8.611  1.00  0.00     0.277 HD
HETATM   17  H   UNL     1      66.044   5.384   7.910  1.00  0.00     0.277 HD
ENDBRANCH  13  14
ENDBRANCH   3  13
TORSDOF 3
ENDMDL
MODEL 7
REMARK VINA RESULT:      -4.4     10.201     12.076
REMARK  3 active torsions:
REMARK  status: ('A' for Active; 'I' for Inactive)
REMARK    1  A    between atoms: C_1  and  C_5 
REMARK    2  A    between atoms: C_9  and  C_13 
REMARK    3  A    between atoms: N_10  and  C_13 
ROOT
HETATM    1  C   UNL     1      58.266   2.587  11.626  1.00  0.00    -0.002 A 
HETATM    2  C   UNL     1      56.950   2.585  12.115  1.00  0.00     0.023 A 
HETATM    3  C   UNL     1      56.629   2.034  13.369  1.00  0.00    -0.032 A 
HETATM    4  C   UNL     1      59.272   2.032  12.430  1.00  0.00     0.014 A 
HETATM    5  C   UNL     1      58.974   1.506  13.689  1.00  0.00     0.002 A 
HETATM    6  C   UNL     1      57.658   1.505  14.154  1.00  0.00     0.009 A 
ENDROOT
BRANCH   1   7
HETATM    7  C   UNL     1      58.606   3.109  10.291  1.00  0.00     0.084 A 
HETATM    8  N   UNL     1      58.626   4.390   9.973  1.00  0.00    -0.359 N 
HETATM    9  C   UNL     1      59.016   4.550   8.658  1.00  0.00     0.096 A 
ATOM     10  HN  UNL     1      58.388   5.152  10.608  1.00  0.00     0.166 HD
HETATM   11  C   UNL     1      59.254   3.387   7.963  1.00  0.00     0.069 A 
HETATM   12  S   UNL     1      58.988   2.042   8.985  1.00  0.00    -0.082 SA
ENDBRANCH   1   7
BRANCH   3  13
HETATM   13  C   UNL     1      55.194   2.018  13.848  1.00  0.00     0.270 C 
BRANCH  13  14
HETATM   14  N   UNL     1      54.918   3.151  14.731  1.00  0.00    -0.075 N 
HETATM   15  C   UNL     1      54.393   4.285  13.987  1.00  0.00     0.267 C 
HETATM   16  H   UNL     1      55.783   3.430  15.195  1.00  0.00     0.277 HD
HETATM   17  H   UNL     1      54.219   2.863  15.416  1.00  0.00     0.277 HD
ENDBRANCH  13  14
ENDBRANCH   3  13
TORSDOF 3
ENDMDL
MODEL 8
REMARK VINA RESULT:      -4.2      3.346      4.313
REMARK  3 active torsions:
REMARK  status: ('A' for Active; 'I' for Inactive)
REMARK    1  A    between atoms: C_1  and  C_5 
REMARK    2  A    between atoms: C_9  and  C_13 
REMARK    3  A    between atoms: N_10  and  C_13 
ROOT
HETATM    1  C   UNL     1      65.346   6.929   6.637  1.00  0.00    -0.002 A 
HETATM    2  C   UNL     1      64.018   6.485   6.538  1.00  0.00     0.023 A 
HETATM    3  C   UNL     1      63.080   7.138   5.717  1.00  0.00    -0.032 A 
HETATM    4  C   UNL     1      65.729   8.046   5.880  1.00  0.00     0.014 A 
HETATM    5  C   UNL     1      64.816   8.688   5.038  1.00  0.00     0.002 A 
HETATM    6  C   UNL     1      63.498   8.237   4.960  1.00  0.00     0.009 A 
ENDROOT
BRANCH   1   7
HETATM    7  C   UNL     1      66.322   6.291   7.537  1.00  0.00     0.084 A 
HETATM    8  N   UNL     1      67.186   6.949   8.287  1.00  0.00    -0.359 N 
HETATM    9  C   UNL     1      67.934   6.065   9.040  1.00  0.00     0.096 A 
ATOM     10  HN  UNL     1      67.287   7.964   8.308  1.00  0.00     0.166 HD
HETATM   11  C   UNL     1      67.666   4.732   8.832  1.00  0.00     0.069 A 
HETATM   12  S   UNL     1      66.433   4.570   7.658  1.00  0.00    -0.082 SA
ENDBRANCH   1   7
BRANCH   3  13
HETATM   13  C   UNL     1      61.648   6.652   5.662  1.00  0.00     0.270 C 
BRANCH  13  14
HETATM   14  N   UNL     1      61.402   5.615   6.664  1.00  0.00    -0.075 N 
HETATM   15  C   UNL     1      60.143   5.838   7.357  1.00  0.00     0.267 C 
HETATM   16  H   UNL     1      62.161   5.622   7.344  1.00  0.00     0.277 HD
HETATM   17  H   UNL     1      61.353   4.713   6.189  1.00  0.00     0.277 HD
ENDBRANCH  13  14
ENDBRANCH   3  13
TORSDOF 3
ENDMDL
MODEL 9
REMARK VINA RESULT:      -4.1     12.518     13.473
REMARK  3 active torsions:
REMARK  status: ('A' for Active; 'I' for Inactive)
REMARK    1  A    between atoms: C_1  and  C_5 
REMARK    2  A    between atoms: C_9  and  C_13 
REMARK    3  A    between atoms: N_10  and  C_13 
ROOT
HETATM    1  C   UNL     1      55.636   2.795  12.807  1.00  0.00    -0.002 A 
HETATM    2  C   UNL     1      54.848   3.578  13.666  1.00  0.00     0.023 A 
HETATM    3  C   UNL     1      53.602   4.091  13.261  1.00  0.00    -0.032 A 
HETATM    4  C   UNL     1      55.144   2.519  11.523  1.00  0.00     0.014 A 
HETATM    5  C   UNL     1      53.896   2.998  11.116  1.00  0.00     0.002 A 
HETATM    6  C   UNL     1      53.131   3.782  11.980  1.00  0.00     0.009 A 
ENDROOT
BRANCH   1   7
HETATM    7  C   UNL     1      56.968   2.301  13.198  1.00  0.00     0.084 A 
HETATM    8  N   UNL     1      57.269   1.836  14.396  1.00  0.00    -0.359 N 
HETATM    9  C   UNL     1      58.585   1.420  14.430  1.00  0.00     0.096 A 
ATOM     10  HN  UNL     1      56.622   1.790  15.184  1.00  0.00     0.166 HD
HETATM   11  C   UNL     1      59.298   1.607  13.268  1.00  0.00     0.069 A 
HETATM   12  S   UNL     1      58.290   2.321  12.085  1.00  0.00    -0.082 SA
ENDBRANCH   1   7
BRANCH   3  13
HETATM   13  C   UNL     1      52.795   4.960  14.200  1.00  0.00     0.270 C 
BRANCH  13  14
HETATM   14  N   UNL     1      53.649   5.923  14.896  1.00  0.00    -0.075 N 
HETATM   15  C   UNL     1      52.926   7.148  15.200  1.00  0.00     0.267 C 
HETATM   16  H   UNL     1      54.449   6.147  14.304  1.00  0.00     0.277 HD
HETATM   17  H   UNL     1      53.958   5.505  15.773  1.00  0.00     0.277 HD
ENDBRANCH  13  14
ENDBRANCH   3  13
TORSDOF 3
ENDMDL
