MODEL 1
REMARK VINA RESULT:      -5.8      0.000      0.000
REMARK  3 active torsions:
REMARK  status: ('A' for Active; 'I' for Inactive)
REMARK    1  A    between atoms: N_1  and  C_2 
REMARK    2  A    between atoms: C_4  and  C_9 
REMARK    3  A    between atoms: C_9  and  O_11 
ROOT
HETATM    1  C   UNL     1      63.206   9.163   4.101  1.00  0.00     0.038 A 
HETATM    2  C   UNL     1      62.742  10.431   4.550  1.00  0.00    -0.008 A 
HETATM    3  C   UNL     1      62.787   8.767   2.805  1.00  0.00     0.030 A 
HETATM    4  C   UNL     1      61.994  11.255   3.676  1.00  0.00     0.011 A 
HETATM    5  C   UNL     1      61.995   9.570   1.979  1.00  0.00     0.002 A 
HETATM    6  C   UNL     1      61.611  10.827   2.410  1.00  0.00     0.001 A 
ENDROOT
BRANCH   1   7
HETATM    7  N   UNL     1      63.945   8.279   4.893  1.00  0.00    -0.377 N 
HETATM    8  C   UNL     1      65.419   8.215   4.824  1.00  0.00     0.150 C 
HETATM    9  C   UNL     1      65.961   7.873   6.235  1.00  0.00     0.254 C 
HETATM   10  N   UNL     1      65.480   6.551   6.701  1.00  0.00    -0.072 N 
HETATM   11  C   UNL     1      63.999   6.514   6.644  1.00  0.00     0.254 C 
HETATM   12  C   UNL     1      65.936   6.289   8.066  1.00  0.00     0.269 C 
HETATM   13  H   UNL     1      65.861   5.829   6.091  1.00  0.00     0.279 HD
HETATM   14  C   UNL     1      63.400   6.955   5.282  1.00  0.00     0.150 C 
ENDBRANCH   1   7
BRANCH   2  15
HETATM   15  C   UNL     1      63.001  10.960   5.944  1.00  0.00     0.205 C 
BRANCH  15  16
HETATM   16  O   UNL     1      64.352  11.374   6.148  1.00  0.00    -0.396 OA
HETATM   17  H   UNL     1      64.760  11.581   5.294  1.00  0.00     0.209 HD
ENDBRANCH  15  16
ENDBRANCH   2  15
TORSDOF 3
ENDMDL
MODEL 2
REMARK VINA RESULT:      -5.6      1.164      1.849
REMARK  3 active torsions:
REMARK  status: ('A' for Active; 'I' for Inactive)
REMARK    1  A    between atoms: N_1  and  C_2 
REMARK    2  A    between atoms: C_4  and  C_9 
REMARK    3  A    between atoms: C_9  and  O_11 
ROOT
HETATM    1  C   UNL     1      63.056   8.598   3.555  1.00  0.00     0.038 A 
HETATM    2  C   UNL     1      62.429   9.872   3.453  1.00  0.00    -0.008 A 
HETATM    3  C   UNL     1      62.937   7.751   2.424  1.00  0.00     0.030 A 
HETATM    4  C   UNL     1      61.825  10.262   2.233  1.00  0.00     0.011 A 
HETATM    5  C   UNL     1      62.282   8.131   1.249  1.00  0.00     0.002 A 
HETATM    6  C   UNL     1      61.738   9.398   1.147  1.00  0.00     0.001 A 
ENDROOT
BRANCH   1   7
HETATM    7  N   UNL     1      63.671   8.125   4.718  1.00  0.00    -0.377 N 
HETATM    8  C   UNL     1      62.889   7.585   5.849  1.00  0.00     0.150 C 
HETATM    9  C   UNL     1      63.715   6.458   6.520  1.00  0.00     0.254 C 
HETATM   10  N   UNL     1      64.995   6.967   7.067  1.00  0.00    -0.072 N 
HETATM   11  C   UNL     1      65.753   7.656   5.995  1.00  0.00     0.254 C 
HETATM   12  C   UNL     1      65.792   5.872   7.619  1.00  0.00     0.269 C 
HETATM   13  H   UNL     1      64.793   7.627   7.817  1.00  0.00     0.279 HD
HETATM   14  C   UNL     1      64.935   8.722   5.216  1.00  0.00     0.150 C 
ENDBRANCH   1   7
BRANCH   2  15
HETATM   15  C   UNL     1      62.362  10.855   4.601  1.00  0.00     0.205 C 
BRANCH  15  16
HETATM   16  O   UNL     1      62.047  12.185   4.188  1.00  0.00    -0.396 OA
HETATM   17  H   UNL     1      61.408  12.155   3.459  1.00  0.00     0.209 HD
ENDBRANCH  15  16
ENDBRANCH   2  15
TORSDOF 3
ENDMDL
MODEL 3
REMARK VINA RESULT:      -5.0      1.953      2.931
REMARK  3 active torsions:
REMARK  status: ('A' for Active; 'I' for Inactive)
REMARK    1  A    between atoms: N_1  and  C_2 
REMARK    2  A    between atoms: C_4  and  C_9 
REMARK    3  A    between atoms: C_9  and  O_11 
ROOT
HETATM    1  C   UNL     1      62.880   8.970   3.802  1.00  0.00     0.038 A 
HETATM    2  C   UNL     1      62.719   8.378   2.517  1.00  0.00    -0.008 A 
HETATM    3  C   UNL     1      62.452  10.316   3.928  1.00  0.00     0.030 A 
HETATM    4  C   UNL     1      62.069   9.101   1.488  1.00  0.00     0.011 A 
HETATM    5  C   UNL     1      61.868  11.034   2.881  1.00  0.00     0.002 A 
HETATM    6  C   UNL     1      61.661  10.418   1.660  1.00  0.00     0.001 A 
ENDROOT
BRANCH   1   7
HETATM    7  N   UNL     1      63.513   8.336   4.875  1.00  0.00    -0.377 N 
HETATM    8  C   UNL     1      62.748   7.674   5.952  1.00  0.00     0.150 C 
HETATM    9  C   UNL     1      63.560   6.451   6.448  1.00  0.00     0.254 C 
HETATM   10  N   UNL     1      64.868   6.855   7.016  1.00  0.00    -0.072 N 
HETATM   11  C   UNL     1      65.615   7.658   6.018  1.00  0.00     0.254 C 
HETATM   12  C   UNL     1      65.649   5.680   7.399  1.00  0.00     0.269 C 
HETATM   13  H   UNL     1      64.705   7.418   7.850  1.00  0.00     0.279 HD
HETATM   14  C   UNL     1      64.807   8.834   5.407  1.00  0.00     0.150 C 
ENDBRANCH   1   7
BRANCH   2  15
HETATM   15  C   UNL     1      63.220   6.992   2.176  1.00  0.00     0.205 C 
BRANCH  15  16
HETATM   16  O   UNL     1      62.381   5.950   2.673  1.00  0.00    -0.396 OA
HETATM   17  H   UNL     1      61.457   6.144   2.451  1.00  0.00     0.209 HD
ENDBRANCH  15  16
ENDBRANCH   2  15
TORSDOF 3
ENDMDL
MODEL 4
REMARK VINA RESULT:      -4.8      2.186      5.000
REMARK  3 active torsions:
REMARK  status: ('A' for Active; 'I' for Inactive)
REMARK    1  A    between atoms: N_1  and  C_2 
REMARK    2  A    between atoms: C_4  and  C_9 
REMARK    3  A    between atoms: C_9  and  O_11 
ROOT
HETATM    1  C   UNL     1      63.680   8.009   3.925  1.00  0.00     0.038 A 
HETATM    2  C   UNL     1      64.192   8.891   4.918  1.00  0.00    -0.008 A 
HETATM    3  C   UNL     1      64.525   6.934   3.549  1.00  0.00     0.030 A 
HETATM    4  C   UNL     1      65.433   8.608   5.536  1.00  0.00     0.011 A 
HETATM    5  C   UNL     1      65.776   6.705   4.128  1.00  0.00     0.002 A 
HETATM    6  C   UNL     1      66.225   7.536   5.138  1.00  0.00     0.001 A 
ENDROOT
BRANCH   1   7
HETATM    7  N   UNL     1      62.469   8.210   3.256  1.00  0.00    -0.377 N 
HETATM    8  C   UNL     1      62.285   9.311   2.289  1.00  0.00     0.150 C 
HETATM    9  C   UNL     1      61.314   8.832   1.180  1.00  0.00     0.254 C 
HETATM   10  N   UNL     1      59.980   8.495   1.729  1.00  0.00    -0.072 N 
HETATM   11  C   UNL     1      60.127   7.497   2.815  1.00  0.00     0.254 C 
HETATM   12  C   UNL     1      59.109   7.967   0.679  1.00  0.00     0.269 C 
HETATM   13  H   UNL     1      59.554   9.342   2.102  1.00  0.00     0.279 HD
HETATM   14  C   UNL     1      61.172   7.879   3.898  1.00  0.00     0.150 C 
ENDBRANCH   1   7
BRANCH   2  15
HETATM   15  C   UNL     1      63.474  10.148   5.356  1.00  0.00     0.205 C 
BRANCH  15  16
HETATM   16  O   UNL     1      64.314  11.059   6.066  1.00  0.00    -0.396 OA
HETATM   17  H   UNL     1      64.757  11.648   5.436  1.00  0.00     0.209 HD
ENDBRANCH  15  16
ENDBRANCH   2  15
TORSDOF 3
ENDMDL
MODEL 5
REMARK VINA RESULT:      -4.3      2.429      6.002
REMARK  3 active torsions:
REMARK  status: ('A' for Active; 'I' for Inactive)
REMARK    1  A    between atoms: N_1  and  C_2 
REMARK    2  A    between atoms: C_4  and  C_9 
REMARK    3  A    between atoms: C_9  and  O_11 
ROOT
HETATM    1  C   UNL     1      65.918   6.602   6.824  1.00  0.00     0.038 A 
HETATM    2  C   UNL     1      67.023   5.925   6.233  1.00  0.00    -0.008 A 
HETATM    3  C   UNL     1      65.908   6.663   8.241  1.00  0.00     0.030 A 
HETATM    4  C   UNL     1      68.075   5.450   7.053  1.00  0.00     0.011 A 
HETATM    5  C   UNL     1      66.927   6.133   9.037  1.00  0.00     0.002 A 
HETATM    6  C   UNL     1      68.024   5.538   8.439  1.00  0.00     0.001 A 
ENDROOT
BRANCH   1   7
HETATM    7  N   UNL     1      64.832   7.099   6.097  1.00  0.00    -0.377 N 
HETATM    8  C   UNL     1      64.871   8.423   5.444  1.00  0.00     0.150 C 
HETATM    9  C   UNL     1      64.032   8.352   4.144  1.00  0.00     0.254 C 
HETATM   10  N   UNL     1      62.612   8.037   4.424  1.00  0.00    -0.072 N 
HETATM   11  C   UNL     1      62.529   6.785   5.214  1.00  0.00     0.254 C 
HETATM   12  C   UNL     1      61.860   7.892   3.178  1.00  0.00     0.269 C 
HETATM   13  H   UNL     1      62.204   8.803   4.958  1.00  0.00     0.279 HD
HETATM   14  C   UNL     1      63.436   6.762   6.473  1.00  0.00     0.150 C 
ENDBRANCH   1   7
BRANCH   2  15
HETATM   15  C   UNL     1      67.138   5.671   4.747  1.00  0.00     0.205 C 
BRANCH  15  16
HETATM   16  O   UNL     1      67.682   6.777   4.025  1.00  0.00    -0.396 OA
HETATM   17  H   UNL     1      66.986   7.434   3.868  1.00  0.00     0.209 HD
ENDBRANCH  15  16
ENDBRANCH   2  15
TORSDOF 3
ENDMDL
MODEL 6
REMARK VINA RESULT:      -4.2      2.807      3.909
REMARK  3 active torsions:
REMARK  status: ('A' for Active; 'I' for Inactive)
REMARK    1  A    between atoms: N_1  and  C_2 
REMARK    2  A    between atoms: C_4  and  C_9 
REMARK    3  A    between atoms: C_9  and  O_11 
ROOT
HETATM    1  C   UNL     1      62.360   8.554   3.390  1.00  0.00     0.038 A 
HETATM    2  C   UNL     1      62.753   8.860   4.723  1.00  0.00    -0.008 A 
HETATM    3  C   UNL     1      61.907   9.645   2.605  1.00  0.00     0.030 A 
HETATM    4  C   UNL     1      62.769  10.207   5.159  1.00  0.00     0.011 A 
HETATM    5  C   UNL     1      61.872  10.961   3.074  1.00  0.00     0.002 A 
HETATM    6  C   UNL     1      62.321  11.246   4.351  1.00  0.00     0.001 A 
ENDROOT
BRANCH   1   7
HETATM    7  N   UNL     1      62.307   7.256   2.874  1.00  0.00    -0.377 N 
HETATM    8  C   UNL     1      63.497   6.594   2.301  1.00  0.00     0.150 C 
HETATM    9  C   UNL     1      63.404   5.076   2.600  1.00  0.00     0.254 C 
HETATM   10  N   UNL     1      62.210   4.465   1.970  1.00  0.00    -0.072 N 
HETATM   11  C   UNL     1      60.994   5.197   2.399  1.00  0.00     0.254 C 
HETATM   12  C   UNL     1      62.100   3.054   2.336  1.00  0.00     0.269 C 
HETATM   13  H   UNL     1      62.304   4.528   0.957  1.00  0.00     0.279 HD
HETATM   14  C   UNL     1      61.078   6.737   2.222  1.00  0.00     0.150 C 
ENDBRANCH   1   7
BRANCH   2  15
HETATM   15  C   UNL     1      63.156   7.805   5.730  1.00  0.00     0.205 C 
BRANCH  15  16
HETATM   16  O   UNL     1      62.620   8.035   7.033  1.00  0.00    -0.396 OA
HETATM   17  H   UNL     1      62.198   7.225   7.357  1.00  0.00     0.209 HD
ENDBRANCH  15  16
ENDBRANCH   2  15
TORSDOF 3
ENDMDL
MODEL 7
REMARK VINA RESULT:      -4.2      2.610      3.697
REMARK  3 active torsions:
REMARK  status: ('A' for Active; 'I' for Inactive)
REMARK    1  A    between atoms: N_1  and  C_2 
REMARK    2  A    between atoms: C_4  and  C_9 
REMARK    3  A    between atoms: C_9  and  O_11 
ROOT
HETATM    1  C   UNL     1      62.970   8.854   4.046  1.00  0.00     0.038 A 
HETATM    2  C   UNL     1      62.284   9.563   3.020  1.00  0.00    -0.008 A 
HETATM    3  C   UNL     1      63.265   9.588   5.223  1.00  0.00     0.030 A 
HETATM    4  C   UNL     1      61.853  10.891   3.252  1.00  0.00     0.011 A 
HETATM    5  C   UNL     1      62.885  10.919   5.409  1.00  0.00     0.002 A 
HETATM    6  C   UNL     1      62.161  11.569   4.426  1.00  0.00     0.001 A 
ENDROOT
BRANCH   1   7
HETATM    7  N   UNL     1      63.438   7.544   3.906  1.00  0.00    -0.377 N 
HETATM    8  C   UNL     1      62.563   6.375   4.127  1.00  0.00     0.150 C 
HETATM    9  C   UNL     1      63.003   5.245   3.162  1.00  0.00     0.254 C 
HETATM   10  N   UNL     1      64.396   4.813   3.424  1.00  0.00    -0.072 N 
HETATM   11  C   UNL     1      65.299   5.986   3.363  1.00  0.00     0.254 C 
HETATM   12  C   UNL     1      64.816   3.807   2.449  1.00  0.00     0.269 C 
HETATM   13  H   UNL     1      64.443   4.397   4.353  1.00  0.00     0.279 HD
HETATM   14  C   UNL     1      64.843   7.191   4.229  1.00  0.00     0.150 C 
ENDBRANCH   1   7
BRANCH   2  15
HETATM   15  C   UNL     1      61.988   8.970   1.660  1.00  0.00     0.205 C 
BRANCH  15  16
HETATM   16  O   UNL     1      60.603   9.004   1.318  1.00  0.00    -0.396 OA
HETATM   17  H   UNL     1      60.221   8.120   1.425  1.00  0.00     0.209 HD
ENDBRANCH  15  16
ENDBRANCH   2  15
TORSDOF 3
ENDMDL
MODEL 8
REMARK VINA RESULT:      -4.2      1.949      5.375
REMARK  3 active torsions:
REMARK  status: ('A' for Active; 'I' for Inactive)
REMARK    1  A    between atoms: N_1  and  C_2 
REMARK    2  A    between atoms: C_4  and  C_9 
REMARK    3  A    between atoms: C_9  and  O_11 
ROOT
HETATM    1  C   UNL     1      64.291   7.739   4.881  1.00  0.00     0.038 A 
HETATM    2  C   UNL     1      63.885   6.562   5.572  1.00  0.00    -0.008 A 
HETATM    3  C   UNL     1      65.675   8.043   4.926  1.00  0.00     0.030 A 
HETATM    4  C   UNL     1      64.860   5.724   6.165  1.00  0.00     0.011 A 
HETATM    5  C   UNL     1      66.616   7.235   5.569  1.00  0.00     0.002 A 
HETATM    6  C   UNL     1      66.209   6.061   6.178  1.00  0.00     0.001 A 
ENDROOT
BRANCH   1   7
HETATM    7  N   UNL     1      63.401   8.628   4.272  1.00  0.00    -0.377 N 
HETATM    8  C   UNL     1      62.649   9.635   5.049  1.00  0.00     0.150 C 
HETATM    9  C   UNL     1      62.468  10.897   4.168  1.00  0.00     0.254 C 
HETATM   10  N   UNL     1      61.685  10.604   2.944  1.00  0.00    -0.072 N 
HETATM   11  C   UNL     1      62.322   9.489   2.203  1.00  0.00     0.254 C 
HETATM   12  C   UNL     1      61.599  11.788   2.091  1.00  0.00     0.269 C 
HETATM   13  H   UNL     1      60.740  10.334   3.215  1.00  0.00     0.279 HD
HETATM   14  C   UNL     1      62.626   8.236   3.068  1.00  0.00     0.150 C 
ENDBRANCH   1   7
BRANCH   2  15
HETATM   15  C   UNL     1      62.438   6.148   5.721  1.00  0.00     0.205 C 
BRANCH  15  16
HETATM   16  O   UNL     1      61.782   6.774   6.824  1.00  0.00    -0.396 OA
HETATM   17  H   UNL     1      61.473   7.654   6.560  1.00  0.00     0.209 HD
ENDBRANCH  15  16
ENDBRANCH   2  15
TORSDOF 3
ENDMDL
MODEL 9
REMARK VINA RESULT:      -4.1     11.221     13.340
REMARK  3 active torsions:
REMARK  status: ('A' for Active; 'I' for Inactive)
REMARK    1  A    between atoms: N_1  and  C_2 
REMARK    2  A    between atoms: C_4  and  C_9 
REMARK    3  A    between atoms: C_9  and  O_11 
ROOT
HETATM    1  C   UNL     1      56.987   2.081  13.032  1.00  0.00     0.038 A 
HETATM    2  C   UNL     1      57.982   2.313  12.041  1.00  0.00    -0.008 A 
HETATM    3  C   UNL     1      57.356   1.220  14.098  1.00  0.00     0.030 A 
HETATM    4  C   UNL     1      59.280   1.776  12.209  1.00  0.00     0.011 A 
HETATM    5  C   UNL     1      58.626   0.649  14.215  1.00  0.00     0.002 A 
HETATM    6  C   UNL     1      59.598   0.941  13.275  1.00  0.00     0.001 A 
ENDROOT
BRANCH   1   7
HETATM    7  N   UNL     1      55.678   2.564  12.949  1.00  0.00    -0.377 N 
HETATM    8  C   UNL     1      54.997   3.178  14.107  1.00  0.00     0.150 C 
HETATM    9  C   UNL     1      54.049   4.288  13.586  1.00  0.00     0.254 C 
HETATM   10  N   UNL     1      53.001   3.739  12.695  1.00  0.00    -0.072 N 
HETATM   11  C   UNL     1      53.636   2.979  11.591  1.00  0.00     0.254 C 
HETATM   12  C   UNL     1      52.172   4.813  12.150  1.00  0.00     0.269 C 
HETATM   13  H   UNL     1      52.403   3.115  13.235  1.00  0.00     0.279 HD
HETATM   14  C   UNL     1      54.678   1.927  12.055  1.00  0.00     0.150 C 
ENDBRANCH   1   7
BRANCH   2  15
HETATM   15  C   UNL     1      57.724   3.113  10.783  1.00  0.00     0.205 C 
BRANCH  15  16
HETATM   16  O   UNL     1      58.602   4.228  10.633  1.00  0.00    -0.396 OA
HETATM   17  H   UNL     1      59.421   3.940  10.201  1.00  0.00     0.209 HD
ENDBRANCH  15  16
ENDBRANCH   2  15
TORSDOF 3
ENDMDL
