MODEL 1
REMARK VINA RESULT:      -5.2      0.000      0.000
REMARK  2 active torsions:
REMARK  status: ('A' for Active; 'I' for Inactive)
REMARK    1  A    between atoms: N_1  and  C_2 
REMARK    2  A    between atoms: C_6  and  N_9 
ROOT
HETATM    1  C   UNL     1      63.213   9.158   4.280  1.00  0.00     0.056 A 
HETATM    2  C   UNL     1      62.927  10.478   4.731  1.00  0.00     0.052 A 
HETATM    3  C   UNL     1      62.739   8.790   3.011  1.00  0.00     0.031 A 
HETATM    4  C   UNL     1      62.106  11.325   3.984  1.00  0.00     0.031 A 
HETATM    5  C   UNL     1      61.976   9.673   2.236  1.00  0.00     0.002 A 
HETATM    6  C   UNL     1      61.653  10.935   2.724  1.00  0.00     0.002 A 
ENDROOT
BRANCH   1   7
HETATM    7  N   UNL     1      64.023   8.325   5.048  1.00  0.00    -0.376 N 
HETATM    8  C   UNL     1      65.484   8.338   4.903  1.00  0.00     0.150 C 
HETATM    9  C   UNL     1      66.107   7.923   6.260  1.00  0.00     0.254 C 
HETATM   10  N   UNL     1      65.618   6.612   6.759  1.00  0.00    -0.072 N 
HETATM   11  C   UNL     1      64.132   6.594   6.771  1.00  0.00     0.254 C 
HETATM   12  C   UNL     1      66.139   6.352   8.100  1.00  0.00     0.269 C 
HETATM   13  H   UNL     1      65.951   5.877   6.134  1.00  0.00     0.279 HD
HETATM   14  C   UNL     1      63.519   6.982   5.403  1.00  0.00     0.150 C 
ENDBRANCH   1   7
BRANCH   2  15
HETATM   15  N   UNL     1      63.366  10.904   6.010  1.00  0.00    -0.397 N 
HETATM   16  H   UNL     1      62.948  10.534   6.822  1.00  0.00     0.156 HD
HETATM   17  H   UNL     1      64.088  11.568   6.088  1.00  0.00     0.156 HD
ENDBRANCH   2  15
TORSDOF 2
ENDMDL
MODEL 2
REMARK VINA RESULT:      -5.1      1.154      2.488
REMARK  2 active torsions:
REMARK  status: ('A' for Active; 'I' for Inactive)
REMARK    1  A    between atoms: N_1  and  C_2 
REMARK    2  A    between atoms: C_6  and  N_9 
ROOT
HETATM    1  C   UNL     1      62.992   8.949   3.756  1.00  0.00     0.056 A 
HETATM    2  C   UNL     1      62.827   8.263   2.520  1.00  0.00     0.052 A 
HETATM    3  C   UNL     1      62.452  10.241   3.855  1.00  0.00     0.031 A 
HETATM    4  C   UNL     1      62.254   8.902   1.419  1.00  0.00     0.031 A 
HETATM    5  C   UNL     1      61.813  10.848   2.767  1.00  0.00     0.002 A 
HETATM    6  C   UNL     1      61.720  10.183   1.548  1.00  0.00     0.002 A 
ENDROOT
BRANCH   1   7
HETATM    7  N   UNL     1      63.579   8.297   4.838  1.00  0.00    -0.376 N 
HETATM    8  C   UNL     1      62.763   7.681   5.891  1.00  0.00     0.150 C 
HETATM    9  C   UNL     1      63.564   6.499   6.492  1.00  0.00     0.254 C 
HETATM   10  N   UNL     1      64.905   6.889   6.998  1.00  0.00    -0.072 N 
HETATM   11  C   UNL     1      65.652   7.622   5.943  1.00  0.00     0.254 C 
HETATM   12  C   UNL     1      65.652   5.706   7.421  1.00  0.00     0.269 C 
HETATM   13  H   UNL     1      64.787   7.503   7.804  1.00  0.00     0.279 HD
HETATM   14  C   UNL     1      64.856   8.819   5.368  1.00  0.00     0.150 C 
ENDBRANCH   1   7
BRANCH   2  15
HETATM   15  N   UNL     1      63.364   6.960   2.352  1.00  0.00    -0.397 N 
HETATM   16  H   UNL     1      62.903   6.184   2.746  1.00  0.00     0.156 HD
HETATM   17  H   UNL     1      64.194   6.832   1.841  1.00  0.00     0.156 HD
ENDBRANCH   2  15
TORSDOF 2
ENDMDL
MODEL 3
REMARK VINA RESULT:      -4.9      0.837      1.562
REMARK  2 active torsions:
REMARK  status: ('A' for Active; 'I' for Inactive)
REMARK    1  A    between atoms: N_1  and  C_2 
REMARK    2  A    between atoms: C_6  and  N_9 
ROOT
HETATM    1  C   UNL     1      62.911   9.038   3.834  1.00  0.00     0.056 A 
HETATM    2  C   UNL     1      62.523  10.393   4.029  1.00  0.00     0.052 A 
HETATM    3  C   UNL     1      62.736   8.492   2.553  1.00  0.00     0.031 A 
HETATM    4  C   UNL     1      61.885  11.107   3.012  1.00  0.00     0.031 A 
HETATM    5  C   UNL     1      62.162   9.239   1.517  1.00  0.00     0.002 A 
HETATM    6  C   UNL     1      61.729  10.541   1.747  1.00  0.00     0.002 A 
ENDROOT
BRANCH   1   7
HETATM    7  N   UNL     1      63.534   8.340   4.867  1.00  0.00    -0.376 N 
HETATM    8  C   UNL     1      62.759   7.762   5.971  1.00  0.00     0.150 C 
HETATM    9  C   UNL     1      63.529   6.527   6.506  1.00  0.00     0.254 C 
HETATM   10  N   UNL     1      64.923   6.833   6.916  1.00  0.00    -0.072 N 
HETATM   11  C   UNL     1      65.636   7.531   5.816  1.00  0.00     0.254 C 
HETATM   12  C   UNL     1      65.627   5.603   7.277  1.00  0.00     0.269 C 
HETATM   13  H   UNL     1      64.899   7.443   7.733  1.00  0.00     0.279 HD
HETATM   14  C   UNL     1      64.873   8.780   5.308  1.00  0.00     0.150 C 
ENDBRANCH   1   7
BRANCH   2  15
HETATM   15  N   UNL     1      62.661  10.997   5.305  1.00  0.00    -0.397 N 
HETATM   16  H   UNL     1      62.770  11.974   5.378  1.00  0.00     0.156 HD
HETATM   17  H   UNL     1      62.646  10.442   6.117  1.00  0.00     0.156 HD
ENDBRANCH   2  15
TORSDOF 2
ENDMDL
MODEL 4
REMARK VINA RESULT:      -4.5      1.179      2.010
REMARK  2 active torsions:
REMARK  status: ('A' for Active; 'I' for Inactive)
REMARK    1  A    between atoms: N_1  and  C_2 
REMARK    2  A    between atoms: C_6  and  N_9 
ROOT
HETATM    1  C   UNL     1      63.802   8.901   4.740  1.00  0.00     0.056 A 
HETATM    2  C   UNL     1      63.221   8.448   3.521  1.00  0.00     0.052 A 
HETATM    3  C   UNL     1      63.343  10.121   5.261  1.00  0.00     0.031 A 
HETATM    4  C   UNL     1      62.318   9.250   2.819  1.00  0.00     0.031 A 
HETATM    5  C   UNL     1      62.382  10.884   4.586  1.00  0.00     0.002 A 
HETATM    6  C   UNL     1      61.876  10.454   3.364  1.00  0.00     0.002 A 
ENDROOT
BRANCH   1   7
HETATM    7  N   UNL     1      64.711   8.091   5.417  1.00  0.00    -0.376 N 
HETATM    8  C   UNL     1      66.102   7.966   4.965  1.00  0.00     0.150 C 
HETATM    9  C   UNL     1      66.983   7.651   6.201  1.00  0.00     0.254 C 
HETATM   10  N   UNL     1      66.541   6.449   6.952  1.00  0.00    -0.072 N 
HETATM   11  C   UNL     1      65.096   6.558   7.281  1.00  0.00     0.254 C 
HETATM   12  C   UNL     1      67.328   6.296   8.174  1.00  0.00     0.269 C 
HETATM   13  H   UNL     1      66.684   5.625   6.369  1.00  0.00     0.279 HD
HETATM   14  C   UNL     1      64.220   6.843   6.035  1.00  0.00     0.150 C 
ENDBRANCH   1   7
BRANCH   2  15
HETATM   15  N   UNL     1      63.653   7.231   2.936  1.00  0.00    -0.397 N 
HETATM   16  H   UNL     1      63.222   6.900   2.114  1.00  0.00     0.156 HD
HETATM   17  H   UNL     1      64.384   6.717   3.349  1.00  0.00     0.156 HD
ENDBRANCH   2  15
TORSDOF 2
ENDMDL
MODEL 5
REMARK VINA RESULT:      -4.2      1.660      2.045
REMARK  2 active torsions:
REMARK  status: ('A' for Active; 'I' for Inactive)
REMARK    1  A    between atoms: N_1  and  C_2 
REMARK    2  A    between atoms: C_6  and  N_9 
ROOT
HETATM    1  C   UNL     1      64.139   7.398   4.076  1.00  0.00     0.056 A 
HETATM    2  C   UNL     1      63.690   8.677   4.513  1.00  0.00     0.052 A 
HETATM    3  C   UNL     1      63.612   6.905   2.871  1.00  0.00     0.031 A 
HETATM    4  C   UNL     1      62.680   9.352   3.826  1.00  0.00     0.031 A 
HETATM    5  C   UNL     1      62.651   7.624   2.150  1.00  0.00     0.002 A 
HETATM    6  C   UNL     1      62.180   8.841   2.629  1.00  0.00     0.002 A 
ENDROOT
BRANCH   1   7
HETATM    7  N   UNL     1      65.138   6.735   4.784  1.00  0.00    -0.376 N 
HETATM    8  C   UNL     1      66.483   6.563   4.222  1.00  0.00     0.150 C 
HETATM    9  C   UNL     1      67.490   6.482   5.398  1.00  0.00     0.254 C 
HETATM   10  N   UNL     1      67.167   5.417   6.380  1.00  0.00    -0.072 N 
HETATM   11  C   UNL     1      65.757   5.550   6.830  1.00  0.00     0.254 C 
HETATM   12  C   UNL     1      68.074   5.490   7.525  1.00  0.00     0.269 C 
HETATM   13  H   UNL     1      67.285   4.508   5.932  1.00  0.00     0.279 HD
HETATM   14  C   UNL     1      64.756   5.601   5.650  1.00  0.00     0.150 C 
ENDBRANCH   1   7
BRANCH   2  15
HETATM   15  N   UNL     1      64.174   9.222   5.730  1.00  0.00    -0.397 N 
HETATM   16  H   UNL     1      64.968   9.805   5.726  1.00  0.00     0.156 HD
HETATM   17  H   UNL     1      63.715   9.021   6.577  1.00  0.00     0.156 HD
ENDBRANCH   2  15
TORSDOF 2
ENDMDL
MODEL 6
REMARK VINA RESULT:      -4.1      1.405      5.286
REMARK  2 active torsions:
REMARK  status: ('A' for Active; 'I' for Inactive)
REMARK    1  A    between atoms: N_1  and  C_2 
REMARK    2  A    between atoms: C_6  and  N_9 
ROOT
HETATM    1  C   UNL     1      64.365   7.989   5.243  1.00  0.00     0.056 A 
HETATM    2  C   UNL     1      63.862   6.970   6.102  1.00  0.00     0.052 A 
HETATM    3  C   UNL     1      65.752   8.031   5.034  1.00  0.00     0.031 A 
HETATM    4  C   UNL     1      64.731   6.126   6.795  1.00  0.00     0.031 A 
HETATM    5  C   UNL     1      66.612   7.132   5.678  1.00  0.00     0.002 A 
HETATM    6  C   UNL     1      66.105   6.187   6.562  1.00  0.00     0.002 A 
ENDROOT
BRANCH   1   7
HETATM    7  N   UNL     1      63.480   8.829   4.572  1.00  0.00    -0.376 N 
HETATM    8  C   UNL     1      62.727   9.869   5.285  1.00  0.00     0.150 C 
HETATM    9  C   UNL     1      62.439  11.022   4.290  1.00  0.00     0.254 C 
HETATM   10  N   UNL     1      61.732  10.580   3.061  1.00  0.00    -0.072 N 
HETATM   11  C   UNL     1      62.458   9.443   2.438  1.00  0.00     0.254 C 
HETATM   12  C   UNL     1      61.618  11.689   2.115  1.00  0.00     0.269 C 
HETATM   13  H   UNL     1      60.793  10.272   3.314  1.00  0.00     0.279 HD
HETATM   14  C   UNL     1      62.716   8.283   3.431  1.00  0.00     0.150 C 
ENDBRANCH   1   7
BRANCH   2  15
HETATM   15  N   UNL     1      62.470   6.885   6.365  1.00  0.00    -0.397 N 
HETATM   16  H   UNL     1      61.850   7.520   5.939  1.00  0.00     0.156 HD
HETATM   17  H   UNL     1      62.125   6.191   6.971  1.00  0.00     0.156 HD
ENDBRANCH   2  15
TORSDOF 2
ENDMDL
MODEL 7
REMARK VINA RESULT:      -4.1      2.603      5.661
REMARK  2 active torsions:
REMARK  status: ('A' for Active; 'I' for Inactive)
REMARK    1  A    between atoms: N_1  and  C_2 
REMARK    2  A    between atoms: C_6  and  N_9 
ROOT
HETATM    1  C   UNL     1      63.640   7.799   3.743  1.00  0.00     0.056 A 
HETATM    2  C   UNL     1      64.490   6.747   3.296  1.00  0.00     0.052 A 
HETATM    3  C   UNL     1      64.130   8.640   4.755  1.00  0.00     0.031 A 
HETATM    4  C   UNL     1      65.710   6.498   3.926  1.00  0.00     0.031 A 
HETATM    5  C   UNL     1      65.388   8.426   5.332  1.00  0.00     0.002 A 
HETATM    6  C   UNL     1      66.174   7.354   4.925  1.00  0.00     0.002 A 
ENDROOT
BRANCH   1   7
HETATM    7  N   UNL     1      62.420   8.021   3.109  1.00  0.00    -0.376 N 
HETATM    8  C   UNL     1      62.260   9.096   2.121  1.00  0.00     0.150 C 
HETATM    9  C   UNL     1      61.149   8.673   1.126  1.00  0.00     0.254 C 
HETATM   10  N   UNL     1      59.861   8.338   1.785  1.00  0.00    -0.072 N 
HETATM   11  C   UNL     1      60.085   7.341   2.863  1.00  0.00     0.254 C 
HETATM   12  C   UNL     1      58.909   7.820   0.803  1.00  0.00     0.269 C 
HETATM   13  H   UNL     1      59.471   9.186   2.197  1.00  0.00     0.279 HD
HETATM   14  C   UNL     1      61.176   7.784   3.869  1.00  0.00     0.150 C 
ENDBRANCH   1   7
BRANCH   2  15
HETATM   15  N   UNL     1      64.046   5.855   2.286  1.00  0.00    -0.397 N 
HETATM   16  H   UNL     1      64.550   5.776   1.443  1.00  0.00     0.156 HD
HETATM   17  H   UNL     1      63.237   5.313   2.428  1.00  0.00     0.156 HD
ENDBRANCH   2  15
TORSDOF 2
ENDMDL
MODEL 8
REMARK VINA RESULT:      -4.0      2.402      3.128
REMARK  2 active torsions:
REMARK  status: ('A' for Active; 'I' for Inactive)
REMARK    1  A    between atoms: N_1  and  C_2 
REMARK    2  A    between atoms: C_6  and  N_9 
ROOT
HETATM    1  C   UNL     1      62.527   8.587   3.837  1.00  0.00     0.056 A 
HETATM    2  C   UNL     1      62.999   9.161   5.051  1.00  0.00     0.052 A 
HETATM    3  C   UNL     1      61.976   9.457   2.882  1.00  0.00     0.031 A 
HETATM    4  C   UNL     1      62.811  10.518   5.321  1.00  0.00     0.031 A 
HETATM    5  C   UNL     1      61.858  10.829   3.132  1.00  0.00     0.002 A 
HETATM    6  C   UNL     1      62.267  11.359   4.351  1.00  0.00     0.002 A 
ENDROOT
BRANCH   1   7
HETATM    7  N   UNL     1      62.712   7.228   3.594  1.00  0.00    -0.376 N 
HETATM    8  C   UNL     1      63.807   6.749   2.742  1.00  0.00     0.150 C 
HETATM    9  C   UNL     1      64.198   5.326   3.214  1.00  0.00     0.254 C 
HETATM   10  N   UNL     1      63.059   4.374   3.228  1.00  0.00    -0.072 N 
HETATM   11  C   UNL     1      61.924   4.949   3.994  1.00  0.00     0.254 C 
HETATM   12  C   UNL     1      63.471   3.098   3.811  1.00  0.00     0.269 C 
HETATM   13  H   UNL     1      62.757   4.208   2.267  1.00  0.00     0.279 HD
HETATM   14  C   UNL     1      61.521   6.359   3.497  1.00  0.00     0.150 C 
ENDBRANCH   1   7
BRANCH   2  15
HETATM   15  N   UNL     1      63.552   8.332   6.061  1.00  0.00    -0.397 N 
HETATM   16  H   UNL     1      62.960   7.891   6.713  1.00  0.00     0.156 HD
HETATM   17  H   UNL     1      64.525   8.198   6.111  1.00  0.00     0.156 HD
ENDBRANCH   2  15
TORSDOF 2
ENDMDL
MODEL 9
REMARK VINA RESULT:      -4.0      2.938      4.393
REMARK  2 active torsions:
REMARK  status: ('A' for Active; 'I' for Inactive)
REMARK    1  A    between atoms: N_1  and  C_2 
REMARK    2  A    between atoms: C_6  and  N_9 
ROOT
HETATM    1  C   UNL     1      62.522   8.729   3.611  1.00  0.00     0.056 A 
HETATM    2  C   UNL     1      61.847   9.772   2.916  1.00  0.00     0.052 A 
HETATM    3  C   UNL     1      63.076   9.039   4.863  1.00  0.00     0.031 A 
HETATM    4  C   UNL     1      61.845  11.077   3.414  1.00  0.00     0.031 A 
HETATM    5  C   UNL     1      63.006  10.335   5.389  1.00  0.00     0.002 A 
HETATM    6  C   UNL     1      62.398  11.355   4.663  1.00  0.00     0.002 A 
ENDROOT
BRANCH   1   7
HETATM    7  N   UNL     1      62.524   7.437   3.090  1.00  0.00    -0.376 N 
HETATM    8  C   UNL     1      61.502   6.458   3.479  1.00  0.00     0.150 C 
HETATM    9  C   UNL     1      61.311   5.467   2.303  1.00  0.00     0.254 C 
HETATM   10  N   UNL     1      62.570   4.806   1.876  1.00  0.00    -0.072 N 
HETATM   11  C   UNL     1      63.617   5.826   1.613  1.00  0.00     0.254 C 
HETATM   12  C   UNL     1      62.339   3.996   0.681  1.00  0.00     0.269 C 
HETATM   13  H   UNL     1      62.890   4.192   2.626  1.00  0.00     0.279 HD
HETATM   14  C   UNL     1      63.822   6.793   2.806  1.00  0.00     0.150 C 
ENDBRANCH   1   7
BRANCH   2  15
HETATM   15  N   UNL     1      61.279   9.526   1.640  1.00  0.00    -0.397 N 
HETATM   16  H   UNL     1      61.862   9.439   0.851  1.00  0.00     0.156 HD
HETATM   17  H   UNL     1      60.303   9.441   1.543  1.00  0.00     0.156 HD
ENDBRANCH   2  15
TORSDOF 2
ENDMDL
