MODEL 1
REMARK VINA RESULT:      -5.2      0.000      0.000
REMARK  1 active torsions:
REMARK  status: ('A' for Active; 'I' for Inactive)
REMARK    1  A    between atoms: N_1  and  C_3 
ROOT
HETATM    1  C   UNL     1      62.490  10.256   3.931  1.00  0.00     0.140 A 
HETATM    2  C   UNL     1      62.776   8.945   3.488  1.00  0.00     0.068 A 
HETATM    3  N   UNL     1      63.093  11.109   6.317  1.00  0.00    -0.190 NA
HETATM    4  C   UNL     1      62.835  10.735   5.246  1.00  0.00     0.120 C 
HETATM    5  N   UNL     1      61.919  11.235   3.165  1.00  0.00    -0.356 N 
ATOM      6  HN  UNL     1      61.729  12.162   3.545  1.00  0.00     0.166 HD
HETATM    7  C   UNL     1      62.439   8.706   2.143  1.00  0.00     0.034 A 
HETATM    8  C   UNL     1      61.619  10.927   1.892  1.00  0.00     0.089 A 
HETATM    9  C   UNL     1      61.862   9.690   1.338  1.00  0.00     0.019 A 
ENDROOT
BRANCH   2  10
HETATM   10  N   UNL     1      63.346   7.935   4.249  1.00  0.00    -0.378 N 
HETATM   11  C   UNL     1      64.797   7.721   4.315  1.00  0.00     0.123 C 
HETATM   12  C   UNL     1      65.224   7.715   5.785  1.00  0.00     0.020 C 
HETATM   13  C   UNL     1      64.418   6.709   6.608  1.00  0.00     0.003 C 
HETATM   14  C   UNL     1      62.913   6.897   6.410  1.00  0.00     0.020 C 
HETATM   15  C   UNL     1      62.554   6.903   4.924  1.00  0.00     0.123 C 
ENDBRANCH   2  10
TORSDOF 1
ENDMDL
MODEL 2
REMARK VINA RESULT:      -5.2      1.183      1.894
REMARK  1 active torsions:
REMARK  status: ('A' for Active; 'I' for Inactive)
REMARK    1  A    between atoms: N_1  and  C_3 
ROOT
HETATM    1  C   UNL     1      62.171   9.772   3.069  1.00  0.00     0.140 A 
HETATM    2  C   UNL     1      62.828   8.579   3.445  1.00  0.00     0.068 A 
HETATM    3  N   UNL     1      61.977  11.841   4.640  1.00  0.00    -0.190 NA
HETATM    4  C   UNL     1      62.074  10.924   3.931  1.00  0.00     0.120 C 
HETATM    5  N   UNL     1      61.610  10.004   1.843  1.00  0.00    -0.356 N 
ATOM      6  HN  UNL     1      61.141  10.886   1.633  1.00  0.00     0.166 HD
HETATM    7  C   UNL     1      62.888   7.610   2.427  1.00  0.00     0.034 A 
HETATM    8  C   UNL     1      61.702   9.027   0.925  1.00  0.00     0.089 A 
HETATM    9  C   UNL     1      62.329   7.825   1.166  1.00  0.00     0.019 A 
ENDROOT
BRANCH   2  10
HETATM   10  N   UNL     1      63.395   8.318   4.684  1.00  0.00    -0.378 N 
HETATM   11  C   UNL     1      62.637   7.716   5.787  1.00  0.00     0.123 C 
HETATM   12  C   UNL     1      63.394   6.483   6.286  1.00  0.00     0.020 C 
HETATM   13  C   UNL     1      64.843   6.812   6.646  1.00  0.00     0.003 C 
HETATM   14  C   UNL     1      65.553   7.546   5.508  1.00  0.00     0.020 C 
HETATM   15  C   UNL     1      64.744   8.759   5.051  1.00  0.00     0.123 C 
ENDBRANCH   2  10
TORSDOF 1
ENDMDL
MODEL 3
REMARK VINA RESULT:      -4.9      1.609      4.745
REMARK  1 active torsions:
REMARK  status: ('A' for Active; 'I' for Inactive)
REMARK    1  A    between atoms: N_1  and  C_3 
ROOT
HETATM    1  C   UNL     1      63.503   7.312   6.058  1.00  0.00     0.140 A 
HETATM    2  C   UNL     1      63.707   8.042   4.865  1.00  0.00     0.068 A 
HETATM    3  N   UNL     1      61.172   6.404   6.785  1.00  0.00    -0.190 NA
HETATM    4  C   UNL     1      62.216   6.796   6.456  1.00  0.00     0.120 C 
HETATM    5  N   UNL     1      64.490   6.954   6.935  1.00  0.00    -0.356 N 
ATOM      6  HN  UNL     1      64.278   6.432   7.786  1.00  0.00     0.166 HD
HETATM    7  C   UNL     1      65.051   8.376   4.618  1.00  0.00     0.034 A 
HETATM    8  C   UNL     1      65.747   7.317   6.633  1.00  0.00     0.089 A 
HETATM    9  C   UNL     1      66.076   8.018   5.494  1.00  0.00     0.019 A 
ENDROOT
BRANCH   2  10
HETATM   10  N   UNL     1      62.721   8.423   3.966  1.00  0.00    -0.378 N 
HETATM   11  C   UNL     1      61.914   9.635   4.148  1.00  0.00     0.123 C 
HETATM   12  C   UNL     1      62.013  10.484   2.877  1.00  0.00     0.020 C 
HETATM   13  C   UNL     1      61.643   9.683   1.628  1.00  0.00     0.003 C 
HETATM   14  C   UNL     1      62.425   8.371   1.549  1.00  0.00     0.020 C 
HETATM   15  C   UNL     1      62.294   7.576   2.848  1.00  0.00     0.123 C 
ENDBRANCH   2  10
TORSDOF 1
ENDMDL
MODEL 4
REMARK VINA RESULT:      -4.9      1.675      4.178
REMARK  1 active torsions:
REMARK  status: ('A' for Active; 'I' for Inactive)
REMARK    1  A    between atoms: N_1  and  C_3 
ROOT
HETATM    1  C   UNL     1      63.347   9.412   4.527  1.00  0.00     0.140 A 
HETATM    2  C   UNL     1      63.024   8.413   3.580  1.00  0.00     0.068 A 
HETATM    3  N   UNL     1      62.035  11.653   4.728  1.00  0.00    -0.190 NA
HETATM    4  C   UNL     1      62.613  10.647   4.649  1.00  0.00     0.120 C 
HETATM    5  N   UNL     1      64.334   9.309   5.468  1.00  0.00    -0.356 N 
ATOM      6  HN  UNL     1      64.526  10.070   6.120  1.00  0.00     0.166 HD
HETATM    7  C   UNL     1      63.805   7.247   3.685  1.00  0.00     0.034 A 
HETATM    8  C   UNL     1      65.042   8.167   5.500  1.00  0.00     0.089 A 
HETATM    9  C   UNL     1      64.813   7.115   4.641  1.00  0.00     0.019 A 
ENDROOT
BRANCH   2  10
HETATM   10  N   UNL     1      62.034   8.499   2.613  1.00  0.00    -0.378 N 
HETATM   11  C   UNL     1      62.249   9.163   1.321  1.00  0.00     0.123 C 
HETATM   12  C   UNL     1      61.877   8.187   0.202  1.00  0.00     0.020 C 
HETATM   13  C   UNL     1      60.463   7.633   0.377  1.00  0.00     0.003 C 
HETATM   14  C   UNL     1      60.253   7.061   1.780  1.00  0.00     0.020 C 
HETATM   15  C   UNL     1      60.649   8.078   2.850  1.00  0.00     0.123 C 
ENDBRANCH   2  10
TORSDOF 1
ENDMDL
MODEL 5
REMARK VINA RESULT:      -4.7      1.771      4.363
REMARK  1 active torsions:
REMARK  status: ('A' for Active; 'I' for Inactive)
REMARK    1  A    between atoms: N_1  and  C_3 
ROOT
HETATM    1  C   UNL     1      62.813   8.813   4.865  1.00  0.00     0.140 A 
HETATM    2  C   UNL     1      62.120   9.136   3.677  1.00  0.00     0.068 A 
HETATM    3  N   UNL     1      63.594   6.396   5.441  1.00  0.00    -0.190 NA
HETATM    4  C   UNL     1      63.259   7.478   5.180  1.00  0.00     0.120 C 
HETATM    5  N   UNL     1      63.198   9.717   5.818  1.00  0.00    -0.356 N 
ATOM      6  HN  UNL     1      63.690   9.421   6.661  1.00  0.00     0.166 HD
HETATM    7  C   UNL     1      61.855  10.509   3.520  1.00  0.00     0.034 A 
HETATM    8  C   UNL     1      62.902  11.009   5.599  1.00  0.00     0.089 A 
HETATM    9  C   UNL     1      62.243  11.451   4.474  1.00  0.00     0.019 A 
ENDROOT
BRANCH   2  10
HETATM   10  N   UNL     1      61.713   8.236   2.703  1.00  0.00    -0.378 N 
HETATM   11  C   UNL     1      60.390   7.601   2.719  1.00  0.00     0.123 C 
HETATM   12  C   UNL     1      59.711   7.849   1.370  1.00  0.00     0.020 C 
HETATM   13  C   UNL     1      60.590   7.403   0.201  1.00  0.00     0.003 C 
HETATM   14  C   UNL     1      61.996   7.997   0.295  1.00  0.00     0.020 C 
HETATM   15  C   UNL     1      62.614   7.723   1.666  1.00  0.00     0.123 C 
ENDBRANCH   2  10
TORSDOF 1
ENDMDL
MODEL 6
REMARK VINA RESULT:      -4.6      1.454      2.958
REMARK  1 active torsions:
REMARK  status: ('A' for Active; 'I' for Inactive)
REMARK    1  A    between atoms: N_1  and  C_3 
ROOT
HETATM    1  C   UNL     1      62.786   8.940   3.220  1.00  0.00     0.140 A 
HETATM    2  C   UNL     1      63.200   9.132   4.558  1.00  0.00     0.068 A 
HETATM    3  N   UNL     1      63.133   6.701   1.935  1.00  0.00    -0.190 NA
HETATM    4  C   UNL     1      62.964   7.697   2.511  1.00  0.00     0.120 C 
HETATM    5  N   UNL     1      62.121   9.867   2.466  1.00  0.00    -0.356 N 
ATOM      6  HN  UNL     1      61.855   9.672   1.500  1.00  0.00     0.166 HD
HETATM    7  C   UNL     1      62.853  10.386   5.093  1.00  0.00     0.034 A 
HETATM    8  C   UNL     1      61.831  11.044   3.046  1.00  0.00     0.089 A 
HETATM    9  C   UNL     1      62.169  11.346   4.346  1.00  0.00     0.019 A 
ENDROOT
BRANCH   2  10
HETATM   10  N   UNL     1      63.882   8.210   5.338  1.00  0.00    -0.378 N 
HETATM   11  C   UNL     1      63.194   7.267   6.228  1.00  0.00     0.123 C 
HETATM   12  C   UNL     1      63.663   5.848   5.895  1.00  0.00     0.020 C 
HETATM   13  C   UNL     1      65.187   5.729   5.937  1.00  0.00     0.003 C 
HETATM   14  C   UNL     1      65.859   6.809   5.089  1.00  0.00     0.020 C 
HETATM   15  C   UNL     1      65.343   8.198   5.463  1.00  0.00     0.123 C 
ENDBRANCH   2  10
TORSDOF 1
ENDMDL
MODEL 7
REMARK VINA RESULT:      -4.5      1.710      2.895
REMARK  1 active torsions:
REMARK  status: ('A' for Active; 'I' for Inactive)
REMARK    1  A    between atoms: N_1  and  C_3 
ROOT
HETATM    1  C   UNL     1      63.500   8.653   4.224  1.00  0.00     0.140 A 
HETATM    2  C   UNL     1      64.398   7.572   4.376  1.00  0.00     0.068 A 
HETATM    3  N   UNL     1      63.405  10.663   5.877  1.00  0.00    -0.190 NA
HETATM    4  C   UNL     1      63.455   9.773   5.130  1.00  0.00     0.120 C 
HETATM    5  N   UNL     1      62.622   8.801   3.185  1.00  0.00    -0.356 N 
ATOM      6  HN  UNL     1      61.991   9.601   3.135  1.00  0.00     0.166 HD
HETATM    7  C   UNL     1      64.342   6.627   3.336  1.00  0.00     0.034 A 
HETATM    8  C   UNL     1      62.623   7.852   2.234  1.00  0.00     0.089 A 
HETATM    9  C   UNL     1      63.460   6.759   2.262  1.00  0.00     0.019 A 
ENDROOT
BRANCH   2  10
HETATM   10  N   UNL     1      65.290   7.397   5.424  1.00  0.00    -0.378 N 
HETATM   11  C   UNL     1      64.898   6.785   6.699  1.00  0.00     0.123 C 
HETATM   12  C   UNL     1      65.852   5.626   6.999  1.00  0.00     0.020 C 
HETATM   13  C   UNL     1      67.315   6.068   6.957  1.00  0.00     0.003 C 
HETATM   14  C   UNL     1      67.641   6.807   5.658  1.00  0.00     0.020 C 
HETATM   15  C   UNL     1      66.650   7.944   5.412  1.00  0.00     0.123 C 
ENDBRANCH   2  10
TORSDOF 1
ENDMDL
MODEL 8
REMARK VINA RESULT:      -4.2      2.052      4.970
REMARK  1 active torsions:
REMARK  status: ('A' for Active; 'I' for Inactive)
REMARK    1  A    between atoms: N_1  and  C_3 
ROOT
HETATM    1  C   UNL     1      60.828   6.843   4.633  1.00  0.00     0.140 A 
HETATM    2  C   UNL     1      62.108   7.430   4.514  1.00  0.00     0.068 A 
HETATM    3  N   UNL     1      58.786   7.588   3.198  1.00  0.00    -0.190 NA
HETATM    4  C   UNL     1      59.700   7.244   3.830  1.00  0.00     0.120 C 
HETATM    5  N   UNL     1      60.519   5.800   5.463  1.00  0.00    -0.356 N 
ATOM      6  HN  UNL     1      59.571   5.424   5.510  1.00  0.00     0.166 HD
HETATM    7  C   UNL     1      63.091   6.834   5.325  1.00  0.00     0.034 A 
HETATM    8  C   UNL     1      61.511   5.290   6.211  1.00  0.00     0.089 A 
HETATM    9  C   UNL     1      62.803   5.765   6.174  1.00  0.00     0.019 A 
ENDROOT
BRANCH   2  10
HETATM   10  N   UNL     1      62.442   8.493   3.687  1.00  0.00    -0.378 N 
HETATM   11  C   UNL     1      62.708   8.323   2.254  1.00  0.00     0.123 C 
HETATM   12  C   UNL     1      61.809   9.284   1.472  1.00  0.00     0.020 C 
HETATM   13  C   UNL     1      61.961  10.727   1.957  1.00  0.00     0.003 C 
HETATM   14  C   UNL     1      61.794  10.831   3.473  1.00  0.00     0.020 C 
HETATM   15  C   UNL     1      62.710   9.842   4.194  1.00  0.00     0.123 C 
ENDBRANCH   2  10
TORSDOF 1
ENDMDL
MODEL 9
REMARK VINA RESULT:      -4.1      4.386      7.434
REMARK  1 active torsions:
REMARK  status: ('A' for Active; 'I' for Inactive)
REMARK    1  A    between atoms: N_1  and  C_3 
ROOT
HETATM    1  C   UNL     1      67.156   4.530   8.111  1.00  0.00     0.140 A 
HETATM    2  C   UNL     1      67.186   4.481   6.699  1.00  0.00     0.068 A 
HETATM    3  N   UNL     1      66.247   6.577   9.441  1.00  0.00    -0.190 NA
HETATM    4  C   UNL     1      66.640   5.656   8.850  1.00  0.00     0.120 C 
HETATM    5  N   UNL     1      67.544   3.512   8.938  1.00  0.00    -0.356 N 
ATOM      6  HN  UNL     1      67.506   3.610   9.953  1.00  0.00     0.166 HD
HETATM    7  C   UNL     1      67.643   3.258   6.176  1.00  0.00     0.034 A 
HETATM    8  C   UNL     1      67.976   2.378   8.362  1.00  0.00     0.089 A 
HETATM    9  C   UNL     1      68.038   2.202   6.998  1.00  0.00     0.019 A 
ENDROOT
BRANCH   2  10
HETATM   10  N   UNL     1      66.805   5.504   5.842  1.00  0.00    -0.378 N 
HETATM   11  C   UNL     1      65.504   5.521   5.165  1.00  0.00     0.123 C 
HETATM   12  C   UNL     1      64.813   6.854   5.464  1.00  0.00     0.020 C 
HETATM   13  C   UNL     1      65.703   8.047   5.112  1.00  0.00     0.003 C 
HETATM   14  C   UNL     1      67.089   7.921   5.745  1.00  0.00     0.020 C 
HETATM   15  C   UNL     1      67.720   6.568   5.417  1.00  0.00     0.123 C 
ENDBRANCH   2  10
TORSDOF 1
ENDMDL
