MODEL 1
REMARK VINA RESULT:      -5.1      0.000      0.000
REMARK  3 active torsions:
REMARK  status: ('A' for Active; 'I' for Inactive)
REMARK    1  A    between atoms: N_1  and  C_2 
REMARK    2  A    between atoms: C_4  and  C_10 
REMARK    3  A    between atoms: O_8  and  C_10 
ROOT
HETATM    1  C   UNL     1      64.282   7.786   4.486  1.00  0.00     0.030 A 
HETATM    2  C   UNL     1      64.142   8.938   5.271  1.00  0.00     0.038 A 
HETATM    3  C   UNL     1      63.209   9.945   4.953  1.00  0.00    -0.033 A 
HETATM    4  C   UNL     1      63.461   7.677   3.353  1.00  0.00     0.029 A 
HETATM    5  C   UNL     1      62.524   8.658   3.027  1.00  0.00     0.003 A 
HETATM    6  C   UNL     1      62.396   9.790   3.826  1.00  0.00     0.009 A 
ENDROOT
BRANCH   1   7
HETATM    7  N   UNL     1      65.189   6.766   4.755  1.00  0.00    -0.381 N 
HETATM    8  C   UNL     1      66.143   6.837   5.865  1.00  0.00     0.123 C 
HETATM    9  C   UNL     1      67.498   6.550   5.233  1.00  0.00     0.021 C 
HETATM   10  C   UNL     1      67.149   5.617   4.085  1.00  0.00     0.021 C 
HETATM   11  C   UNL     1      65.833   6.188   3.565  1.00  0.00     0.123 C 
ENDBRANCH   1   7
BRANCH   3  12
HETATM   12  C   UNL     1      63.104  11.178   5.810  1.00  0.00     0.203 C 
BRANCH  12  13
HETATM   13  O   UNL     1      64.341  11.459   6.450  1.00  0.00    -0.396 OA
HETATM   14  H   UNL     1      64.266  11.268   7.399  1.00  0.00     0.209 HD
ENDBRANCH  12  13
ENDBRANCH   3  12
TORSDOF 3
ENDMDL
MODEL 2
REMARK VINA RESULT:      -5.0      2.275      2.948
REMARK  3 active torsions:
REMARK  status: ('A' for Active; 'I' for Inactive)
REMARK    1  A    between atoms: N_1  and  C_2 
REMARK    2  A    between atoms: C_4  and  C_10 
REMARK    3  A    between atoms: O_8  and  C_10 
ROOT
HETATM    1  C   UNL     1      62.371   8.902   3.067  1.00  0.00     0.030 A 
HETATM    2  C   UNL     1      62.662   9.430   4.332  1.00  0.00     0.038 A 
HETATM    3  C   UNL     1      62.502  10.800   4.620  1.00  0.00    -0.033 A 
HETATM    4  C   UNL     1      61.923   9.798   2.084  1.00  0.00     0.029 A 
HETATM    5  C   UNL     1      61.748  11.157   2.353  1.00  0.00     0.003 A 
HETATM    6  C   UNL     1      62.035  11.657   3.619  1.00  0.00     0.009 A 
ENDROOT
BRANCH   1   7
HETATM    7  N   UNL     1      62.515   7.561   2.731  1.00  0.00    -0.381 N 
HETATM    8  C   UNL     1      63.339   6.639   3.518  1.00  0.00     0.123 C 
HETATM    9  C   UNL     1      64.269   5.985   2.505  1.00  0.00     0.021 C 
HETATM   10  C   UNL     1      63.434   5.970   1.236  1.00  0.00     0.021 C 
HETATM   11  C   UNL     1      62.694   7.303   1.294  1.00  0.00     0.123 C 
ENDBRANCH   1   7
BRANCH   3  12
HETATM   12  C   UNL     1      62.846  11.332   5.985  1.00  0.00     0.203 C 
BRANCH  12  13
HETATM   13  O   UNL     1      64.255  11.387   6.169  1.00  0.00    -0.396 OA
HETATM   14  H   UNL     1      64.635  10.506   6.019  1.00  0.00     0.209 HD
ENDBRANCH  12  13
ENDBRANCH   3  12
TORSDOF 3
ENDMDL
MODEL 3
REMARK VINA RESULT:      -5.0      2.372      4.580
REMARK  3 active torsions:
REMARK  status: ('A' for Active; 'I' for Inactive)
REMARK    1  A    between atoms: N_1  and  C_2 
REMARK    2  A    between atoms: C_4  and  C_10 
REMARK    3  A    between atoms: O_8  and  C_10 
ROOT
HETATM    1  C   UNL     1      61.937   8.721   3.286  1.00  0.00     0.030 A 
HETATM    2  C   UNL     1      62.005   9.853   4.110  1.00  0.00     0.038 A 
HETATM    3  C   UNL     1      63.079  10.061   4.998  1.00  0.00    -0.033 A 
HETATM    4  C   UNL     1      62.980   7.788   3.389  1.00  0.00     0.029 A 
HETATM    5  C   UNL     1      64.058   7.982   4.255  1.00  0.00     0.003 A 
HETATM    6  C   UNL     1      64.109   9.118   5.057  1.00  0.00     0.009 A 
ENDROOT
BRANCH   1   7
HETATM    7  N   UNL     1      60.899   8.467   2.397  1.00  0.00    -0.381 N 
HETATM    8  C   UNL     1      59.986   7.332   2.559  1.00  0.00     0.123 C 
HETATM    9  C   UNL     1      60.011   6.616   1.215  1.00  0.00     0.021 C 
HETATM   10  C   UNL     1      60.264   7.746   0.231  1.00  0.00     0.021 C 
HETATM   11  C   UNL     1      61.250   8.639   0.979  1.00  0.00     0.123 C 
ENDBRANCH   1   7
BRANCH   3  12
HETATM   12  C   UNL     1      63.105  11.280   5.882  1.00  0.00     0.203 C 
BRANCH  12  13
HETATM   13  O   UNL     1      64.399  11.477   6.436  1.00  0.00    -0.396 OA
HETATM   14  H   UNL     1      64.370  11.311   7.392  1.00  0.00     0.209 HD
ENDBRANCH  12  13
ENDBRANCH   3  12
TORSDOF 3
ENDMDL
MODEL 4
REMARK VINA RESULT:      -4.9      2.242      4.730
REMARK  3 active torsions:
REMARK  status: ('A' for Active; 'I' for Inactive)
REMARK    1  A    between atoms: N_1  and  C_2 
REMARK    2  A    between atoms: C_4  and  C_10 
REMARK    3  A    between atoms: O_8  and  C_10 
ROOT
HETATM    1  C   UNL     1      62.836   8.504   4.702  1.00  0.00     0.030 A 
HETATM    2  C   UNL     1      64.222   8.682   4.812  1.00  0.00     0.038 A 
HETATM    3  C   UNL     1      65.014   7.858   5.636  1.00  0.00    -0.033 A 
HETATM    4  C   UNL     1      62.259   7.474   5.460  1.00  0.00     0.029 A 
HETATM    5  C   UNL     1      63.028   6.640   6.273  1.00  0.00     0.003 A 
HETATM    6  C   UNL     1      64.403   6.830   6.360  1.00  0.00     0.009 A 
ENDROOT
BRANCH   1   7
HETATM    7  N   UNL     1      62.011   9.292   3.907  1.00  0.00    -0.381 N 
HETATM    8  C   UNL     1      61.683   8.937   2.523  1.00  0.00     0.123 C 
HETATM    9  C   UNL     1      62.015  10.183   1.713  1.00  0.00     0.021 C 
HETATM   10  C   UNL     1      61.749  11.311   2.696  1.00  0.00     0.021 C 
HETATM   11  C   UNL     1      62.249  10.739   4.019  1.00  0.00     0.123 C 
ENDBRANCH   1   7
BRANCH   3  12
HETATM   12  C   UNL     1      66.497   8.095   5.743  1.00  0.00     0.203 C 
BRANCH  12  13
HETATM   13  O   UNL     1      66.809   8.834   6.916  1.00  0.00    -0.396 OA
HETATM   14  H   UNL     1      65.999   9.235   7.271  1.00  0.00     0.209 HD
ENDBRANCH  12  13
ENDBRANCH   3  12
TORSDOF 3
ENDMDL
MODEL 5
REMARK VINA RESULT:      -4.8      2.432      3.420
REMARK  3 active torsions:
REMARK  status: ('A' for Active; 'I' for Inactive)
REMARK    1  A    between atoms: N_1  and  C_2 
REMARK    2  A    between atoms: C_4  and  C_10 
REMARK    3  A    between atoms: O_8  and  C_10 
ROOT
HETATM    1  C   UNL     1      63.296   9.176   4.749  1.00  0.00     0.030 A 
HETATM    2  C   UNL     1      62.886   8.808   3.461  1.00  0.00     0.038 A 
HETATM    3  C   UNL     1      62.147   9.682   2.639  1.00  0.00    -0.033 A 
HETATM    4  C   UNL     1      62.929  10.453   5.200  1.00  0.00     0.029 A 
HETATM    5  C   UNL     1      62.207  11.337   4.397  1.00  0.00     0.003 A 
HETATM    6  C   UNL     1      61.818  10.953   3.117  1.00  0.00     0.009 A 
ENDROOT
BRANCH   1   7
HETATM    7  N   UNL     1      64.022   8.351   5.600  1.00  0.00    -0.381 N 
HETATM    8  C   UNL     1      65.410   7.966   5.325  1.00  0.00     0.123 C 
HETATM    9  C   UNL     1      65.421   6.447   5.429  1.00  0.00     0.021 C 
HETATM   10  C   UNL     1      64.343   6.168   6.463  1.00  0.00     0.021 C 
HETATM   11  C   UNL     1      63.271   7.202   6.131  1.00  0.00     0.123 C 
ENDBRANCH   1   7
BRANCH   3  12
HETATM   12  C   UNL     1      61.706   9.241   1.268  1.00  0.00     0.203 C 
BRANCH  12  13
HETATM   13  O   UNL     1      60.322   8.919   1.259  1.00  0.00    -0.396 OA
HETATM   14  H   UNL     1      60.180   8.089   1.743  1.00  0.00     0.209 HD
ENDBRANCH  12  13
ENDBRANCH   3  12
TORSDOF 3
ENDMDL
MODEL 6
REMARK VINA RESULT:      -4.8      1.626      2.165
REMARK  3 active torsions:
REMARK  status: ('A' for Active; 'I' for Inactive)
REMARK    1  A    between atoms: N_1  and  C_2 
REMARK    2  A    between atoms: C_4  and  C_10 
REMARK    3  A    between atoms: O_8  and  C_10 
ROOT
HETATM    1  C   UNL     1      65.061   7.902   4.934  1.00  0.00     0.030 A 
HETATM    2  C   UNL     1      64.255   9.034   5.109  1.00  0.00     0.038 A 
HETATM    3  C   UNL     1      63.135   9.282   4.290  1.00  0.00    -0.033 A 
HETATM    4  C   UNL     1      64.716   7.021   3.897  1.00  0.00     0.029 A 
HETATM    5  C   UNL     1      63.605   7.243   3.083  1.00  0.00     0.003 A 
HETATM    6  C   UNL     1      62.813   8.371   3.280  1.00  0.00     0.009 A 
ENDROOT
BRANCH   1   7
HETATM    7  N   UNL     1      66.177   7.614   5.711  1.00  0.00    -0.381 N 
HETATM    8  C   UNL     1      67.400   7.037   5.146  1.00  0.00     0.123 C 
HETATM    9  C   UNL     1      67.694   5.819   6.011  1.00  0.00     0.021 C 
HETATM   10  C   UNL     1      67.145   6.225   7.369  1.00  0.00     0.021 C 
HETATM   11  C   UNL     1      65.877   6.995   7.012  1.00  0.00     0.123 C 
ENDBRANCH   1   7
BRANCH   3  12
HETATM   12  C   UNL     1      62.306  10.522   4.496  1.00  0.00     0.203 C 
BRANCH  12  13
HETATM   13  O   UNL     1      61.207  10.553   3.595  1.00  0.00    -0.396 OA
HETATM   14  H   UNL     1      61.458  11.043   2.795  1.00  0.00     0.209 HD
ENDBRANCH  12  13
ENDBRANCH   3  12
TORSDOF 3
ENDMDL
MODEL 7
REMARK VINA RESULT:      -4.4      2.086      2.677
REMARK  3 active torsions:
REMARK  status: ('A' for Active; 'I' for Inactive)
REMARK    1  A    between atoms: N_1  and  C_2 
REMARK    2  A    between atoms: C_4  and  C_10 
REMARK    3  A    between atoms: O_8  and  C_10 
ROOT
HETATM    1  C   UNL     1      62.903   7.862   2.699  1.00  0.00     0.030 A 
HETATM    2  C   UNL     1      62.901   8.756   3.779  1.00  0.00     0.038 A 
HETATM    3  C   UNL     1      62.406  10.069   3.655  1.00  0.00    -0.033 A 
HETATM    4  C   UNL     1      62.401   8.332   1.476  1.00  0.00     0.029 A 
HETATM    5  C   UNL     1      61.896   9.625   1.336  1.00  0.00     0.003 A 
HETATM    6  C   UNL     1      61.896  10.493   2.424  1.00  0.00     0.009 A 
ENDROOT
BRANCH   1   7
HETATM    7  N   UNL     1      63.383   6.559   2.768  1.00  0.00    -0.381 N 
HETATM    8  C   UNL     1      62.543   5.434   3.189  1.00  0.00     0.123 C 
HETATM    9  C   UNL     1      63.335   4.748   4.294  1.00  0.00     0.021 C 
HETATM   10  C   UNL     1      64.778   5.008   3.892  1.00  0.00     0.021 C 
HETATM   11  C   UNL     1      64.731   6.432   3.344  1.00  0.00     0.123 C 
ENDBRANCH   1   7
BRANCH   3  12
HETATM   12  C   UNL     1      62.440  11.006   4.833  1.00  0.00     0.203 C 
BRANCH  12  13
HETATM   13  O   UNL     1      61.943  12.288   4.476  1.00  0.00    -0.396 OA
HETATM   14  H   UNL     1      61.023  12.373   4.774  1.00  0.00     0.209 HD
ENDBRANCH  12  13
ENDBRANCH   3  12
TORSDOF 3
ENDMDL
MODEL 8
REMARK VINA RESULT:      -4.3      1.984      4.755
REMARK  3 active torsions:
REMARK  status: ('A' for Active; 'I' for Inactive)
REMARK    1  A    between atoms: N_1  and  C_2 
REMARK    2  A    between atoms: C_4  and  C_10 
REMARK    3  A    between atoms: O_8  and  C_10 
ROOT
HETATM    1  C   UNL     1      64.349   7.746   4.131  1.00  0.00     0.030 A 
HETATM    2  C   UNL     1      65.554   8.073   4.768  1.00  0.00     0.038 A 
HETATM    3  C   UNL     1      66.702   7.266   4.644  1.00  0.00    -0.033 A 
HETATM    4  C   UNL     1      64.325   6.569   3.368  1.00  0.00     0.029 A 
HETATM    5  C   UNL     1      65.455   5.762   3.223  1.00  0.00     0.003 A 
HETATM    6  C   UNL     1      66.643   6.111   3.859  1.00  0.00     0.009 A 
ENDROOT
BRANCH   1   7
HETATM    7  N   UNL     1      63.188   8.505   4.224  1.00  0.00    -0.381 N 
HETATM    8  C   UNL     1      62.288   8.707   3.085  1.00  0.00     0.123 C 
HETATM    9  C   UNL     1      62.105  10.216   2.996  1.00  0.00     0.021 C 
HETATM   10  C   UNL     1      62.232  10.661   4.444  1.00  0.00     0.021 C 
HETATM   11  C   UNL     1      63.332   9.755   4.988  1.00  0.00     0.123 C 
ENDBRANCH   1   7
BRANCH   3  12
HETATM   12  C   UNL     1      67.972   7.640   5.362  1.00  0.00     0.203 C 
BRANCH  12  13
HETATM   13  O   UNL     1      68.005   7.071   6.664  1.00  0.00    -0.396 OA
HETATM   14  H   UNL     1      67.872   6.111   6.601  1.00  0.00     0.209 HD
ENDBRANCH  12  13
ENDBRANCH   3  12
TORSDOF 3
ENDMDL
MODEL 9
REMARK VINA RESULT:      -4.2      4.215      5.709
REMARK  3 active torsions:
REMARK  status: ('A' for Active; 'I' for Inactive)
REMARK    1  A    between atoms: N_1  and  C_2 
REMARK    2  A    between atoms: C_4  and  C_10 
REMARK    3  A    between atoms: O_8  and  C_10 
ROOT
HETATM    1  C   UNL     1      60.306   7.992   2.695  1.00  0.00     0.030 A 
HETATM    2  C   UNL     1      60.863   8.833   3.668  1.00  0.00     0.038 A 
HETATM    3  C   UNL     1      61.811   9.823   3.339  1.00  0.00    -0.033 A 
HETATM    4  C   UNL     1      60.739   8.166   1.371  1.00  0.00     0.029 A 
HETATM    5  C   UNL     1      61.667   9.149   1.024  1.00  0.00     0.003 A 
HETATM    6  C   UNL     1      62.201   9.978   2.006  1.00  0.00     0.009 A 
ENDROOT
BRANCH   1   7
HETATM    7  N   UNL     1      59.373   6.999   2.967  1.00  0.00    -0.381 N 
HETATM    8  C   UNL     1      58.011   7.031   2.426  1.00  0.00     0.123 C 
HETATM    9  C   UNL     1      57.105   6.855   3.638  1.00  0.00     0.021 C 
HETATM   10  C   UNL     1      57.944   5.993   4.567  1.00  0.00     0.021 C 
HETATM   11  C   UNL     1      59.354   6.540   4.365  1.00  0.00     0.123 C 
ENDBRANCH   1   7
BRANCH   3  12
HETATM   12  C   UNL     1      62.402  10.692   4.417  1.00  0.00     0.203 C 
BRANCH  12  13
HETATM   13  O   UNL     1      62.094  12.061   4.191  1.00  0.00    -0.396 OA
HETATM   14  H   UNL     1      62.905  12.540   3.954  1.00  0.00     0.209 HD
ENDBRANCH  12  13
ENDBRANCH   3  12
TORSDOF 3
ENDMDL
