MODEL 1
REMARK VINA RESULT:      -5.6      0.000      0.000
REMARK  3 active torsions:
REMARK  status: ('A' for Active; 'I' for Inactive)
REMARK    1  A    between atoms: C_1  and  N_4 
REMARK    2  A    between atoms: CA_5  and  C_11 
REMARK    3  A    between atoms: O_9  and  C_11 
ROOT
HETATM    1  C   UNL     1      64.852   7.874   5.156  1.00  0.00     0.103 A 
HETATM    2  N   UNL     1      64.497   9.052   5.713  1.00  0.00    -0.344 N 
ATOM      3  HN  UNL     1      64.959   9.392   6.556  1.00  0.00     0.167 HD
HETATM    4  CA  UNL     1      63.503   9.775   5.117  1.00  0.00     0.034 A 
HETATM    5  C   UNL     1      64.202   7.395   4.014  1.00  0.00     0.048 A 
HETATM    6  C   UNL     1      63.185   8.135   3.421  1.00  0.00     0.006 A 
HETATM    7  C   UNL     1      62.829   9.350   3.978  1.00  0.00     0.027 A 
ENDROOT
BRANCH   1   8
HETATM    8  N   UNL     1      65.829   7.068   5.743  1.00  0.00    -0.367 N 
HETATM    9  C   UNL     1      66.534   7.622   6.900  1.00  0.00     0.124 C 
HETATM   10  C   UNL     1      67.117   6.444   7.688  1.00  0.00     0.020 C 
HETATM   11  C   UNL     1      68.006   5.560   6.810  1.00  0.00     0.003 C 
HETATM   12  C   UNL     1      67.312   5.166   5.505  1.00  0.00     0.020 C 
HETATM   13  C   UNL     1      66.715   6.382   4.796  1.00  0.00     0.124 C 
ENDBRANCH   1   8
BRANCH   4  14
HETATM   14  C   UNL     1      63.141  11.103   5.745  1.00  0.00     0.221 C 
BRANCH  14  15
HETATM   15  O   UNL     1      64.231  11.638   6.493  1.00  0.00    -0.395 OA
HETATM   16  H   UNL     1      63.898  12.038   7.312  1.00  0.00     0.209 HD
ENDBRANCH  14  15
ENDBRANCH   4  14
TORSDOF 3
ENDMDL
MODEL 2
REMARK VINA RESULT:      -4.8      1.979      5.180
REMARK  3 active torsions:
REMARK  status: ('A' for Active; 'I' for Inactive)
REMARK    1  A    between atoms: C_1  and  N_4 
REMARK    2  A    between atoms: CA_5  and  C_11 
REMARK    3  A    between atoms: O_9  and  C_11 
ROOT
HETATM    1  C   UNL     1      63.629   7.740   5.464  1.00  0.00     0.103 A 
HETATM    2  N   UNL     1      64.797   7.971   6.101  1.00  0.00    -0.344 N 
ATOM      3  HN  UNL     1      65.234   8.892   6.076  1.00  0.00     0.167 HD
HETATM    4  CA  UNL     1      65.379   6.937   6.779  1.00  0.00     0.034 A 
HETATM    5  C   UNL     1      63.043   6.470   5.477  1.00  0.00     0.048 A 
HETATM    6  C   UNL     1      63.648   5.423   6.161  1.00  0.00     0.006 A 
HETATM    7  C   UNL     1      64.837   5.658   6.829  1.00  0.00     0.027 A 
ENDROOT
BRANCH   1   8
HETATM    8  N   UNL     1      63.009   8.743   4.717  1.00  0.00    -0.367 N 
HETATM    9  C   UNL     1      62.938   8.539   3.269  1.00  0.00     0.124 C 
HETATM   10  C   UNL     1      61.798   9.416   2.739  1.00  0.00     0.020 C 
HETATM   11  C   UNL     1      61.983  10.885   3.131  1.00  0.00     0.003 C 
HETATM   12  C   UNL     1      62.265  11.048   4.625  1.00  0.00     0.020 C 
HETATM   13  C   UNL     1      63.379  10.112   5.093  1.00  0.00     0.124 C 
ENDBRANCH   1   8
BRANCH   4  14
HETATM   14  C   UNL     1      66.674   7.227   7.505  1.00  0.00     0.221 C 
BRANCH  14  15
HETATM   15  O   UNL     1      67.054   8.595   7.362  1.00  0.00    -0.395 OA
HETATM   16  H   UNL     1      66.367   9.072   6.870  1.00  0.00     0.209 HD
ENDBRANCH  14  15
ENDBRANCH   4  14
TORSDOF 3
ENDMDL
MODEL 3
REMARK VINA RESULT:      -4.8      2.207      5.078
REMARK  3 active torsions:
REMARK  status: ('A' for Active; 'I' for Inactive)
REMARK    1  A    between atoms: C_1  and  N_4 
REMARK    2  A    between atoms: CA_5  and  C_11 
REMARK    3  A    between atoms: O_9  and  C_11 
ROOT
HETATM    1  C   UNL     1      65.312   7.777   5.282  1.00  0.00     0.103 A 
HETATM    2  N   UNL     1      65.231   7.456   6.591  1.00  0.00    -0.344 N 
ATOM      3  HN  UNL     1      64.376   7.628   7.120  1.00  0.00     0.167 HD
HETATM    4  CA  UNL     1      66.324   6.894   7.188  1.00  0.00     0.034 A 
HETATM    5  C   UNL     1      66.492   7.564   4.563  1.00  0.00     0.048 A 
HETATM    6  C   UNL     1      67.602   7.001   5.182  1.00  0.00     0.006 A 
HETATM    7  C   UNL     1      67.519   6.655   6.519  1.00  0.00     0.027 A 
ENDROOT
BRANCH   1   8
HETATM    8  N   UNL     1      64.246   8.395   4.627  1.00  0.00    -0.367 N 
HETATM    9  C   UNL     1      63.346   9.205   5.450  1.00  0.00     0.124 C 
HETATM   10  C   UNL     1      62.630  10.186   4.515  1.00  0.00     0.020 C 
HETATM   11  C   UNL     1      61.911   9.460   3.375  1.00  0.00     0.003 C 
HETATM   12  C   UNL     1      62.825   8.461   2.664  1.00  0.00     0.020 C 
HETATM   13  C   UNL     1      63.541   7.547   3.658  1.00  0.00     0.124 C 
ENDBRANCH   1   8
BRANCH   4  14
HETATM   14  C   UNL     1      66.200   6.520   8.649  1.00  0.00     0.221 C 
BRANCH  14  15
HETATM   15  O   UNL     1      66.201   5.105   8.824  1.00  0.00    -0.395 OA
HETATM   16  H   UNL     1      66.424   4.892   9.743  1.00  0.00     0.209 HD
ENDBRANCH  14  15
ENDBRANCH   4  14
TORSDOF 3
ENDMDL
MODEL 4
REMARK VINA RESULT:      -4.8      1.474      1.551
REMARK  3 active torsions:
REMARK  status: ('A' for Active; 'I' for Inactive)
REMARK    1  A    between atoms: C_1  and  N_4 
REMARK    2  A    between atoms: CA_5  and  C_11 
REMARK    3  A    between atoms: O_9  and  C_11 
ROOT
HETATM    1  C   UNL     1      64.424   7.807   4.307  1.00  0.00     0.103 A 
HETATM    2  N   UNL     1      63.856   8.976   4.674  1.00  0.00    -0.344 N 
ATOM      3  HN  UNL     1      64.209   9.501   5.474  1.00  0.00     0.167 HD
HETATM    4  CA  UNL     1      62.796   9.436   3.945  1.00  0.00     0.034 A 
HETATM    5  C   UNL     1      63.925   7.074   3.226  1.00  0.00     0.048 A 
HETATM    6  C   UNL     1      62.840   7.547   2.497  1.00  0.00     0.006 A 
HETATM    7  C   UNL     1      62.264   8.752   2.858  1.00  0.00     0.027 A 
ENDROOT
BRANCH   1   8
HETATM    8  N   UNL     1      65.481   7.263   5.039  1.00  0.00    -0.367 N 
HETATM    9  C   UNL     1      66.071   8.110   6.076  1.00  0.00     0.124 C 
HETATM   10  C   UNL     1      66.781   7.186   7.072  1.00  0.00     0.020 C 
HETATM   11  C   UNL     1      67.805   6.284   6.379  1.00  0.00     0.003 C 
HETATM   12  C   UNL     1      67.210   5.568   5.165  1.00  0.00     0.020 C 
HETATM   13  C   UNL     1      66.478   6.541   4.241  1.00  0.00     0.124 C 
ENDBRANCH   1   8
BRANCH   4  14
HETATM   14  C   UNL     1      62.193  10.760   4.360  1.00  0.00     0.221 C 
BRANCH  14  15
HETATM   15  O   UNL     1      61.456  11.352   3.292  1.00  0.00    -0.395 OA
HETATM   16  H   UNL     1      61.120  12.218   3.570  1.00  0.00     0.209 HD
ENDBRANCH  14  15
ENDBRANCH   4  14
TORSDOF 3
ENDMDL
MODEL 5
REMARK VINA RESULT:      -4.7      2.273      3.129
REMARK  3 active torsions:
REMARK  status: ('A' for Active; 'I' for Inactive)
REMARK    1  A    between atoms: C_1  and  N_4 
REMARK    2  A    between atoms: CA_5  and  C_11 
REMARK    3  A    between atoms: O_9  and  C_11 
ROOT
HETATM    1  C   UNL     1      63.825   8.900   4.817  1.00  0.00     0.103 A 
HETATM    2  N   UNL     1      63.357   8.488   3.619  1.00  0.00    -0.344 N 
ATOM      3  HN  UNL     1      63.688   7.620   3.199  1.00  0.00     0.167 HD
HETATM    4  CA  UNL     1      62.429   9.264   2.986  1.00  0.00     0.034 A 
HETATM    5  C   UNL     1      63.389  10.103   5.383  1.00  0.00     0.048 A 
HETATM    6  C   UNL     1      62.452  10.890   4.725  1.00  0.00     0.006 A 
HETATM    7  C   UNL     1      61.957  10.464   3.505  1.00  0.00     0.027 A 
ENDROOT
BRANCH   1   8
HETATM    8  N   UNL     1      64.807   8.174   5.492  1.00  0.00    -0.367 N 
HETATM    9  C   UNL     1      66.064   7.941   4.778  1.00  0.00     0.124 C 
HETATM   10  C   UNL     1      67.139   7.643   5.829  1.00  0.00     0.020 C 
HETATM   11  C   UNL     1      66.738   6.476   6.735  1.00  0.00     0.003 C 
HETATM   12  C   UNL     1      65.329   6.649   7.303  1.00  0.00     0.020 C 
HETATM   13  C   UNL     1      64.318   6.990   6.208  1.00  0.00     0.124 C 
ENDBRANCH   1   8
BRANCH   4  14
HETATM   14  C   UNL     1      61.901   8.768   1.657  1.00  0.00     0.221 C 
BRANCH  14  15
HETATM   15  O   UNL     1      60.518   9.081   1.499  1.00  0.00    -0.395 OA
HETATM   16  H   UNL     1      60.056   8.321   1.113  1.00  0.00     0.209 HD
ENDBRANCH  14  15
ENDBRANCH   4  14
TORSDOF 3
ENDMDL
MODEL 6
REMARK VINA RESULT:      -4.6      2.595      5.358
REMARK  3 active torsions:
REMARK  status: ('A' for Active; 'I' for Inactive)
REMARK    1  A    between atoms: C_1  and  N_4 
REMARK    2  A    between atoms: CA_5  and  C_11 
REMARK    3  A    between atoms: O_9  and  C_11 
ROOT
HETATM    1  C   UNL     1      62.805   8.069   3.407  1.00  0.00     0.103 A 
HETATM    2  N   UNL     1      62.577   9.230   4.058  1.00  0.00    -0.344 N 
ATOM      3  HN  UNL     1      61.750   9.791   3.854  1.00  0.00     0.167 HD
HETATM    4  CA  UNL     1      63.483   9.632   4.998  1.00  0.00     0.034 A 
HETATM    5  C   UNL     1      63.951   7.312   3.669  1.00  0.00     0.048 A 
HETATM    6  C   UNL     1      64.871   7.735   4.621  1.00  0.00     0.006 A 
HETATM    7  C   UNL     1      64.634   8.915   5.303  1.00  0.00     0.027 A 
ENDROOT
BRANCH   1   8
HETATM    8  N   UNL     1      61.940   7.628   2.404  1.00  0.00    -0.367 N 
HETATM    9  C   UNL     1      60.961   8.594   1.904  1.00  0.00     0.124 C 
HETATM   10  C   UNL     1      60.523   8.124   0.513  1.00  0.00     0.020 C 
HETATM   11  C   UNL     1      59.990   6.689   0.541  1.00  0.00     0.003 C 
HETATM   12  C   UNL     1      60.948   5.736   1.258  1.00  0.00     0.020 C 
HETATM   13  C   UNL     1      61.380   6.289   2.616  1.00  0.00     0.124 C 
ENDBRANCH   1   8
BRANCH   4  14
HETATM   14  C   UNL     1      63.192  10.923   5.733  1.00  0.00     0.221 C 
BRANCH  14  15
HETATM   15  O   UNL     1      64.355  11.415   6.396  1.00  0.00    -0.395 OA
HETATM   16  H   UNL     1      65.120  10.868   6.159  1.00  0.00     0.209 HD
ENDBRANCH  14  15
ENDBRANCH   4  14
TORSDOF 3
ENDMDL
MODEL 7
REMARK VINA RESULT:      -4.3      2.875      5.739
REMARK  3 active torsions:
REMARK  status: ('A' for Active; 'I' for Inactive)
REMARK    1  A    between atoms: C_1  and  N_4 
REMARK    2  A    between atoms: CA_5  and  C_11 
REMARK    3  A    between atoms: O_9  and  C_11 
ROOT
HETATM    1  C   UNL     1      61.990   7.413   4.378  1.00  0.00     0.103 A 
HETATM    2  N   UNL     1      63.086   7.196   5.136  1.00  0.00    -0.344 N 
ATOM      3  HN  UNL     1      63.861   7.859   5.138  1.00  0.00     0.167 HD
HETATM    4  CA  UNL     1      63.129   6.064   5.901  1.00  0.00     0.034 A 
HETATM    5  C   UNL     1      60.938   6.492   4.356  1.00  0.00     0.048 A 
HETATM    6  C   UNL     1      60.996   5.339   5.130  1.00  0.00     0.006 A 
HETATM    7  C   UNL     1      62.110   5.119   5.922  1.00  0.00     0.027 A 
ENDROOT
BRANCH   1   8
HETATM    8  N   UNL     1      61.906   8.527   3.542  1.00  0.00    -0.367 N 
HETATM    9  C   UNL     1      62.295   8.334   2.144  1.00  0.00     0.124 C 
HETATM   10  C   UNL     1      61.634   9.450   1.327  1.00  0.00     0.020 C 
HETATM   11  C   UNL     1      61.994  10.837   1.865  1.00  0.00     0.003 C 
HETATM   12  C   UNL     1      61.772  10.942   3.374  1.00  0.00     0.020 C 
HETATM   13  C   UNL     1      62.418   9.775   4.121  1.00  0.00     0.124 C 
ENDBRANCH   1   8
BRANCH   4  14
HETATM   14  C   UNL     1      64.357   5.856   6.761  1.00  0.00     0.221 C 
BRANCH  14  15
HETATM   15  O   UNL     1      64.759   7.069   7.394  1.00  0.00    -0.395 OA
HETATM   16  H   UNL     1      64.066   7.739   7.281  1.00  0.00     0.209 HD
ENDBRANCH  14  15
ENDBRANCH   4  14
TORSDOF 3
ENDMDL
MODEL 8
REMARK VINA RESULT:      -4.1      2.434      3.116
REMARK  3 active torsions:
REMARK  status: ('A' for Active; 'I' for Inactive)
REMARK    1  A    between atoms: C_1  and  N_4 
REMARK    2  A    between atoms: CA_5  and  C_11 
REMARK    3  A    between atoms: O_9  and  C_11 
ROOT
HETATM    1  C   UNL     1      64.997   7.041   6.299  1.00  0.00     0.103 A 
HETATM    2  N   UNL     1      63.739   6.557   6.384  1.00  0.00    -0.344 N 
ATOM      3  HN  UNL     1      63.540   5.706   6.910  1.00  0.00     0.167 HD
HETATM    4  CA  UNL     1      62.741   7.237   5.746  1.00  0.00     0.034 A 
HETATM    5  C   UNL     1      65.275   8.194   5.558  1.00  0.00     0.048 A 
HETATM    6  C   UNL     1      64.253   8.872   4.904  1.00  0.00     0.006 A 
HETATM    7  C   UNL     1      62.959   8.390   5.001  1.00  0.00     0.027 A 
ENDROOT
BRANCH   1   8
HETATM    8  N   UNL     1      66.066   6.366   6.891  1.00  0.00    -0.367 N 
HETATM    9  C   UNL     1      66.408   5.055   6.337  1.00  0.00     0.124 C 
HETATM   10  C   UNL     1      67.861   4.760   6.723  1.00  0.00     0.020 C 
HETATM   11  C   UNL     1      68.075   4.846   8.236  1.00  0.00     0.003 C 
HETATM   12  C   UNL     1      67.517   6.145   8.821  1.00  0.00     0.020 C 
HETATM   13  C   UNL     1      66.082   6.399   8.358  1.00  0.00     0.124 C 
ENDBRANCH   1   8
BRANCH   4  14
HETATM   14  C   UNL     1      61.336   6.689   5.877  1.00  0.00     0.221 C 
BRANCH  14  15
HETATM   15  O   UNL     1      60.925   6.027   4.682  1.00  0.00    -0.395 OA
HETATM   16  H   UNL     1      60.057   6.363   4.408  1.00  0.00     0.209 HD
ENDBRANCH  14  15
ENDBRANCH   4  14
TORSDOF 3
ENDMDL
MODEL 9
REMARK VINA RESULT:      -4.0      2.225      3.083
REMARK  3 active torsions:
REMARK  status: ('A' for Active; 'I' for Inactive)
REMARK    1  A    between atoms: C_1  and  N_4 
REMARK    2  A    between atoms: CA_5  and  C_11 
REMARK    3  A    between atoms: O_9  and  C_11 
ROOT
HETATM    1  C   UNL     1      64.309   7.952   4.234  1.00  0.00     0.103 A 
HETATM    2  N   UNL     1      63.437   7.754   3.222  1.00  0.00    -0.344 N 
ATOM      3  HN  UNL     1      63.546   6.966   2.584  1.00  0.00     0.167 HD
HETATM    4  CA  UNL     1      62.406   8.638   3.076  1.00  0.00     0.034 A 
HETATM    5  C   UNL     1      64.175   9.047   5.094  1.00  0.00     0.048 A 
HETATM    6  C   UNL     1      63.127   9.946   4.930  1.00  0.00     0.006 A 
HETATM    7  C   UNL     1      62.221   9.738   3.905  1.00  0.00     0.027 A 
ENDROOT
BRANCH   1   8
HETATM    8  N   UNL     1      65.409   7.111   4.408  1.00  0.00    -0.367 N 
HETATM    9  C   UNL     1      65.230   5.706   4.037  1.00  0.00     0.124 C 
HETATM   10  C   UNL     1      66.623   5.119   3.783  1.00  0.00     0.020 C 
HETATM   11  C   UNL     1      67.547   5.309   4.989  1.00  0.00     0.003 C 
HETATM   12  C   UNL     1      67.552   6.756   5.485  1.00  0.00     0.020 C 
HETATM   13  C   UNL     1      66.132   7.291   5.672  1.00  0.00     0.124 C 
ENDBRANCH   1   8
BRANCH   4  14
HETATM   14  C   UNL     1      61.427   8.381   1.951  1.00  0.00     0.221 C 
BRANCH  14  15
HETATM   15  O   UNL     1      60.759   9.579   1.561  1.00  0.00    -0.395 OA
HETATM   16  H   UNL     1      60.815  10.230   2.278  1.00  0.00     0.209 HD
ENDBRANCH  14  15
ENDBRANCH   4  14
TORSDOF 3
ENDMDL
