MODEL 1
REMARK VINA RESULT:      -5.3      0.000      0.000
REMARK  3 active torsions:
REMARK  status: ('A' for Active; 'I' for Inactive)
REMARK    1  A    between atoms: C_1  and  N_4 
REMARK    2  A    between atoms: C_5  and  C_11 
REMARK    3  A    between atoms: N_6  and  C_11 
ROOT
HETATM    1  C   UNL     1      64.886   7.713   5.157  1.00  0.00     0.103 A 
HETATM    2  N   UNL     1      64.392   8.889   5.599  1.00  0.00    -0.344 N 
ATOM      3  HN  UNL     1      64.752   9.314   6.454  1.00  0.00     0.167 HD
HETATM    4  C   UNL     1      63.407   9.498   4.886  1.00  0.00     0.036 A 
HETATM    5  C   UNL     1      64.399   7.128   3.988  1.00  0.00     0.048 A 
HETATM    6  C   UNL     1      63.409   7.766   3.246  1.00  0.00     0.006 A 
HETATM    7  C   UNL     1      62.901   8.971   3.703  1.00  0.00     0.027 A 
ENDROOT
BRANCH   1   8
HETATM    8  N   UNL     1      65.969   7.133   5.803  1.00  0.00    -0.367 N 
HETATM    9  C   UNL     1      66.918   6.373   4.996  1.00  0.00     0.124 C 
HETATM   10  C   UNL     1      67.468   5.249   5.881  1.00  0.00     0.020 C 
HETATM   11  C   UNL     1      68.046   5.786   7.196  1.00  0.00     0.003 C 
HETATM   12  C   UNL     1      67.074   6.732   7.905  1.00  0.00     0.020 C 
HETATM   13  C   UNL     1      66.556   7.811   6.954  1.00  0.00     0.124 C 
ENDBRANCH   1   8
BRANCH   4  14
HETATM   14  C   UNL     1      62.889  10.815   5.412  1.00  0.00     0.286 C 
BRANCH  14  15
HETATM   15  N   UNL     1      63.826  11.457   6.344  1.00  0.00    -0.074 N 
HETATM   16  H   UNL     1      64.783  11.268   6.048  1.00  0.00     0.274 HD
HETATM   17  H   UNL     1      63.680  11.083   7.282  1.00  0.00     0.274 HD
HETATM   18  H   UNL     1      63.663  12.464   6.349  1.00  0.00     0.274 HD
ENDBRANCH  14  15
ENDBRANCH   4  14
TORSDOF 3
ENDMDL
MODEL 2
REMARK VINA RESULT:      -4.9      1.416      5.118
REMARK  3 active torsions:
REMARK  status: ('A' for Active; 'I' for Inactive)
REMARK    1  A    between atoms: C_1  and  N_4 
REMARK    2  A    between atoms: C_5  and  C_11 
REMARK    3  A    between atoms: N_6  and  C_11 
ROOT
HETATM    1  C   UNL     1      65.213   7.917   5.284  1.00  0.00     0.103 A 
HETATM    2  N   UNL     1      65.163   7.502   6.568  1.00  0.00    -0.344 N 
ATOM      3  HN  UNL     1      64.309   7.613   7.116  1.00  0.00     0.167 HD
HETATM    4  C   UNL     1      66.270   6.935   7.119  1.00  0.00     0.036 A 
HETATM    5  C   UNL     1      66.376   7.767   4.529  1.00  0.00     0.048 A 
HETATM    6  C   UNL     1      67.499   7.162   5.087  1.00  0.00     0.006 A 
HETATM    7  C   UNL     1      67.447   6.740   6.406  1.00  0.00     0.027 A 
ENDROOT
BRANCH   1   8
HETATM    8  N   UNL     1      64.064   8.392   4.667  1.00  0.00    -0.367 N 
HETATM    9  C   UNL     1      63.432   7.547   3.659  1.00  0.00     0.124 C 
HETATM   10  C   UNL     1      62.787   8.479   2.627  1.00  0.00     0.020 C 
HETATM   11  C   UNL     1      61.843   9.494   3.281  1.00  0.00     0.003 C 
HETATM   12  C   UNL     1      62.504  10.215   4.458  1.00  0.00     0.020 C 
HETATM   13  C   UNL     1      63.138   9.222   5.432  1.00  0.00     0.124 C 
ENDBRANCH   1   8
BRANCH   4  14
HETATM   14  C   UNL     1      66.168   6.478   8.554  1.00  0.00     0.286 C 
BRANCH  14  15
HETATM   15  N   UNL     1      66.230   5.016   8.687  1.00  0.00    -0.074 N 
HETATM   16  H   UNL     1      65.734   4.583   7.907  1.00  0.00     0.274 HD
HETATM   17  H   UNL     1      65.792   4.737   9.565  1.00  0.00     0.274 HD
HETATM   18  H   UNL     1      67.204   4.715   8.680  1.00  0.00     0.274 HD
ENDBRANCH  14  15
ENDBRANCH   4  14
TORSDOF 3
ENDMDL
MODEL 3
REMARK VINA RESULT:      -4.7      2.323      3.367
REMARK  3 active torsions:
REMARK  status: ('A' for Active; 'I' for Inactive)
REMARK    1  A    between atoms: C_1  and  N_4 
REMARK    2  A    between atoms: C_5  and  C_11 
REMARK    3  A    between atoms: N_6  and  C_11 
ROOT
HETATM    1  C   UNL     1      63.430   8.928   4.570  1.00  0.00     0.103 A 
HETATM    2  N   UNL     1      62.977   8.663   3.326  1.00  0.00    -0.344 N 
ATOM      3  HN  UNL     1      63.196   7.776   2.872  1.00  0.00     0.167 HD
HETATM    4  C   UNL     1      62.224   9.599   2.687  1.00  0.00     0.036 A 
HETATM    5  C   UNL     1      63.133  10.138   5.196  1.00  0.00     0.048 A 
HETATM    6  C   UNL     1      62.340  11.084   4.551  1.00  0.00     0.006 A 
HETATM    7  C   UNL     1      61.879  10.811   3.273  1.00  0.00     0.027 A 
ENDROOT
BRANCH   1   8
HETATM    8  N   UNL     1      64.100   7.944   5.284  1.00  0.00    -0.367 N 
HETATM    9  C   UNL     1      65.503   8.177   5.612  1.00  0.00     0.124 C 
HETATM   10  C   UNL     1      66.196   6.810   5.628  1.00  0.00     0.020 C 
HETATM   11  C   UNL     1      65.488   5.817   6.555  1.00  0.00     0.003 C 
HETATM   12  C   UNL     1      63.981   5.758   6.288  1.00  0.00     0.020 C 
HETATM   13  C   UNL     1      63.366   7.158   6.270  1.00  0.00     0.124 C 
ENDBRANCH   1   8
BRANCH   4  14
HETATM   14  C   UNL     1      61.731   9.258   1.301  1.00  0.00     0.286 C 
BRANCH  14  15
HETATM   15  N   UNL     1      60.333   8.808   1.295  1.00  0.00    -0.074 N 
HETATM   16  H   UNL     1      59.716   9.617   1.236  1.00  0.00     0.274 HD
HETATM   17  H   UNL     1      60.139   8.294   2.154  1.00  0.00     0.274 HD
HETATM   18  H   UNL     1      60.175   8.200   0.491  1.00  0.00     0.274 HD
ENDBRANCH  14  15
ENDBRANCH   4  14
TORSDOF 3
ENDMDL
MODEL 4
REMARK VINA RESULT:      -4.7      1.758      5.220
REMARK  3 active torsions:
REMARK  status: ('A' for Active; 'I' for Inactive)
REMARK    1  A    between atoms: C_1  and  N_4 
REMARK    2  A    between atoms: C_5  and  C_11 
REMARK    3  A    between atoms: N_6  and  C_11 
ROOT
HETATM    1  C   UNL     1      63.670   7.701   5.290  1.00  0.00     0.103 A 
HETATM    2  N   UNL     1      64.785   7.830   6.041  1.00  0.00    -0.344 N 
ATOM      3  HN  UNL     1      65.307   8.707   6.048  1.00  0.00     0.167 HD
HETATM    4  C   UNL     1      65.202   6.772   6.787  1.00  0.00     0.036 A 
HETATM    5  C   UNL     1      62.952   6.506   5.277  1.00  0.00     0.048 A 
HETATM    6  C   UNL     1      63.365   5.432   6.062  1.00  0.00     0.006 A 
HETATM    7  C   UNL     1      64.512   5.566   6.829  1.00  0.00     0.027 A 
ENDROOT
BRANCH   1   8
HETATM    8  N   UNL     1      63.164   8.802   4.613  1.00  0.00    -0.367 N 
HETATM    9  C   UNL     1      63.551  10.128   5.081  1.00  0.00     0.124 C 
HETATM   10  C   UNL     1      62.373  11.068   4.802  1.00  0.00     0.020 C 
HETATM   11  C   UNL     1      61.935  11.020   3.335  1.00  0.00     0.003 C 
HETATM   12  C   UNL     1      61.727   9.585   2.845  1.00  0.00     0.020 C 
HETATM   13  C   UNL     1      62.935   8.706   3.174  1.00  0.00     0.124 C 
ENDBRANCH   1   8
BRANCH   4  14
HETATM   14  C   UNL     1      66.448   6.962   7.618  1.00  0.00     0.286 C 
BRANCH  14  15
HETATM   15  N   UNL     1      67.054   8.287   7.430  1.00  0.00    -0.074 N 
HETATM   16  H   UNL     1      66.415   9.004   7.771  1.00  0.00     0.274 HD
HETATM   17  H   UNL     1      67.236   8.438   6.437  1.00  0.00     0.274 HD
HETATM   18  H   UNL     1      67.931   8.336   7.949  1.00  0.00     0.274 HD
ENDBRANCH  14  15
ENDBRANCH   4  14
TORSDOF 3
ENDMDL
MODEL 5
REMARK VINA RESULT:      -4.6      1.670      2.117
REMARK  3 active torsions:
REMARK  status: ('A' for Active; 'I' for Inactive)
REMARK    1  A    between atoms: C_1  and  N_4 
REMARK    2  A    between atoms: C_5  and  C_11 
REMARK    3  A    between atoms: N_6  and  C_11 
ROOT
HETATM    1  C   UNL     1      64.115   7.781   4.223  1.00  0.00     0.103 A 
HETATM    2  N   UNL     1      63.545   8.987   4.428  1.00  0.00    -0.344 N 
ATOM      3  HN  UNL     1      63.810   9.555   5.234  1.00  0.00     0.167 HD
HETATM    4  C   UNL     1      62.613   9.433   3.544  1.00  0.00     0.036 A 
HETATM    5  C   UNL     1      63.759   7.000   3.123  1.00  0.00     0.048 A 
HETATM    6  C   UNL     1      62.824   7.470   2.205  1.00  0.00     0.006 A 
HETATM    7  C   UNL     1      62.238   8.707   2.420  1.00  0.00     0.027 A 
ENDROOT
BRANCH   1   8
HETATM    8  N   UNL     1      65.150   7.357   5.045  1.00  0.00    -0.367 N 
HETATM    9  C   UNL     1      64.809   6.541   6.205  1.00  0.00     0.124 C 
HETATM   10  C   UNL     1      65.828   6.866   7.303  1.00  0.00     0.020 C 
HETATM   11  C   UNL     1      67.271   6.695   6.815  1.00  0.00     0.003 C 
HETATM   12  C   UNL     1      67.517   7.420   5.489  1.00  0.00     0.020 C 
HETATM   13  C   UNL     1      66.451   7.060   4.453  1.00  0.00     0.124 C 
ENDBRANCH   1   8
BRANCH   4  14
HETATM   14  C   UNL     1      62.007  10.791   3.808  1.00  0.00     0.286 C 
BRANCH  14  15
HETATM   15  N   UNL     1      61.621  11.485   2.572  1.00  0.00    -0.074 N 
HETATM   16  H   UNL     1      60.666  11.832   2.662  1.00  0.00     0.274 HD
HETATM   17  H   UNL     1      61.674  10.835   1.787  1.00  0.00     0.274 HD
HETATM   18  H   UNL     1      62.255  12.268   2.410  1.00  0.00     0.274 HD
ENDBRANCH  14  15
ENDBRANCH   4  14
TORSDOF 3
ENDMDL
MODEL 6
REMARK VINA RESULT:      -4.4      2.370      6.064
REMARK  3 active torsions:
REMARK  status: ('A' for Active; 'I' for Inactive)
REMARK    1  A    between atoms: C_1  and  N_4 
REMARK    2  A    between atoms: C_5  and  C_11 
REMARK    3  A    between atoms: N_6  and  C_11 
ROOT
HETATM    1  C   UNL     1      65.981   6.098   7.437  1.00  0.00     0.103 A 
HETATM    2  N   UNL     1      66.163   4.767   7.291  1.00  0.00    -0.344 N 
ATOM      3  HN  UNL     1      65.601   4.238   6.624  1.00  0.00     0.167 HD
HETATM    4  C   UNL     1      67.107   4.146   8.048  1.00  0.00     0.036 A 
HETATM    5  C   UNL     1      66.747   6.828   8.346  1.00  0.00     0.048 A 
HETATM    6  C   UNL     1      67.731   6.194   9.100  1.00  0.00     0.006 A 
HETATM    7  C   UNL     1      67.913   4.828   8.951  1.00  0.00     0.027 A 
ENDROOT
BRANCH   1   8
HETATM    8  N   UNL     1      65.107   6.771   6.596  1.00  0.00    -0.367 N 
HETATM    9  C   UNL     1      65.670   7.474   5.448  1.00  0.00     0.124 C 
HETATM   10  C   UNL     1      64.782   8.696   5.185  1.00  0.00     0.020 C 
HETATM   11  C   UNL     1      63.308   8.310   5.027  1.00  0.00     0.003 C 
HETATM   12  C   UNL     1      62.824   7.411   6.168  1.00  0.00     0.020 C 
HETATM   13  C   UNL     1      63.769   6.228   6.380  1.00  0.00     0.124 C 
ENDBRANCH   1   8
BRANCH   4  14
HETATM   14  C   UNL     1      67.283   2.660   7.847  1.00  0.00     0.286 C 
BRANCH  14  15
HETATM   15  N   UNL     1      66.046   1.907   8.097  1.00  0.00    -0.074 N 
HETATM   16  H   UNL     1      65.606   2.251   8.950  1.00  0.00     0.274 HD
HETATM   17  H   UNL     1      66.268   0.917   8.204  1.00  0.00     0.274 HD
HETATM   18  H   UNL     1      65.408   2.030   7.310  1.00  0.00     0.274 HD
ENDBRANCH  14  15
ENDBRANCH   4  14
TORSDOF 3
ENDMDL
MODEL 7
REMARK VINA RESULT:      -4.3      1.835      2.592
REMARK  3 active torsions:
REMARK  status: ('A' for Active; 'I' for Inactive)
REMARK    1  A    between atoms: C_1  and  N_4 
REMARK    2  A    between atoms: C_5  and  C_11 
REMARK    3  A    between atoms: N_6  and  C_11 
ROOT
HETATM    1  C   UNL     1      64.430   8.403   4.649  1.00  0.00     0.103 A 
HETATM    2  N   UNL     1      63.747   7.979   3.564  1.00  0.00    -0.344 N 
ATOM      3  HN  UNL     1      64.060   7.161   3.042  1.00  0.00     0.167 HD
HETATM    4  C   UNL     1      62.635   8.662   3.179  1.00  0.00     0.036 A 
HETATM    5  C   UNL     1      64.007   9.520   5.368  1.00  0.00     0.048 A 
HETATM    6  C   UNL     1      62.853  10.202   4.988  1.00  0.00     0.006 A 
HETATM    7  C   UNL     1      62.156   9.767   3.873  1.00  0.00     0.027 A 
ENDROOT
BRANCH   1   8
HETATM    8  N   UNL     1      65.497   7.656   5.127  1.00  0.00    -0.367 N 
HETATM    9  C   UNL     1      66.243   6.843   4.172  1.00  0.00     0.124 C 
HETATM   10  C   UNL     1      66.745   5.606   4.926  1.00  0.00     0.020 C 
HETATM   11  C   UNL     1      67.534   5.982   6.185  1.00  0.00     0.003 C 
HETATM   12  C   UNL     1      66.779   6.989   7.055  1.00  0.00     0.020 C 
HETATM   13  C   UNL     1      66.295   8.183   6.231  1.00  0.00     0.124 C 
ENDBRANCH   1   8
BRANCH   4  14
HETATM   14  C   UNL     1      61.897   8.149   1.966  1.00  0.00     0.286 C 
BRANCH  14  15
HETATM   15  N   UNL     1      60.546   8.714   1.847  1.00  0.00    -0.074 N 
HETATM   16  H   UNL     1      60.283   8.760   0.863  1.00  0.00     0.274 HD
HETATM   17  H   UNL     1      60.536   9.653   2.246  1.00  0.00     0.274 HD
HETATM   18  H   UNL     1      59.885   8.123   2.350  1.00  0.00     0.274 HD
ENDBRANCH  14  15
ENDBRANCH   4  14
TORSDOF 3
ENDMDL
MODEL 8
REMARK VINA RESULT:      -4.3      2.049      5.613
REMARK  3 active torsions:
REMARK  status: ('A' for Active; 'I' for Inactive)
REMARK    1  A    between atoms: C_1  and  N_4 
REMARK    2  A    between atoms: C_5  and  C_11 
REMARK    3  A    between atoms: N_6  and  C_11 
ROOT
HETATM    1  C   UNL     1      63.713   7.794   4.388  1.00  0.00     0.103 A 
HETATM    2  N   UNL     1      64.999   7.509   4.089  1.00  0.00    -0.344 N 
ATOM      3  HN  UNL     1      65.390   7.771   3.184  1.00  0.00     0.167 HD
HETATM    4  C   UNL     1      65.763   6.868   5.014  1.00  0.00     0.036 A 
HETATM    5  C   UNL     1      63.172   7.441   5.624  1.00  0.00     0.048 A 
HETATM    6  C   UNL     1      63.963   6.808   6.579  1.00  0.00     0.006 A 
HETATM    7  C   UNL     1      65.281   6.513   6.269  1.00  0.00     0.027 A 
ENDROOT
BRANCH   1   8
HETATM    8  N   UNL     1      62.951   8.549   3.507  1.00  0.00    -0.367 N 
HETATM    9  C   UNL     1      62.465   7.898   2.296  1.00  0.00     0.124 C 
HETATM   10  C   UNL     1      62.402   8.968   1.200  1.00  0.00     0.020 C 
HETATM   11  C   UNL     1      61.580  10.186   1.635  1.00  0.00     0.003 C 
HETATM   12  C   UNL     1      62.013  10.710   3.006  1.00  0.00     0.020 C 
HETATM   13  C   UNL     1      62.069   9.583   4.039  1.00  0.00     0.124 C 
ENDBRANCH   1   8
BRANCH   4  14
HETATM   14  C   UNL     1      67.196   6.576   4.641  1.00  0.00     0.286 C 
BRANCH  14  15
HETATM   15  N   UNL     1      67.306   5.697   3.469  1.00  0.00    -0.074 N 
HETATM   16  H   UNL     1      66.874   4.798   3.677  1.00  0.00     0.274 HD
HETATM   17  H   UNL     1      68.291   5.557   3.243  1.00  0.00     0.274 HD
HETATM   18  H   UNL     1      66.832   6.129   2.675  1.00  0.00     0.274 HD
ENDBRANCH  14  15
ENDBRANCH   4  14
TORSDOF 3
ENDMDL
MODEL 9
REMARK VINA RESULT:      -4.1      4.591      7.035
REMARK  3 active torsions:
REMARK  status: ('A' for Active; 'I' for Inactive)
REMARK    1  A    between atoms: C_1  and  N_4 
REMARK    2  A    between atoms: C_5  and  C_11 
REMARK    3  A    between atoms: N_6  and  C_11 
ROOT
HETATM    1  C   UNL     1      60.264   7.688   3.540  1.00  0.00     0.103 A 
HETATM    2  N   UNL     1      60.526   8.688   2.672  1.00  0.00    -0.344 N 
ATOM      3  HN  UNL     1      59.802   9.027   2.038  1.00  0.00     0.167 HD
HETATM    4  C   UNL     1      61.771   9.237   2.657  1.00  0.00     0.036 A 
HETATM    5  C   UNL     1      61.249   7.221   4.411  1.00  0.00     0.048 A 
HETATM    6  C   UNL     1      62.514   7.802   4.412  1.00  0.00     0.006 A 
HETATM    7  C   UNL     1      62.782   8.826   3.518  1.00  0.00     0.027 A 
ENDROOT
BRANCH   1   8
HETATM    8  N   UNL     1      58.972   7.193   3.653  1.00  0.00    -0.367 N 
HETATM    9  C   UNL     1      58.359   6.611   2.464  1.00  0.00     0.124 C 
HETATM   10  C   UNL     1      56.853   6.883   2.552  1.00  0.00     0.020 C 
HETATM   11  C   UNL     1      56.257   6.390   3.875  1.00  0.00     0.003 C 
HETATM   12  C   UNL     1      57.060   6.879   5.083  1.00  0.00     0.020 C 
HETATM   13  C   UNL     1      58.551   6.588   4.913  1.00  0.00     0.124 C 
ENDBRANCH   1   8
BRANCH   4  14
HETATM   14  C   UNL     1      62.018  10.358   1.677  1.00  0.00     0.286 C 
BRANCH  14  15
HETATM   15  N   UNL     1      61.597  11.666   2.198  1.00  0.00    -0.074 N 
HETATM   16  H   UNL     1      61.724  12.376   1.477  1.00  0.00     0.274 HD
HETATM   17  H   UNL     1      62.163  11.903   3.013  1.00  0.00     0.274 HD
HETATM   18  H   UNL     1      60.614  11.624   2.467  1.00  0.00     0.274 HD
ENDBRANCH  14  15
ENDBRANCH   4  14
TORSDOF 3
ENDMDL
