MODEL 1
REMARK VINA RESULT:      -4.6      0.000      0.000
REMARK  2 active torsions:
REMARK  status: ('A' for Active; 'I' for Inactive)
REMARK    1  A    between atoms: C_3  and  C_6 
REMARK    2  A    between atoms: C_6  and  O_11 
ROOT
HETATM    1  C   UNL     1      64.725   8.386   5.240  1.00  0.00     0.085 A 
HETATM    2  N   UNL     1      64.091   9.570   5.407  1.00  0.00    -0.345 N 
HETATM    3  C   UNL     1      63.112   9.673   4.414  1.00  0.00     0.110 A 
HETATM    4  C   UNL     1      64.188   7.752   4.195  1.00  0.00     0.001 A 
HETATM    5  C   UNL     1      63.173   8.510   3.636  1.00  0.00     0.050 A 
HETATM    6  S   UNL     1      65.956   7.550   5.979  1.00  0.00    -0.083 SA
HETATM    7  C   UNL     1      65.753   6.253   4.817  1.00  0.00     0.053 A 
HETATM    8  C   UNL     1      64.739   6.512   3.898  1.00  0.00     0.021 A 
HETATM    9  H   UNL     1      64.284  10.239   6.104  1.00  0.00     0.167 HD
ENDROOT
BRANCH   3  10
HETATM   10  C   UNL     1      62.243  10.816   4.296  1.00  0.00     0.309 C 
HETATM   11  O   UNL     1      62.202  11.750   5.084  1.00  0.00    -0.258 OA
BRANCH  10  12
HETATM   12  O   UNL     1      61.477  10.692   3.176  1.00  0.00    -0.321 OA
HETATM   13  C   UNL     1      61.756  11.648   2.157  1.00  0.00     0.213 C 
ENDBRANCH  10  12
ENDBRANCH   3  10
TORSDOF 2
ENDMDL
MODEL 2
REMARK VINA RESULT:      -4.5      3.221      4.766
REMARK  2 active torsions:
REMARK  status: ('A' for Active; 'I' for Inactive)
REMARK    1  A    between atoms: C_3  and  C_6 
REMARK    2  A    between atoms: C_6  and  O_11 
ROOT
HETATM    1  C   UNL     1      63.211   9.357   4.437  1.00  0.00     0.085 A 
HETATM    2  N   UNL     1      64.125   9.392   5.434  1.00  0.00    -0.345 N 
HETATM    3  C   UNL     1      64.930   8.255   5.313  1.00  0.00     0.110 A 
HETATM    4  C   UNL     1      63.409   8.258   3.706  1.00  0.00     0.001 A 
HETATM    5  C   UNL     1      64.472   7.527   4.207  1.00  0.00     0.050 A 
HETATM    6  S   UNL     1      61.950  10.302   3.909  1.00  0.00    -0.083 SA
HETATM    7  C   UNL     1      61.653   9.157   2.616  1.00  0.00     0.053 A 
HETATM    8  C   UNL     1      62.539   8.084   2.637  1.00  0.00     0.021 A 
HETATM    9  H   UNL     1      64.210  10.093   6.121  1.00  0.00     0.167 HD
ENDROOT
BRANCH   3  10
HETATM   10  C   UNL     1      66.016   7.972   6.217  1.00  0.00     0.309 C 
HETATM   11  O   UNL     1      67.170   8.346   6.064  1.00  0.00    -0.258 OA
BRANCH  10  12
HETATM   12  O   UNL     1      65.557   7.227   7.260  1.00  0.00    -0.321 OA
HETATM   13  C   UNL     1      66.569   6.764   8.151  1.00  0.00     0.213 C 
ENDBRANCH  10  12
ENDBRANCH   3  10
TORSDOF 2
ENDMDL
MODEL 3
REMARK VINA RESULT:      -4.5      3.125      4.757
REMARK  2 active torsions:
REMARK  status: ('A' for Active; 'I' for Inactive)
REMARK    1  A    between atoms: C_3  and  C_6 
REMARK    2  A    between atoms: C_6  and  O_11 
ROOT
HETATM    1  C   UNL     1      62.531   9.249   2.969  1.00  0.00     0.085 A 
HETATM    2  N   UNL     1      63.041   8.172   3.610  1.00  0.00    -0.345 N 
HETATM    3  C   UNL     1      63.262   8.535   4.942  1.00  0.00     0.110 A 
HETATM    4  C   UNL     1      62.424  10.258   3.835  1.00  0.00     0.001 A 
HETATM    5  C   UNL     1      62.867   9.871   5.089  1.00  0.00     0.050 A 
HETATM    6  S   UNL     1      62.020   9.620   1.432  1.00  0.00    -0.083 SA
HETATM    7  C   UNL     1      61.632  11.243   1.969  1.00  0.00     0.053 A 
HETATM    8  C   UNL     1      61.910  11.441   3.319  1.00  0.00     0.021 A 
HETATM    9  H   UNL     1      63.224   7.291   3.210  1.00  0.00     0.167 HD
ENDROOT
BRANCH   3  10
HETATM   10  C   UNL     1      63.802   7.622   5.917  1.00  0.00     0.309 C 
HETATM   11  O   UNL     1      63.250   7.304   6.961  1.00  0.00    -0.258 OA
BRANCH  10  12
HETATM   12  O   UNL     1      65.017   7.174   5.496  1.00  0.00    -0.321 OA
HETATM   13  C   UNL     1      66.119   7.990   5.885  1.00  0.00     0.213 C 
ENDBRANCH  10  12
ENDBRANCH   3  10
TORSDOF 2
ENDMDL
MODEL 4
REMARK VINA RESULT:      -4.4      2.485      3.475
REMARK  2 active torsions:
REMARK  status: ('A' for Active; 'I' for Inactive)
REMARK    1  A    between atoms: C_3  and  C_6 
REMARK    2  A    between atoms: C_6  and  O_11 
ROOT
HETATM    1  C   UNL     1      65.904   6.589   7.258  1.00  0.00     0.085 A 
HETATM    2  N   UNL     1      64.823   7.306   6.875  1.00  0.00    -0.345 N 
HETATM    3  C   UNL     1      65.159   7.987   5.700  1.00  0.00     0.110 A 
HETATM    4  C   UNL     1      66.890   6.789   6.381  1.00  0.00     0.001 A 
HETATM    5  C   UNL     1      66.483   7.657   5.382  1.00  0.00     0.050 A 
HETATM    6  S   UNL     1      66.301   5.556   8.498  1.00  0.00    -0.083 SA
HETATM    7  C   UNL     1      67.902   5.369   7.809  1.00  0.00     0.053 A 
HETATM    8  C   UNL     1      68.074   6.111   6.644  1.00  0.00     0.021 A 
HETATM    9  H   UNL     1      63.955   7.343   7.339  1.00  0.00     0.167 HD
ENDROOT
BRANCH   3  10
HETATM   10  C   UNL     1      64.234   8.851   5.011  1.00  0.00     0.309 C 
HETATM   11  O   UNL     1      63.596   8.543   4.014  1.00  0.00    -0.258 OA
BRANCH  10  12
HETATM   12  O   UNL     1      64.183  10.057   5.641  1.00  0.00    -0.321 OA
HETATM   13  C   UNL     1      62.985  10.796   5.415  1.00  0.00     0.213 C 
ENDBRANCH  10  12
ENDBRANCH   3  10
TORSDOF 2
ENDMDL
MODEL 5
REMARK VINA RESULT:      -4.3      3.084      4.533
REMARK  2 active torsions:
REMARK  status: ('A' for Active; 'I' for Inactive)
REMARK    1  A    between atoms: C_3  and  C_6 
REMARK    2  A    between atoms: C_6  and  O_11 
ROOT
HETATM    1  C   UNL     1      62.992   7.728   2.593  1.00  0.00     0.085 A 
HETATM    2  N   UNL     1      63.704   7.258   3.643  1.00  0.00    -0.345 N 
HETATM    3  C   UNL     1      63.701   8.244   4.635  1.00  0.00     0.110 A 
HETATM    4  C   UNL     1      62.549   8.953   2.884  1.00  0.00     0.001 A 
HETATM    5  C   UNL     1      62.962   9.331   4.150  1.00  0.00     0.050 A 
HETATM    6  S   UNL     1      62.543   7.186   1.088  1.00  0.00    -0.083 SA
HETATM    7  C   UNL     1      61.700   8.698   0.811  1.00  0.00     0.053 A 
HETATM    8  C   UNL     1      61.794   9.569   1.894  1.00  0.00     0.021 A 
HETATM    9  H   UNL     1      64.145   6.379   3.700  1.00  0.00     0.167 HD
ENDROOT
BRANCH   3  10
HETATM   10  C   UNL     1      64.370   8.075   5.900  1.00  0.00     0.309 C 
HETATM   11  O   UNL     1      63.963   7.379   6.820  1.00  0.00    -0.258 OA
BRANCH  10  12
HETATM   12  O   UNL     1      65.516   8.810   5.910  1.00  0.00    -0.321 OA
HETATM   13  C   UNL     1      66.641   8.149   6.486  1.00  0.00     0.213 C 
ENDBRANCH  10  12
ENDBRANCH   3  10
TORSDOF 2
ENDMDL
MODEL 6
REMARK VINA RESULT:      -3.9      3.556      4.810
REMARK  2 active torsions:
REMARK  status: ('A' for Active; 'I' for Inactive)
REMARK    1  A    between atoms: C_3  and  C_6 
REMARK    2  A    between atoms: C_6  and  O_11 
ROOT
HETATM    1  C   UNL     1      61.239   7.649   2.978  1.00  0.00     0.085 A 
HETATM    2  N   UNL     1      61.419   7.164   4.229  1.00  0.00    -0.345 N 
HETATM    3  C   UNL     1      62.603   7.712   4.731  1.00  0.00     0.110 A 
HETATM    4  C   UNL     1      62.251   8.468   2.681  1.00  0.00     0.001 A 
HETATM    5  C   UNL     1      63.138   8.547   3.741  1.00  0.00     0.050 A 
HETATM    6  S   UNL     1      60.119   7.490   1.761  1.00  0.00    -0.083 SA
HETATM    7  C   UNL     1      61.056   8.594   0.774  1.00  0.00     0.053 A 
HETATM    8  C   UNL     1      62.204   9.047   1.420  1.00  0.00     0.021 A 
HETATM    9  H   UNL     1      60.823   6.539   4.700  1.00  0.00     0.167 HD
ENDROOT
BRANCH   3  10
HETATM   10  C   UNL     1      63.102   7.409   6.049  1.00  0.00     0.309 C 
HETATM   11  O   UNL     1      62.638   7.851   7.091  1.00  0.00    -0.258 OA
BRANCH  10  12
HETATM   12  O   UNL     1      64.163   6.562   5.950  1.00  0.00    -0.321 OA
HETATM   13  C   UNL     1      65.375   7.059   6.511  1.00  0.00     0.213 C 
ENDBRANCH  10  12
ENDBRANCH   3  10
TORSDOF 2
ENDMDL
MODEL 7
REMARK VINA RESULT:      -3.9      3.438      4.452
REMARK  2 active torsions:
REMARK  status: ('A' for Active; 'I' for Inactive)
REMARK    1  A    between atoms: C_3  and  C_6 
REMARK    2  A    between atoms: C_6  and  O_11 
ROOT
HETATM    1  C   UNL     1      62.873   7.020   5.932  1.00  0.00     0.085 A 
HETATM    2  N   UNL     1      64.079   7.249   6.502  1.00  0.00    -0.345 N 
HETATM    3  C   UNL     1      64.841   7.996   5.598  1.00  0.00     0.110 A 
HETATM    4  C   UNL     1      62.850   7.588   4.724  1.00  0.00     0.001 A 
HETATM    5  C   UNL     1      64.056   8.214   4.459  1.00  0.00     0.050 A 
HETATM    6  S   UNL     1      61.462   6.243   6.340  1.00  0.00    -0.083 SA
HETATM    7  C   UNL     1      60.780   6.698   4.791  1.00  0.00     0.053 A 
HETATM    8  C   UNL     1      61.667   7.437   4.012  1.00  0.00     0.021 A 
HETATM    9  H   UNL     1      64.367   6.945   7.392  1.00  0.00     0.167 HD
ENDROOT
BRANCH   3  10
HETATM   10  C   UNL     1      66.189   8.420   5.884  1.00  0.00     0.309 C 
HETATM   11  O   UNL     1      66.548   8.964   6.919  1.00  0.00    -0.258 OA
BRANCH  10  12
HETATM   12  O   UNL     1      66.993   8.124   4.826  1.00  0.00    -0.321 OA
HETATM   13  C   UNL     1      67.511   6.796   4.826  1.00  0.00     0.213 C 
ENDBRANCH  10  12
ENDBRANCH   3  10
TORSDOF 2
ENDMDL
MODEL 8
REMARK VINA RESULT:      -3.6      2.336      3.283
REMARK  2 active torsions:
REMARK  status: ('A' for Active; 'I' for Inactive)
REMARK    1  A    between atoms: C_3  and  C_6 
REMARK    2  A    between atoms: C_6  and  O_11 
ROOT
HETATM    1  C   UNL     1      66.377   5.991   4.838  1.00  0.00     0.085 A 
HETATM    2  N   UNL     1      65.629   6.990   4.316  1.00  0.00    -0.345 N 
HETATM    3  C   UNL     1      65.256   7.836   5.366  1.00  0.00     0.110 A 
HETATM    4  C   UNL     1      66.488   6.175   6.155  1.00  0.00     0.001 A 
HETATM    5  C   UNL     1      65.805   7.315   6.545  1.00  0.00     0.050 A 
HETATM    6  S   UNL     1      67.168   4.642   4.275  1.00  0.00    -0.083 SA
HETATM    7  C   UNL     1      67.690   4.284   5.910  1.00  0.00     0.053 A 
HETATM    8  C   UNL     1      67.235   5.221   6.834  1.00  0.00     0.021 A 
HETATM    9  H   UNL     1      65.389   7.102   3.368  1.00  0.00     0.167 HD
ENDROOT
BRANCH   3  10
HETATM   10  C   UNL     1      64.449   9.012   5.167  1.00  0.00     0.309 C 
HETATM   11  O   UNL     1      64.544  10.045   5.815  1.00  0.00    -0.258 OA
BRANCH  10  12
HETATM   12  O   UNL     1      63.568   8.794   4.152  1.00  0.00    -0.321 OA
HETATM   13  C   UNL     1      62.445   9.671   4.139  1.00  0.00     0.213 C 
ENDBRANCH  10  12
ENDBRANCH   3  10
TORSDOF 2
ENDMDL
MODEL 9
REMARK VINA RESULT:      -3.5      3.383      4.560
REMARK  2 active torsions:
REMARK  status: ('A' for Active; 'I' for Inactive)
REMARK    1  A    between atoms: C_3  and  C_6 
REMARK    2  A    between atoms: C_6  and  O_11 
ROOT
HETATM    1  C   UNL     1      62.314   7.897   4.018  1.00  0.00     0.085 A 
HETATM    2  N   UNL     1      63.564   8.416   4.052  1.00  0.00    -0.345 N 
HETATM    3  C   UNL     1      64.207   7.901   5.181  1.00  0.00     0.110 A 
HETATM    4  C   UNL     1      62.153   7.088   5.067  1.00  0.00     0.001 A 
HETATM    5  C   UNL     1      63.305   7.051   5.833  1.00  0.00     0.050 A 
HETATM    6  S   UNL     1      60.979   8.005   3.035  1.00  0.00    -0.083 SA
HETATM    7  C   UNL     1      60.130   6.893   4.092  1.00  0.00     0.053 A 
HETATM    8  C   UNL     1      60.910   6.476   5.167  1.00  0.00     0.021 A 
HETATM    9  H   UNL     1      63.950   9.042   3.398  1.00  0.00     0.167 HD
ENDROOT
BRANCH   3  10
HETATM   10  C   UNL     1      65.563   8.245   5.527  1.00  0.00     0.309 C 
HETATM   11  O   UNL     1      65.883   9.111   6.330  1.00  0.00    -0.258 OA
BRANCH  10  12
HETATM   12  O   UNL     1      66.426   7.461   4.823  1.00  0.00    -0.321 OA
HETATM   13  C   UNL     1      67.804   7.758   5.033  1.00  0.00     0.213 C 
ENDBRANCH  10  12
ENDBRANCH   3  10
TORSDOF 2
ENDMDL
