MODEL 1
REMARK VINA RESULT:      -4.6      0.000      0.000
REMARK  1 active torsions:
REMARK  status: ('A' for Active; 'I' for Inactive)
REMARK    1  A    between atoms: CA_1  and  C_6 
ROOT
HETATM    1  CA  UNL     1      62.447  10.045   3.935  1.00  0.00     0.111 A 
HETATM    2  N   UNL     1      61.629  10.165   2.832  1.00  0.00    -0.350 N 
HETATM    3  C   UNL     1      63.105   8.826   3.854  1.00  0.00     0.057 A 
HETATM    4  C   UNL     1      61.767   9.047   2.050  1.00  0.00     0.050 A 
HETATM    5  C   UNL     1      62.659   8.211   2.651  1.00  0.00     0.034 A 
HETATM    6  S   UNL     1      62.905   6.756   1.745  1.00  0.00    -0.100 SA
HETATM    7  C   UNL     1      61.244   8.549   0.827  1.00  0.00     0.038 A 
HETATM    8  C   UNL     1      61.790   7.312   0.556  1.00  0.00     0.053 A 
HETATM    9  H   UNL     1      61.042  10.931   2.637  1.00  0.00     0.166 HD
ENDROOT
BRANCH   1  10
HETATM   10  C   UNL     1      62.527  11.072   4.939  1.00  0.00     0.226 C 
HETATM   11  O   UNL     1      63.090  10.998   6.021  1.00  0.00    -0.643 OA
HETATM   12  OXT UNL     1      61.884  12.194   4.561  1.00  0.00    -0.643 OA
ENDBRANCH   1  10
TORSDOF 1
ENDMDL
MODEL 2
REMARK VINA RESULT:      -4.4      2.220      3.249
REMARK  1 active torsions:
REMARK  status: ('A' for Active; 'I' for Inactive)
REMARK    1  A    between atoms: CA_1  and  C_6 
ROOT
HETATM    1  CA  UNL     1      63.353   9.763   4.855  1.00  0.00     0.111 A 
HETATM    2  N   UNL     1      64.461   9.185   5.438  1.00  0.00    -0.350 N 
HETATM    3  C   UNL     1      62.925   8.936   3.827  1.00  0.00     0.057 A 
HETATM    4  C   UNL     1      64.733   8.000   4.801  1.00  0.00     0.050 A 
HETATM    5  C   UNL     1      63.813   7.825   3.811  1.00  0.00     0.034 A 
HETATM    6  S   UNL     1      64.068   6.354   2.934  1.00  0.00    -0.100 SA
HETATM    7  C   UNL     1      65.683   6.950   4.896  1.00  0.00     0.038 A 
HETATM    8  C   UNL     1      65.423   5.996   3.935  1.00  0.00     0.053 A 
HETATM    9  H   UNL     1      64.973   9.560   6.190  1.00  0.00     0.166 HD
ENDROOT
BRANCH   1  10
HETATM   10  C   UNL     1      62.818  11.016   5.316  1.00  0.00     0.226 C 
HETATM   11  O   UNL     1      62.057  11.755   4.711  1.00  0.00    -0.643 OA
HETATM   12  OXT UNL     1      63.259  11.326   6.552  1.00  0.00    -0.643 OA
ENDBRANCH   1  10
TORSDOF 1
ENDMDL
MODEL 3
REMARK VINA RESULT:      -4.3      2.376      2.824
REMARK  1 active torsions:
REMARK  status: ('A' for Active; 'I' for Inactive)
REMARK    1  A    between atoms: CA_1  and  C_6 
ROOT
HETATM    1  CA  UNL     1      62.046  10.099   3.987  1.00  0.00     0.111 A 
HETATM    2  N   UNL     1      61.230   9.091   3.519  1.00  0.00    -0.350 N 
HETATM    3  C   UNL     1      62.896   9.557   4.940  1.00  0.00     0.057 A 
HETATM    4  C   UNL     1      61.558   7.920   4.153  1.00  0.00     0.050 A 
HETATM    5  C   UNL     1      62.570   8.175   5.029  1.00  0.00     0.034 A 
HETATM    6  S   UNL     1      63.061   6.758   5.893  1.00  0.00    -0.100 SA
HETATM    7  C   UNL     1      61.137   6.564   4.140  1.00  0.00     0.038 A 
HETATM    8  C   UNL     1      61.882   5.835   5.043  1.00  0.00     0.053 A 
HETATM    9  H   UNL     1      60.527   9.195   2.838  1.00  0.00     0.166 HD
ENDROOT
BRANCH   1  10
HETATM   10  C   UNL     1      61.945  11.448   3.499  1.00  0.00     0.226 C 
HETATM   11  O   UNL     1      61.947  11.808   2.332  1.00  0.00    -0.643 OA
HETATM   12  OXT UNL     1      61.845  12.339   4.506  1.00  0.00    -0.643 OA
ENDBRANCH   1  10
TORSDOF 1
ENDMDL
MODEL 4
REMARK VINA RESULT:      -4.3      3.049      3.850
REMARK  1 active torsions:
REMARK  status: ('A' for Active; 'I' for Inactive)
REMARK    1  A    between atoms: CA_1  and  C_6 
ROOT
HETATM    1  CA  UNL     1      63.879   8.054   5.078  1.00  0.00     0.111 A 
HETATM    2  N   UNL     1      63.494   9.314   5.483  1.00  0.00    -0.350 N 
HETATM    3  C   UNL     1      63.449   7.870   3.772  1.00  0.00     0.057 A 
HETATM    4  C   UNL     1      62.837   9.933   4.450  1.00  0.00     0.050 A 
HETATM    5  C   UNL     1      62.791   9.074   3.394  1.00  0.00     0.034 A 
HETATM    6  S   UNL     1      61.973   9.756   2.030  1.00  0.00    -0.100 SA
HETATM    7  C   UNL     1      62.214  11.185   4.201  1.00  0.00     0.038 A 
HETATM    8  C   UNL     1      61.709  11.208   2.918  1.00  0.00     0.053 A 
HETATM    9  H   UNL     1      63.665   9.707   6.369  1.00  0.00     0.166 HD
ENDROOT
BRANCH   1  10
HETATM   10  C   UNL     1      64.601   7.163   5.947  1.00  0.00     0.226 C 
HETATM   11  O   UNL     1      65.541   6.445   5.643  1.00  0.00    -0.643 OA
HETATM   12  OXT UNL     1      64.119   7.189   7.205  1.00  0.00    -0.643 OA
ENDBRANCH   1  10
TORSDOF 1
ENDMDL
MODEL 5
REMARK VINA RESULT:      -4.2      1.789      2.165
REMARK  1 active torsions:
REMARK  status: ('A' for Active; 'I' for Inactive)
REMARK    1  A    between atoms: CA_1  and  C_6 
ROOT
HETATM    1  CA  UNL     1      61.685   9.990   2.674  1.00  0.00     0.111 A 
HETATM    2  N   UNL     1      60.969   9.154   3.503  1.00  0.00    -0.350 N 
HETATM    3  C   UNL     1      62.129   9.247   1.590  1.00  0.00     0.057 A 
HETATM    4  C   UNL     1      60.945   7.896   2.956  1.00  0.00     0.050 A 
HETATM    5  C   UNL     1      61.647   7.923   1.790  1.00  0.00     0.034 A 
HETATM    6  S   UNL     1      61.685   6.375   1.013  1.00  0.00    -0.100 SA
HETATM    7  C   UNL     1      60.403   6.623   3.273  1.00  0.00     0.038 A 
HETATM    8  C   UNL     1      60.737   5.716   2.290  1.00  0.00     0.053 A 
HETATM    9  H   UNL     1      60.543   9.418   4.351  1.00  0.00     0.166 HD
ENDROOT
BRANCH   1  10
HETATM   10  C   UNL     1      61.878  11.383   2.978  1.00  0.00     0.226 C 
HETATM   11  O   UNL     1      62.004  11.880   4.087  1.00  0.00    -0.643 OA
HETATM   12  OXT UNL     1      61.907  12.141   1.864  1.00  0.00    -0.643 OA
ENDBRANCH   1  10
TORSDOF 1
ENDMDL
MODEL 6
REMARK VINA RESULT:      -4.2      1.351      1.839
REMARK  1 active torsions:
REMARK  status: ('A' for Active; 'I' for Inactive)
REMARK    1  A    between atoms: CA_1  and  C_6 
ROOT
HETATM    1  CA  UNL     1      62.956   9.837   4.442  1.00  0.00     0.111 A 
HETATM    2  N   UNL     1      62.376   9.416   3.265  1.00  0.00    -0.350 N 
HETATM    3  C   UNL     1      63.860   8.867   4.850  1.00  0.00     0.057 A 
HETATM    4  C   UNL     1      62.907   8.199   2.917  1.00  0.00     0.050 A 
HETATM    5  C   UNL     1      63.813   7.839   3.867  1.00  0.00     0.034 A 
HETATM    6  S   UNL     1      64.544   6.306   3.528  1.00  0.00    -0.100 SA
HETATM    7  C   UNL     1      62.766   7.253   1.867  1.00  0.00     0.038 A 
HETATM    8  C   UNL     1      63.606   6.183   2.089  1.00  0.00     0.053 A 
HETATM    9  H   UNL     1      61.693   9.909   2.755  1.00  0.00     0.166 HD
ENDROOT
BRANCH   1  10
HETATM   10  C   UNL     1      62.607  11.090   5.056  1.00  0.00     0.226 C 
HETATM   11  O   UNL     1      61.933  11.984   4.567  1.00  0.00    -0.643 OA
HETATM   12  OXT UNL     1      63.121  11.201   6.297  1.00  0.00    -0.643 OA
ENDBRANCH   1  10
TORSDOF 1
ENDMDL
MODEL 7
REMARK VINA RESULT:      -4.1      2.877      4.098
REMARK  1 active torsions:
REMARK  status: ('A' for Active; 'I' for Inactive)
REMARK    1  A    between atoms: CA_1  and  C_6 
ROOT
HETATM    1  CA  UNL     1      63.303   9.203   4.479  1.00  0.00     0.111 A 
HETATM    2  N   UNL     1      64.229   9.422   5.477  1.00  0.00    -0.350 N 
HETATM    3  C   UNL     1      63.650   8.035   3.816  1.00  0.00     0.057 A 
HETATM    4  C   UNL     1      65.150   8.405   5.461  1.00  0.00     0.050 A 
HETATM    5  C   UNL     1      64.824   7.546   4.456  1.00  0.00     0.034 A 
HETATM    6  S   UNL     1      65.931   6.220   4.343  1.00  0.00    -0.100 SA
HETATM    7  C   UNL     1      66.309   8.027   6.188  1.00  0.00     0.038 A 
HETATM    8  C   UNL     1      66.821   6.854   5.674  1.00  0.00     0.053 A 
HETATM    9  H   UNL     1      64.228  10.183   6.100  1.00  0.00     0.166 HD
ENDROOT
BRANCH   1  10
HETATM   10  C   UNL     1      62.202  10.101   4.253  1.00  0.00     0.226 C 
HETATM   11  O   UNL     1      62.141  11.280   4.564  1.00  0.00    -0.643 OA
HETATM   12  OXT UNL     1      61.176   9.489   3.628  1.00  0.00    -0.643 OA
ENDBRANCH   1  10
TORSDOF 1
ENDMDL
MODEL 8
REMARK VINA RESULT:      -4.1      5.657      6.929
REMARK  1 active torsions:
REMARK  status: ('A' for Active; 'I' for Inactive)
REMARK    1  A    between atoms: CA_1  and  C_6 
ROOT
HETATM    1  CA  UNL     1      65.665   7.355   6.090  1.00  0.00     0.111 A 
HETATM    2  N   UNL     1      66.293   7.696   7.269  1.00  0.00    -0.350 N 
HETATM    3  C   UNL     1      65.858   5.998   5.874  1.00  0.00     0.057 A 
HETATM    4  C   UNL     1      66.871   6.574   7.807  1.00  0.00     0.050 A 
HETATM    5  C   UNL     1      66.624   5.524   6.975  1.00  0.00     0.034 A 
HETATM    6  S   UNL     1      67.318   4.049   7.560  1.00  0.00    -0.100 SA
HETATM    7  C   UNL     1      67.630   6.231   8.957  1.00  0.00     0.038 A 
HETATM    8  C   UNL     1      67.930   4.886   8.934  1.00  0.00     0.053 A 
HETATM    9  H   UNL     1      66.321   8.598   7.662  1.00  0.00     0.166 HD
ENDROOT
BRANCH   1  10
HETATM   10  C   UNL     1      64.958   8.325   5.296  1.00  0.00     0.226 C 
HETATM   11  O   UNL     1      64.334   8.116   4.267  1.00  0.00    -0.643 OA
HETATM   12  OXT UNL     1      65.051   9.564   5.818  1.00  0.00    -0.643 OA
ENDBRANCH   1  10
TORSDOF 1
ENDMDL
MODEL 9
REMARK VINA RESULT:      -3.8      4.811      5.819
REMARK  1 active torsions:
REMARK  status: ('A' for Active; 'I' for Inactive)
REMARK    1  A    between atoms: CA_1  and  C_6 
ROOT
HETATM    1  CA  UNL     1      65.594   6.238   7.326  1.00  0.00     0.111 A 
HETATM    2  N   UNL     1      65.620   7.546   6.893  1.00  0.00    -0.350 N 
HETATM    3  C   UNL     1      64.752   5.522   6.488  1.00  0.00     0.057 A 
HETATM    4  C   UNL     1      64.815   7.666   5.789  1.00  0.00     0.050 A 
HETATM    5  C   UNL     1      64.270   6.447   5.521  1.00  0.00     0.034 A 
HETATM    6  S   UNL     1      63.226   6.486   4.140  1.00  0.00    -0.100 SA
HETATM    7  C   UNL     1      64.414   8.686   4.886  1.00  0.00     0.038 A 
HETATM    8  C   UNL     1      63.552   8.165   3.945  1.00  0.00     0.053 A 
HETATM    9  H   UNL     1      66.133   8.276   7.308  1.00  0.00     0.166 HD
ENDROOT
BRANCH   1  10
HETATM   10  C   UNL     1      66.352   5.799   8.468  1.00  0.00     0.226 C 
HETATM   11  O   UNL     1      66.469   4.653   8.874  1.00  0.00    -0.643 OA
HETATM   12  OXT UNL     1      66.961   6.828   9.091  1.00  0.00    -0.643 OA
ENDBRANCH   1  10
TORSDOF 1
ENDMDL
