MODEL 1
REMARK VINA RESULT:      -5.0      0.000      0.000
REMARK  2 active torsions:
REMARK  status: ('A' for Active; 'I' for Inactive)
REMARK    1  A    between atoms: C_1  and  C_5 
REMARK    2  A    between atoms: C_6  and  N_7 
ROOT
HETATM    1  C   UNL     1      63.789   8.162   4.883  1.00  0.00    -0.022 A 
HETATM    2  C   UNL     1      65.118   8.510   5.206  1.00  0.00     0.041 A 
HETATM    3  C   UNL     1      65.842   7.848   6.206  1.00  0.00     0.026 A 
HETATM    4  C   UNL     1      63.222   7.085   5.588  1.00  0.00     0.012 A 
HETATM    5  C   UNL     1      63.949   6.387   6.555  1.00  0.00     0.003 A 
HETATM    6  C   UNL     1      65.261   6.753   6.842  1.00  0.00     0.029 A 
ENDROOT
BRANCH   1   7
HETATM    7  C   UNL     1      63.031   8.888   3.839  1.00  0.00    -0.011 A 
HETATM    8  C   UNL     1      62.426  10.126   4.079  1.00  0.00     0.099 A 
HETATM    9  N   UNL     1      61.713  10.844   3.172  1.00  0.00    -0.374 N 
HETATM   10  C   UNL     1      61.596  10.312   1.940  1.00  0.00     0.087 A 
ATOM     11  HN  UNL     1      61.289  11.740   3.412  1.00  0.00     0.164 HD
HETATM   12  C   UNL     1      62.154   9.099   1.577  1.00  0.00     0.018 A 
HETATM   13  C   UNL     1      62.870   8.385   2.539  1.00  0.00     0.015 A 
ENDBRANCH   1   7
BRANCH   3  14
HETATM   14  N   UNL     1      67.203   8.129   6.392  1.00  0.00    -0.399 N 
HETATM   15  H   UNL     1      67.567   9.002   6.122  1.00  0.00     0.156 HD
HETATM   16  H   UNL     1      67.794   7.452   6.794  1.00  0.00     0.156 HD
ENDBRANCH   3  14
TORSDOF 2
ENDMDL
MODEL 2
REMARK VINA RESULT:      -5.0      0.902      5.177
REMARK  2 active torsions:
REMARK  status: ('A' for Active; 'I' for Inactive)
REMARK    1  A    between atoms: C_1  and  C_5 
REMARK    2  A    between atoms: C_6  and  N_7 
ROOT
HETATM    1  C   UNL     1      63.096   8.257   3.414  1.00  0.00    -0.022 A 
HETATM    2  C   UNL     1      62.609   9.580   3.370  1.00  0.00     0.041 A 
HETATM    3  C   UNL     1      62.000  10.115   2.227  1.00  0.00     0.026 A 
HETATM    4  C   UNL     1      62.913   7.470   2.263  1.00  0.00     0.012 A 
HETATM    5  C   UNL     1      62.268   7.977   1.133  1.00  0.00     0.003 A 
HETATM    6  C   UNL     1      61.792   9.285   1.127  1.00  0.00     0.029 A 
ENDROOT
BRANCH   1   7
HETATM    7  C   UNL     1      63.757   7.716   4.624  1.00  0.00    -0.011 A 
HETATM    8  C   UNL     1      64.802   8.385   5.268  1.00  0.00     0.099 A 
HETATM    9  N   UNL     1      65.455   7.947   6.376  1.00  0.00    -0.374 N 
HETATM   10  C   UNL     1      65.046   6.772   6.891  1.00  0.00     0.087 A 
ATOM     11  HN  UNL     1      66.217   8.480   6.795  1.00  0.00     0.164 HD
HETATM   12  C   UNL     1      64.019   6.018   6.350  1.00  0.00     0.018 A 
HETATM   13  C   UNL     1      63.378   6.496   5.206  1.00  0.00     0.015 A 
ENDBRANCH   1   7
BRANCH   3  14
HETATM   14  N   UNL     1      61.402  11.381   2.276  1.00  0.00    -0.399 N 
HETATM   15  H   UNL     1      61.699  12.041   2.942  1.00  0.00     0.156 HD
HETATM   16  H   UNL     1      60.684  11.610   1.642  1.00  0.00     0.156 HD
ENDBRANCH   3  14
TORSDOF 2
ENDMDL
MODEL 3
REMARK VINA RESULT:      -5.0      1.427      5.263
REMARK  2 active torsions:
REMARK  status: ('A' for Active; 'I' for Inactive)
REMARK    1  A    between atoms: C_1  and  C_5 
REMARK    2  A    between atoms: C_6  and  N_7 
ROOT
HETATM    1  C   UNL     1      63.217   9.083   4.394  1.00  0.00    -0.022 A 
HETATM    2  C   UNL     1      62.875   8.719   3.075  1.00  0.00     0.041 A 
HETATM    3  C   UNL     1      62.112   9.550   2.244  1.00  0.00     0.026 A 
HETATM    4  C   UNL     1      62.788  10.345   4.839  1.00  0.00     0.012 A 
HETATM    5  C   UNL     1      62.066  11.203   4.006  1.00  0.00     0.003 A 
HETATM    6  C   UNL     1      61.753  10.815   2.706  1.00  0.00     0.029 A 
ENDROOT
BRANCH   1   7
HETATM    7  C   UNL     1      64.005   8.181   5.266  1.00  0.00    -0.011 A 
HETATM    8  C   UNL     1      63.436   7.076   5.907  1.00  0.00     0.099 A 
HETATM    9  N   UNL     1      64.096   6.212   6.722  1.00  0.00    -0.374 N 
HETATM   10  C   UNL     1      65.409   6.446   6.912  1.00  0.00     0.087 A 
ATOM     11  HN  UNL     1      63.622   5.427   7.168  1.00  0.00     0.164 HD
HETATM   12  C   UNL     1      66.087   7.501   6.328  1.00  0.00     0.018 A 
HETATM   13  C   UNL     1      65.374   8.374   5.505  1.00  0.00     0.015 A 
ENDBRANCH   1   7
BRANCH   3  14
HETATM   14  N   UNL     1      61.921   9.213   0.897  1.00  0.00    -0.399 N 
HETATM   15  H   UNL     1      61.840   9.922   0.219  1.00  0.00     0.156 HD
HETATM   16  H   UNL     1      61.866   8.267   0.629  1.00  0.00     0.156 HD
ENDBRANCH   3  14
TORSDOF 2
ENDMDL
MODEL 4
REMARK VINA RESULT:      -4.8      1.580      5.040
REMARK  2 active torsions:
REMARK  status: ('A' for Active; 'I' for Inactive)
REMARK    1  A    between atoms: C_1  and  C_5 
REMARK    2  A    between atoms: C_6  and  N_7 
ROOT
HETATM    1  C   UNL     1      64.354   8.387   4.595  1.00  0.00    -0.022 A 
HETATM    2  C   UNL     1      64.017   9.657   5.109  1.00  0.00     0.041 A 
HETATM    3  C   UNL     1      62.890  10.366   4.672  1.00  0.00     0.026 A 
HETATM    4  C   UNL     1      63.484   7.834   3.639  1.00  0.00     0.012 A 
HETATM    5  C   UNL     1      62.333   8.510   3.227  1.00  0.00     0.003 A 
HETATM    6  C   UNL     1      62.026   9.758   3.762  1.00  0.00     0.029 A 
ENDROOT
BRANCH   1   7
HETATM    7  C   UNL     1      65.562   7.663   5.052  1.00  0.00    -0.011 A 
HETATM    8  C   UNL     1      66.248   8.015   6.219  1.00  0.00     0.099 A 
HETATM    9  N   UNL     1      67.362   7.399   6.695  1.00  0.00    -0.374 N 
HETATM   10  C   UNL     1      67.829   6.360   5.977  1.00  0.00     0.087 A 
ATOM     11  HN  UNL     1      67.821   7.709   7.551  1.00  0.00     0.164 HD
HETATM   12  C   UNL     1      67.236   5.911   4.810  1.00  0.00     0.018 A 
HETATM   13  C   UNL     1      66.099   6.575   4.347  1.00  0.00     0.015 A 
ENDBRANCH   1   7
BRANCH   3  14
HETATM   14  N   UNL     1      62.514  11.554   5.312  1.00  0.00    -0.399 N 
HETATM   15  H   UNL     1      62.641  11.651   6.283  1.00  0.00     0.156 HD
HETATM   16  H   UNL     1      62.122  12.291   4.790  1.00  0.00     0.156 HD
ENDBRANCH   3  14
TORSDOF 2
ENDMDL
MODEL 5
REMARK VINA RESULT:      -4.8      1.566      1.982
REMARK  2 active torsions:
REMARK  status: ('A' for Active; 'I' for Inactive)
REMARK    1  A    between atoms: C_1  and  C_5 
REMARK    2  A    between atoms: C_6  and  N_7 
ROOT
HETATM    1  C   UNL     1      65.156   7.712   4.837  1.00  0.00    -0.022 A 
HETATM    2  C   UNL     1      65.674   7.792   6.147  1.00  0.00     0.041 A 
HETATM    3  C   UNL     1      66.762   7.017   6.569  1.00  0.00     0.026 A 
HETATM    4  C   UNL     1      65.805   6.839   3.946  1.00  0.00     0.012 A 
HETATM    5  C   UNL     1      66.919   6.095   4.340  1.00  0.00     0.003 A 
HETATM    6  C   UNL     1      67.409   6.205   5.639  1.00  0.00     0.029 A 
ENDROOT
BRANCH   1   7
HETATM    7  C   UNL     1      63.990   8.522   4.416  1.00  0.00    -0.011 A 
HETATM    8  C   UNL     1      63.585   9.668   5.109  1.00  0.00     0.099 A 
HETATM    9  N   UNL     1      62.526  10.454   4.782  1.00  0.00    -0.374 N 
HETATM   10  C   UNL     1      61.821  10.093   3.694  1.00  0.00     0.087 A 
ATOM     11  HN  UNL     1      62.278  11.275   5.334  1.00  0.00     0.164 HD
HETATM   12  C   UNL     1      62.124   8.986   2.921  1.00  0.00     0.018 A 
HETATM   13  C   UNL     1      63.213   8.196   3.293  1.00  0.00     0.015 A 
ENDBRANCH   1   7
BRANCH   3  14
HETATM   14  N   UNL     1      67.334   7.234   7.830  1.00  0.00    -0.399 N 
HETATM   15  H   UNL     1      67.704   8.117   8.057  1.00  0.00     0.156 HD
HETATM   16  H   UNL     1      67.366   6.502   8.488  1.00  0.00     0.156 HD
ENDBRANCH   3  14
TORSDOF 2
ENDMDL
MODEL 6
REMARK VINA RESULT:      -4.4      1.775      4.977
REMARK  2 active torsions:
REMARK  status: ('A' for Active; 'I' for Inactive)
REMARK    1  A    between atoms: C_1  and  C_5 
REMARK    2  A    between atoms: C_6  and  N_7 
ROOT
HETATM    1  C   UNL     1      62.708   8.644   3.492  1.00  0.00    -0.022 A 
HETATM    2  C   UNL     1      62.601   9.836   4.238  1.00  0.00     0.041 A 
HETATM    3  C   UNL     1      62.210  11.049   3.658  1.00  0.00     0.026 A 
HETATM    4  C   UNL     1      62.366   8.711   2.129  1.00  0.00     0.012 A 
HETATM    5  C   UNL     1      61.931   9.903   1.548  1.00  0.00     0.003 A 
HETATM    6  C   UNL     1      61.829  11.060   2.317  1.00  0.00     0.029 A 
ENDROOT
BRANCH   1   7
HETATM    7  C   UNL     1      63.146   7.375   4.118  1.00  0.00    -0.011 A 
HETATM    8  C   UNL     1      63.425   7.273   5.485  1.00  0.00     0.099 A 
HETATM    9  N   UNL     1      63.834   6.147   6.124  1.00  0.00    -0.374 N 
HETATM   10  C   UNL     1      63.970   5.040   5.368  1.00  0.00     0.087 A 
ATOM     11  HN  UNL     1      64.030   6.139   7.125  1.00  0.00     0.164 HD
HETATM   12  C   UNL     1      63.718   5.011   4.008  1.00  0.00     0.018 A 
HETATM   13  C   UNL     1      63.309   6.190   3.384  1.00  0.00     0.015 A 
ENDBRANCH   1   7
BRANCH   3  14
HETATM   14  N   UNL     1      61.977  12.172   4.463  1.00  0.00    -0.399 N 
HETATM   15  H   UNL     1      62.397  13.034   4.240  1.00  0.00     0.156 HD
HETATM   16  H   UNL     1      61.393  12.098   5.253  1.00  0.00     0.156 HD
ENDBRANCH   3  14
TORSDOF 2
ENDMDL
MODEL 7
REMARK VINA RESULT:      -4.3      2.165      5.376
REMARK  2 active torsions:
REMARK  status: ('A' for Active; 'I' for Inactive)
REMARK    1  A    between atoms: C_1  and  C_5 
REMARK    2  A    between atoms: C_6  and  N_7 
ROOT
HETATM    1  C   UNL     1      62.335   8.078   2.887  1.00  0.00    -0.022 A 
HETATM    2  C   UNL     1      61.133   7.411   3.202  1.00  0.00     0.041 A 
HETATM    3  C   UNL     1      60.012   7.452   2.362  1.00  0.00     0.026 A 
HETATM    4  C   UNL     1      62.381   8.768   1.663  1.00  0.00     0.012 A 
HETATM    5  C   UNL     1      61.287   8.780   0.795  1.00  0.00     0.003 A 
HETATM    6  C   UNL     1      60.118   8.103   1.133  1.00  0.00     0.029 A 
ENDROOT
BRANCH   1   7
HETATM    7  C   UNL     1      63.501   8.041   3.799  1.00  0.00    -0.011 A 
HETATM    8  C   UNL     1      63.692   8.990   4.808  1.00  0.00     0.099 A 
HETATM    9  N   UNL     1      64.738   9.020   5.674  1.00  0.00    -0.374 N 
HETATM   10  C   UNL     1      65.656   8.043   5.545  1.00  0.00     0.087 A 
ATOM     11  HN  UNL     1      64.824   9.746   6.386  1.00  0.00     0.164 HD
HETATM   12  C   UNL     1      65.577   7.044   4.592  1.00  0.00     0.018 A 
HETATM   13  C   UNL     1      64.493   7.052   3.712  1.00  0.00     0.015 A 
ENDBRANCH   1   7
BRANCH   3  14
HETATM   14  N   UNL     1      58.892   6.658   2.642  1.00  0.00    -0.399 N 
HETATM   15  H   UNL     1      58.929   5.992   3.366  1.00  0.00     0.156 HD
HETATM   16  H   UNL     1      58.069   6.765   2.113  1.00  0.00     0.156 HD
ENDBRANCH   3  14
TORSDOF 2
ENDMDL
MODEL 8
REMARK VINA RESULT:      -4.2      2.604      5.369
REMARK  2 active torsions:
REMARK  status: ('A' for Active; 'I' for Inactive)
REMARK    1  A    between atoms: C_1  and  C_5 
REMARK    2  A    between atoms: C_6  and  N_7 
ROOT
HETATM    1  C   UNL     1      61.606   7.952   3.214  1.00  0.00    -0.022 A 
HETATM    2  C   UNL     1      61.538   9.361   3.243  1.00  0.00     0.041 A 
HETATM    3  C   UNL     1      61.869  10.149   2.133  1.00  0.00     0.026 A 
HETATM    4  C   UNL     1      61.991   7.357   2.000  1.00  0.00     0.012 A 
HETATM    5  C   UNL     1      62.280   8.128   0.872  1.00  0.00     0.003 A 
HETATM    6  C   UNL     1      62.194   9.517   0.934  1.00  0.00     0.029 A 
ENDROOT
BRANCH   1   7
HETATM    7  C   UNL     1      61.274   7.137   4.404  1.00  0.00    -0.011 A 
HETATM    8  C   UNL     1      62.204   6.876   5.416  1.00  0.00     0.099 A 
HETATM    9  N   UNL     1      61.970   6.135   6.530  1.00  0.00    -0.374 N 
HETATM   10  C   UNL     1      60.733   5.621   6.663  1.00  0.00     0.087 A 
ATOM     11  HN  UNL     1      62.695   5.975   7.230  1.00  0.00     0.164 HD
HETATM   12  C   UNL     1      59.724   5.812   5.736  1.00  0.00     0.018 A 
HETATM   13  C   UNL     1      60.004   6.571   4.599  1.00  0.00     0.015 A 
ENDBRANCH   1   7
BRANCH   3  14
HETATM   14  N   UNL     1      61.647  11.532   2.161  1.00  0.00    -0.399 N 
HETATM   15  H   UNL     1      62.320  12.147   1.789  1.00  0.00     0.156 HD
HETATM   16  H   UNL     1      60.817  11.889   2.553  1.00  0.00     0.156 HD
ENDBRANCH   3  14
TORSDOF 2
ENDMDL
MODEL 9
REMARK VINA RESULT:      -4.1      1.754      5.438
REMARK  2 active torsions:
REMARK  status: ('A' for Active; 'I' for Inactive)
REMARK    1  A    between atoms: C_1  and  C_5 
REMARK    2  A    between atoms: C_6  and  N_7 
ROOT
HETATM    1  C   UNL     1      63.646   7.783   5.215  1.00  0.00    -0.022 A 
HETATM    2  C   UNL     1      62.501   6.965   5.119  1.00  0.00     0.041 A 
HETATM    3  C   UNL     1      61.380   7.334   4.364  1.00  0.00     0.026 A 
HETATM    4  C   UNL     1      63.636   8.985   4.485  1.00  0.00     0.012 A 
HETATM    5  C   UNL     1      62.543   9.343   3.692  1.00  0.00     0.003 A 
HETATM    6  C   UNL     1      61.433   8.507   3.613  1.00  0.00     0.029 A 
ENDROOT
BRANCH   1   7
HETATM    7  C   UNL     1      64.813   7.387   6.037  1.00  0.00    -0.011 A 
HETATM    8  C   UNL     1      66.005   8.118   6.045  1.00  0.00     0.099 A 
HETATM    9  N   UNL     1      67.113   7.812   6.769  1.00  0.00    -0.374 N 
HETATM   10  C   UNL     1      67.041   6.714   7.545  1.00  0.00     0.087 A 
ATOM     11  HN  UNL     1      67.957   8.383   6.726  1.00  0.00     0.164 HD
HETATM   12  C   UNL     1      65.917   5.912   7.629  1.00  0.00     0.018 A 
HETATM   13  C   UNL     1      64.800   6.253   6.864  1.00  0.00     0.015 A 
ENDBRANCH   1   7
BRANCH   3  14
HETATM   14  N   UNL     1      60.327   6.428   4.179  1.00  0.00    -0.399 N 
HETATM   15  H   UNL     1      59.400   6.754   4.123  1.00  0.00     0.156 HD
HETATM   16  H   UNL     1      60.516   5.464   4.104  1.00  0.00     0.156 HD
ENDBRANCH   3  14
TORSDOF 2
ENDMDL
