MODEL 1
REMARK VINA RESULT:      -5.4      0.000      0.000
REMARK  2 active torsions:
REMARK  status: ('A' for Active; 'I' for Inactive)
REMARK    1  A    between atoms: N_1  and  C_2 
REMARK    2  A    between atoms: C_3  and  C_6 
ROOT
HETATM    1  C   UNL     1      62.051   7.810   4.195  1.00  0.00     0.056 A 
HETATM    2  C   UNL     1      63.080   7.697   5.154  1.00  0.00     0.068 A 
HETATM    3  C   UNL     1      62.909   6.889   6.300  1.00  0.00     0.021 A 
HETATM    4  C   UNL     1      60.871   7.084   4.440  1.00  0.00     0.031 A 
HETATM    5  C   UNL     1      61.736   6.171   6.501  1.00  0.00     0.001 A 
HETATM    6  C   UNL     1      60.720   6.262   5.564  1.00  0.00     0.002 A 
ENDROOT
BRANCH   1   7
HETATM    7  N   UNL     1      62.120   8.643   3.016  1.00  0.00    -0.319 N 
HETATM    8  C   UNL     1      62.330   8.233   1.690  1.00  0.00     0.013 C 
HETATM    9  C   UNL     1      62.228   9.334   0.861  1.00  0.00     0.027 C 
HETATM   10  C   UNL     1      62.696   6.869   1.216  1.00  0.00     0.068 C 
HETATM   11  C   UNL     1      62.101  10.467   1.665  1.00  0.00     0.027 C 
HETATM   12  C   UNL     1      62.082  10.054   2.984  1.00  0.00     0.013 C 
HETATM   13  C   UNL     1      61.950  10.981   4.148  1.00  0.00     0.068 C 
ENDBRANCH   1   7
BRANCH   2  14
HETATM   14  C   UNL     1      64.433   8.269   5.012  1.00  0.00     0.211 C 
HETATM   15  O   UNL     1      64.851   9.300   5.503  1.00  0.00    -0.644 OA
HETATM   16  O   UNL     1      65.211   7.469   4.251  1.00  0.00    -0.644 OA
ENDBRANCH   2  14
TORSDOF 2
ENDMDL
MODEL 2
REMARK VINA RESULT:      -5.3      1.691      4.681
REMARK  2 active torsions:
REMARK  status: ('A' for Active; 'I' for Inactive)
REMARK    1  A    between atoms: N_1  and  C_2 
REMARK    2  A    between atoms: C_3  and  C_6 
ROOT
HETATM    1  C   UNL     1      62.366   8.932   3.736  1.00  0.00     0.056 A 
HETATM    2  C   UNL     1      62.290   8.667   2.353  1.00  0.00     0.068 A 
HETATM    3  C   UNL     1      62.007   9.705   1.437  1.00  0.00     0.021 A 
HETATM    4  C   UNL     1      62.153  10.262   4.143  1.00  0.00     0.031 A 
HETATM    5  C   UNL     1      61.819  11.012   1.872  1.00  0.00     0.001 A 
HETATM    6  C   UNL     1      61.902  11.291   3.226  1.00  0.00     0.002 A 
ENDROOT
BRANCH   1   7
HETATM    7  N   UNL     1      62.608   7.928   4.749  1.00  0.00    -0.319 N 
HETATM    8  C   UNL     1      63.806   7.680   5.437  1.00  0.00     0.013 C 
HETATM    9  C   UNL     1      63.580   6.701   6.386  1.00  0.00     0.027 C 
HETATM   10  C   UNL     1      65.142   8.278   5.165  1.00  0.00     0.068 C 
HETATM   11  C   UNL     1      62.283   6.220   6.207  1.00  0.00     0.027 C 
HETATM   12  C   UNL     1      61.701   6.935   5.177  1.00  0.00     0.013 C 
HETATM   13  C   UNL     1      60.306   6.716   4.692  1.00  0.00     0.068 C 
ENDBRANCH   1   7
BRANCH   2  14
HETATM   14  C   UNL     1      62.614   7.373   1.722  1.00  0.00     0.211 C 
HETATM   15  O   UNL     1      63.623   6.712   1.876  1.00  0.00    -0.644 OA
HETATM   16  O   UNL     1      61.604   6.966   0.924  1.00  0.00    -0.644 OA
ENDBRANCH   2  14
TORSDOF 2
ENDMDL
MODEL 3
REMARK VINA RESULT:      -5.2      1.538      4.493
REMARK  2 active torsions:
REMARK  status: ('A' for Active; 'I' for Inactive)
REMARK    1  A    between atoms: N_1  and  C_2 
REMARK    2  A    between atoms: C_3  and  C_6 
ROOT
HETATM    1  C   UNL     1      62.611   8.409   3.572  1.00  0.00     0.056 A 
HETATM    2  C   UNL     1      62.430   9.808   3.618  1.00  0.00     0.068 A 
HETATM    3  C   UNL     1      62.063  10.523   2.456  1.00  0.00     0.021 A 
HETATM    4  C   UNL     1      62.404   7.780   2.330  1.00  0.00     0.031 A 
HETATM    5  C   UNL     1      61.850   9.868   1.249  1.00  0.00     0.001 A 
HETATM    6  C   UNL     1      62.011   8.493   1.190  1.00  0.00     0.002 A 
ENDROOT
BRANCH   1   7
HETATM    7  N   UNL     1      63.025   7.601   4.697  1.00  0.00    -0.319 N 
HETATM    8  C   UNL     1      64.319   7.475   5.229  1.00  0.00     0.013 C 
HETATM    9  C   UNL     1      64.260   6.681   6.359  1.00  0.00     0.027 C 
HETATM   10  C   UNL     1      65.585   8.009   4.655  1.00  0.00     0.068 C 
HETATM   11  C   UNL     1      62.963   6.181   6.466  1.00  0.00     0.027 C 
HETATM   12  C   UNL     1      62.216   6.704   5.427  1.00  0.00     0.013 C 
HETATM   13  C   UNL     1      60.770   6.406   5.205  1.00  0.00     0.068 C 
ENDBRANCH   1   7
BRANCH   2  14
HETATM   14  C   UNL     1      62.468  10.624   4.847  1.00  0.00     0.211 C 
HETATM   15  O   UNL     1      62.864  10.282   5.945  1.00  0.00    -0.644 OA
HETATM   16  O   UNL     1      62.011  11.871   4.604  1.00  0.00    -0.644 OA
ENDBRANCH   2  14
TORSDOF 2
ENDMDL
MODEL 4
REMARK VINA RESULT:      -5.2      1.844      3.206
REMARK  2 active torsions:
REMARK  status: ('A' for Active; 'I' for Inactive)
REMARK    1  A    between atoms: N_1  and  C_2 
REMARK    2  A    between atoms: C_3  and  C_6 
ROOT
HETATM    1  C   UNL     1      62.989   7.863   3.521  1.00  0.00     0.056 A 
HETATM    2  C   UNL     1      63.368   8.848   4.457  1.00  0.00     0.068 A 
HETATM    3  C   UNL     1      64.621   8.778   5.107  1.00  0.00     0.021 A 
HETATM    4  C   UNL     1      63.913   6.831   3.273  1.00  0.00     0.031 A 
HETATM    5  C   UNL     1      65.517   7.753   4.826  1.00  0.00     0.001 A 
HETATM    6  C   UNL     1      65.165   6.785   3.900  1.00  0.00     0.002 A 
ENDROOT
BRANCH   1   7
HETATM    7  N   UNL     1      61.714   7.830   2.840  1.00  0.00    -0.319 N 
HETATM    8  C   UNL     1      61.399   8.381   1.587  1.00  0.00     0.013 C 
HETATM    9  C   UNL     1      60.100   8.040   1.265  1.00  0.00     0.027 C 
HETATM   10  C   UNL     1      62.256   9.267   0.751  1.00  0.00     0.068 C 
HETATM   11  C   UNL     1      59.536   7.401   2.369  1.00  0.00     0.027 C 
HETATM   12  C   UNL     1      60.505   7.312   3.351  1.00  0.00     0.013 C 
HETATM   13  C   UNL     1      60.285   6.681   4.687  1.00  0.00     0.068 C 
ENDBRANCH   1   7
BRANCH   2  14
HETATM   14  C   UNL     1      62.601  10.074   4.751  1.00  0.00     0.211 C 
HETATM   15  O   UNL     1      61.710  10.562   4.081  1.00  0.00    -0.644 OA
HETATM   16  O   UNL     1      63.000  10.618   5.919  1.00  0.00    -0.644 OA
ENDBRANCH   2  14
TORSDOF 2
ENDMDL
MODEL 5
REMARK VINA RESULT:      -5.2      1.897      3.297
REMARK  2 active torsions:
REMARK  status: ('A' for Active; 'I' for Inactive)
REMARK    1  A    between atoms: N_1  and  C_2 
REMARK    2  A    between atoms: C_3  and  C_6 
ROOT
HETATM    1  C   UNL     1      62.922   7.900   3.526  1.00  0.00     0.056 A 
HETATM    2  C   UNL     1      63.308   8.903   4.440  1.00  0.00     0.068 A 
HETATM    3  C   UNL     1      64.563   8.842   5.085  1.00  0.00     0.021 A 
HETATM    4  C   UNL     1      63.842   6.861   3.294  1.00  0.00     0.031 A 
HETATM    5  C   UNL     1      65.456   7.810   4.820  1.00  0.00     0.001 A 
HETATM    6  C   UNL     1      65.098   6.824   3.915  1.00  0.00     0.002 A 
ENDROOT
BRANCH   1   7
HETATM    7  N   UNL     1      61.644   7.857   2.852  1.00  0.00    -0.319 N 
HETATM    8  C   UNL     1      60.445   7.302   3.327  1.00  0.00     0.013 C 
HETATM    9  C   UNL     1      59.441   7.559   2.412  1.00  0.00     0.027 C 
HETATM   10  C   UNL     1      60.255   6.486   4.558  1.00  0.00     0.068 C 
HETATM   11  C   UNL     1      60.024   8.145   1.289  1.00  0.00     0.027 C 
HETATM   12  C   UNL     1      61.377   8.286   1.534  1.00  0.00     0.013 C 
HETATM   13  C   UNL     1      62.344   8.884   0.565  1.00  0.00     0.068 C 
ENDBRANCH   1   7
BRANCH   2  14
HETATM   14  C   UNL     1      62.544  10.136   4.713  1.00  0.00     0.211 C 
HETATM   15  O   UNL     1      61.650  10.612   4.039  1.00  0.00    -0.644 OA
HETATM   16  O   UNL     1      62.952  10.703   5.868  1.00  0.00    -0.644 OA
ENDBRANCH   2  14
TORSDOF 2
ENDMDL
MODEL 6
REMARK VINA RESULT:      -5.2      2.004      3.006
REMARK  2 active torsions:
REMARK  status: ('A' for Active; 'I' for Inactive)
REMARK    1  A    between atoms: N_1  and  C_2 
REMARK    2  A    between atoms: C_3  and  C_6 
ROOT
HETATM    1  C   UNL     1      64.055   8.065   5.139  1.00  0.00     0.056 A 
HETATM    2  C   UNL     1      63.640   6.995   5.958  1.00  0.00     0.068 A 
HETATM    3  C   UNL     1      64.566   6.325   6.789  1.00  0.00     0.021 A 
HETATM    4  C   UNL     1      65.415   8.423   5.198  1.00  0.00     0.031 A 
HETATM    5  C   UNL     1      65.899   6.716   6.835  1.00  0.00     0.001 A 
HETATM    6  C   UNL     1      66.321   7.773   6.046  1.00  0.00     0.002 A 
ENDROOT
BRANCH   1   7
HETATM    7  N   UNL     1      63.189   8.781   4.229  1.00  0.00    -0.319 N 
HETATM    8  C   UNL     1      62.759   8.371   2.957  1.00  0.00     0.013 C 
HETATM    9  C   UNL     1      61.866   9.304   2.466  1.00  0.00     0.027 C 
HETATM   10  C   UNL     1      63.228   7.186   2.186  1.00  0.00     0.068 C 
HETATM   11  C   UNL     1      61.837  10.380   3.353  1.00  0.00     0.027 C 
HETATM   12  C   UNL     1      62.680  10.085   4.408  1.00  0.00     0.013 C 
HETATM   13  C   UNL     1      62.912  10.994   5.570  1.00  0.00     0.068 C 
ENDBRANCH   1   7
BRANCH   2  14
HETATM   14  C   UNL     1      62.241   6.561   6.138  1.00  0.00     0.211 C 
HETATM   15  O   UNL     1      61.477   6.891   7.026  1.00  0.00    -0.644 OA
HETATM   16  O   UNL     1      61.869   5.729   5.143  1.00  0.00    -0.644 OA
ENDBRANCH   2  14
TORSDOF 2
ENDMDL
MODEL 7
REMARK VINA RESULT:      -5.1      1.544      4.484
REMARK  2 active torsions:
REMARK  status: ('A' for Active; 'I' for Inactive)
REMARK    1  A    between atoms: N_1  and  C_2 
REMARK    2  A    between atoms: C_3  and  C_6 
ROOT
HETATM    1  C   UNL     1      62.831   8.050   3.478  1.00  0.00     0.056 A 
HETATM    2  C   UNL     1      62.552   9.432   3.486  1.00  0.00     0.068 A 
HETATM    3  C   UNL     1      62.174  10.097   2.298  1.00  0.00     0.021 A 
HETATM    4  C   UNL     1      62.708   7.383   2.244  1.00  0.00     0.031 A 
HETATM    5  C   UNL     1      62.045   9.404   1.100  1.00  0.00     0.001 A 
HETATM    6  C   UNL     1      62.303   8.043   1.077  1.00  0.00     0.002 A 
ENDROOT
BRANCH   1   7
HETATM    7  N   UNL     1      63.265   7.296   4.632  1.00  0.00    -0.319 N 
HETATM    8  C   UNL     1      62.473   6.519   5.493  1.00  0.00     0.013 C 
HETATM    9  C   UNL     1      63.295   5.890   6.409  1.00  0.00     0.027 C 
HETATM   10  C   UNL     1      60.986   6.429   5.515  1.00  0.00     0.068 C 
HETATM   11  C   UNL     1      64.590   6.376   6.229  1.00  0.00     0.027 C 
HETATM   12  C   UNL     1      64.567   7.270   5.175  1.00  0.00     0.013 C 
HETATM   13  C   UNL     1      65.770   7.999   4.672  1.00  0.00     0.068 C 
ENDBRANCH   1   7
BRANCH   2  14
HETATM   14  C   UNL     1      62.495  10.275   4.697  1.00  0.00     0.211 C 
HETATM   15  O   UNL     1      62.894   9.990   5.810  1.00  0.00    -0.644 OA
HETATM   16  O   UNL     1      61.939  11.472   4.417  1.00  0.00    -0.644 OA
ENDBRANCH   2  14
TORSDOF 2
ENDMDL
MODEL 8
REMARK VINA RESULT:      -5.1      2.001      3.668
REMARK  2 active torsions:
REMARK  status: ('A' for Active; 'I' for Inactive)
REMARK    1  A    between atoms: N_1  and  C_2 
REMARK    2  A    between atoms: C_3  and  C_6 
ROOT
HETATM    1  C   UNL     1      64.357   7.972   5.041  1.00  0.00     0.056 A 
HETATM    2  C   UNL     1      63.963   7.022   6.006  1.00  0.00     0.068 A 
HETATM    3  C   UNL     1      64.906   6.483   6.911  1.00  0.00     0.021 A 
HETATM    4  C   UNL     1      65.714   8.348   5.033  1.00  0.00     0.031 A 
HETATM    5  C   UNL     1      66.235   6.890   6.886  1.00  0.00     0.001 A 
HETATM    6  C   UNL     1      66.636   7.831   5.952  1.00  0.00     0.002 A 
ENDROOT
BRANCH   1   7
HETATM    7  N   UNL     1      63.474   8.545   4.050  1.00  0.00    -0.319 N 
HETATM    8  C   UNL     1      62.785   9.766   4.123  1.00  0.00     0.013 C 
HETATM    9  C   UNL     1      62.131   9.981   2.925  1.00  0.00     0.027 C 
HETATM   10  C   UNL     1      62.673  10.669   5.303  1.00  0.00     0.068 C 
HETATM   11  C   UNL     1      62.278   8.835   2.143  1.00  0.00     0.027 C 
HETATM   12  C   UNL     1      63.059   7.937   2.846  1.00  0.00     0.013 C 
HETATM   13  C   UNL     1      63.447   6.589   2.334  1.00  0.00     0.068 C 
ENDBRANCH   1   7
BRANCH   2  14
HETATM   14  C   UNL     1      62.571   6.604   6.261  1.00  0.00     0.211 C 
HETATM   15  O   UNL     1      61.761   7.149   6.988  1.00  0.00    -0.644 OA
HETATM   16  O   UNL     1      62.266   5.502   5.545  1.00  0.00    -0.644 OA
ENDBRANCH   2  14
TORSDOF 2
ENDMDL
MODEL 9
REMARK VINA RESULT:      -5.0      1.724      4.602
REMARK  2 active torsions:
REMARK  status: ('A' for Active; 'I' for Inactive)
REMARK    1  A    between atoms: N_1  and  C_2 
REMARK    2  A    between atoms: C_3  and  C_6 
ROOT
HETATM    1  C   UNL     1      62.420   8.760   3.680  1.00  0.00     0.056 A 
HETATM    2  C   UNL     1      62.331   8.520   2.293  1.00  0.00     0.068 A 
HETATM    3  C   UNL     1      62.029   9.573   1.399  1.00  0.00     0.021 A 
HETATM    4  C   UNL     1      62.200  10.081   4.114  1.00  0.00     0.031 A 
HETATM    5  C   UNL     1      61.834  10.869   1.861  1.00  0.00     0.001 A 
HETATM    6  C   UNL     1      61.930  11.124   3.219  1.00  0.00     0.002 A 
ENDROOT
BRANCH   1   7
HETATM    7  N   UNL     1      62.682   7.740   4.671  1.00  0.00    -0.319 N 
HETATM    8  C   UNL     1      61.794   6.764   5.149  1.00  0.00     0.013 C 
HETATM    9  C   UNL     1      62.473   5.929   6.015  1.00  0.00     0.027 C 
HETATM   10  C   UNL     1      60.334   6.660   4.871  1.00  0.00     0.068 C 
HETATM   11  C   UNL     1      63.751   6.455   6.206  1.00  0.00     0.027 C 
HETATM   12  C   UNL     1      63.867   7.588   5.422  1.00  0.00     0.013 C 
HETATM   13  C   UNL     1      65.098   8.431   5.350  1.00  0.00     0.068 C 
ENDBRANCH   1   7
BRANCH   2  14
HETATM   14  C   UNL     1      62.659   7.241   1.634  1.00  0.00     0.211 C 
HETATM   15  O   UNL     1      63.659   6.567   1.795  1.00  0.00    -0.644 OA
HETATM   16  O   UNL     1      61.666   6.866   0.801  1.00  0.00    -0.644 OA
ENDBRANCH   2  14
TORSDOF 2
ENDMDL
