MODEL 1
REMARK VINA RESULT:      -5.4      0.000      0.000
REMARK  3 active torsions:
REMARK  status: ('A' for Active; 'I' for Inactive)
REMARK    1  A    between atoms: C_1  and  C_5 
REMARK    2  A    between atoms: C_6  and  C_12 
REMARK    3  A    between atoms: N_7  and  C_12 
ROOT
HETATM    1  C   UNL     1      63.440   9.045   4.602  1.00  0.00    -0.024 A 
HETATM    2  C   UNL     1      62.949   8.712   3.325  1.00  0.00     0.021 A 
HETATM    3  C   UNL     1      62.112   9.574   2.590  1.00  0.00    -0.032 A 
HETATM    4  C   UNL     1      63.092  10.310   5.107  1.00  0.00     0.012 A 
HETATM    5  C   UNL     1      62.269  11.181   4.388  1.00  0.00     0.001 A 
HETATM    6  C   UNL     1      61.776  10.814   3.139  1.00  0.00     0.009 A 
ENDROOT
BRANCH   1   7
HETATM    7  C   UNL     1      64.257   8.088   5.383  1.00  0.00    -0.011 A 
HETATM    8  C   UNL     1      63.696   6.973   6.018  1.00  0.00     0.099 A 
HETATM    9  N   UNL     1      64.382   6.041   6.727  1.00  0.00    -0.374 N 
HETATM   10  C   UNL     1      65.716   6.207   6.807  1.00  0.00     0.087 A 
ATOM     11  HN  UNL     1      63.911   5.255   7.175  1.00  0.00     0.164 HD
HETATM   12  C   UNL     1      66.389   7.262   6.222  1.00  0.00     0.018 A 
HETATM   13  C   UNL     1      65.649   8.210   5.514  1.00  0.00     0.015 A 
ENDBRANCH   1   7
BRANCH   3  14
HETATM   14  C   UNL     1      61.591   9.164   1.229  1.00  0.00     0.270 C 
BRANCH  14  15
HETATM   15  N   UNL     1      60.175   8.797   1.291  1.00  0.00    -0.075 N 
HETATM   16  C   UNL     1      59.869   7.723   0.359  1.00  0.00     0.267 C 
HETATM   17  H   UNL     1      59.610   9.612   1.056  1.00  0.00     0.277 HD
HETATM   18  H   UNL     1      59.967   8.473   2.235  1.00  0.00     0.277 HD
ENDBRANCH  14  15
ENDBRANCH   3  14
TORSDOF 3
ENDMDL
MODEL 2
REMARK VINA RESULT:      -5.3      1.717      6.131
REMARK  3 active torsions:
REMARK  status: ('A' for Active; 'I' for Inactive)
REMARK    1  A    between atoms: C_1  and  C_5 
REMARK    2  A    between atoms: C_6  and  C_12 
REMARK    3  A    between atoms: N_7  and  C_12 
ROOT
HETATM    1  C   UNL     1      63.318   8.318   4.690  1.00  0.00    -0.024 A 
HETATM    2  C   UNL     1      64.675   8.416   5.055  1.00  0.00     0.021 A 
HETATM    3  C   UNL     1      65.256   7.583   6.030  1.00  0.00    -0.032 A 
HETATM    4  C   UNL     1      62.563   7.311   5.315  1.00  0.00     0.012 A 
HETATM    5  C   UNL     1      63.125   6.469   6.280  1.00  0.00     0.001 A 
HETATM    6  C   UNL     1      64.462   6.607   6.641  1.00  0.00     0.009 A 
ENDROOT
BRANCH   1   7
HETATM    7  C   UNL     1      62.716   9.256   3.715  1.00  0.00    -0.011 A 
HETATM    8  C   UNL     1      62.304  10.544   4.077  1.00  0.00     0.099 A 
HETATM    9  N   UNL     1      61.770  11.467   3.237  1.00  0.00    -0.374 N 
HETATM   10  C   UNL     1      61.645  11.105   1.946  1.00  0.00     0.087 A 
ATOM     11  HN  UNL     1      61.479  12.387   3.567  1.00  0.00     0.164 HD
HETATM   12  C   UNL     1      62.019   9.866   1.463  1.00  0.00     0.018 A 
HETATM   13  C   UNL     1      62.550   8.937   2.359  1.00  0.00     0.015 A 
ENDBRANCH   1   7
BRANCH   3  14
HETATM   14  C   UNL     1      66.713   7.739   6.406  1.00  0.00     0.270 C 
BRANCH  14  15
HETATM   15  N   UNL     1      67.493   6.565   6.008  1.00  0.00    -0.075 N 
HETATM   16  C   UNL     1      68.034   5.875   7.168  1.00  0.00     0.267 C 
HETATM   17  H   UNL     1      68.263   6.865   5.411  1.00  0.00     0.277 HD
HETATM   18  H   UNL     1      66.878   5.923   5.509  1.00  0.00     0.277 HD
ENDBRANCH  14  15
ENDBRANCH   3  14
TORSDOF 3
ENDMDL
MODEL 3
REMARK VINA RESULT:      -5.1      1.672      2.834
REMARK  3 active torsions:
REMARK  status: ('A' for Active; 'I' for Inactive)
REMARK    1  A    between atoms: C_1  and  C_5 
REMARK    2  A    between atoms: C_6  and  C_12 
REMARK    3  A    between atoms: N_7  and  C_12 
ROOT
HETATM    1  C   UNL     1      64.545   7.326   4.279  1.00  0.00    -0.024 A 
HETATM    2  C   UNL     1      63.782   8.499   4.440  1.00  0.00     0.021 A 
HETATM    3  C   UNL     1      62.818   8.908   3.498  1.00  0.00    -0.032 A 
HETATM    4  C   UNL     1      64.274   6.543   3.143  1.00  0.00     0.012 A 
HETATM    5  C   UNL     1      63.316   6.929   2.201  1.00  0.00     0.001 A 
HETATM    6  C   UNL     1      62.595   8.108   2.374  1.00  0.00     0.009 A 
ENDROOT
BRANCH   1   7
HETATM    7  C   UNL     1      65.603   6.960   5.248  1.00  0.00    -0.011 A 
HETATM    8  C   UNL     1      65.430   7.102   6.630  1.00  0.00     0.099 A 
HETATM    9  N   UNL     1      66.341   6.765   7.577  1.00  0.00    -0.374 N 
HETATM   10  C   UNL     1      67.499   6.237   7.139  1.00  0.00     0.087 A 
ATOM     11  HN  UNL     1      66.157   6.904   8.571  1.00  0.00     0.164 HD
HETATM   12  C   UNL     1      67.789   6.041   5.802  1.00  0.00     0.018 A 
HETATM   13  C   UNL     1      66.835   6.414   4.855  1.00  0.00     0.015 A 
ENDBRANCH   1   7
BRANCH   3  14
HETATM   14  C   UNL     1      62.037  10.187   3.703  1.00  0.00     0.270 C 
BRANCH  14  15
HETATM   15  N   UNL     1      61.325  10.576   2.484  1.00  0.00    -0.075 N 
HETATM   16  C   UNL     1      61.757  11.884   2.017  1.00  0.00     0.267 C 
HETATM   17  H   UNL     1      60.325  10.606   2.679  1.00  0.00     0.277 HD
HETATM   18  H   UNL     1      61.530   9.890   1.758  1.00  0.00     0.277 HD
ENDBRANCH  14  15
ENDBRANCH   3  14
TORSDOF 3
ENDMDL
MODEL 4
REMARK VINA RESULT:      -5.1      2.223      6.248
REMARK  3 active torsions:
REMARK  status: ('A' for Active; 'I' for Inactive)
REMARK    1  A    between atoms: C_1  and  C_5 
REMARK    2  A    between atoms: C_6  and  C_12 
REMARK    3  A    between atoms: N_7  and  C_12 
ROOT
HETATM    1  C   UNL     1      64.592   7.788   4.435  1.00  0.00    -0.024 A 
HETATM    2  C   UNL     1      65.597   7.714   5.420  1.00  0.00     0.021 A 
HETATM    3  C   UNL     1      66.438   6.593   5.558  1.00  0.00    -0.032 A 
HETATM    4  C   UNL     1      64.487   6.698   3.552  1.00  0.00     0.012 A 
HETATM    5  C   UNL     1      65.319   5.581   3.670  1.00  0.00     0.001 A 
HETATM    6  C   UNL     1      66.285   5.524   4.670  1.00  0.00     0.009 A 
ENDROOT
BRANCH   1   7
HETATM    7  C   UNL     1      63.674   8.947   4.361  1.00  0.00    -0.011 A 
HETATM    8  C   UNL     1      63.690   9.972   5.314  1.00  0.00     0.099 A 
HETATM    9  N   UNL     1      62.899  11.075   5.298  1.00  0.00    -0.374 N 
HETATM   10  C   UNL     1      62.042  11.188   4.265  1.00  0.00     0.087 A 
ATOM     11  HN  UNL     1      62.953  11.783   6.030  1.00  0.00     0.164 HD
HETATM   12  C   UNL     1      61.935  10.247   3.259  1.00  0.00     0.018 A 
HETATM   13  C   UNL     1      62.752   9.118   3.316  1.00  0.00     0.015 A 
ENDBRANCH   1   7
BRANCH   3  14
HETATM   14  C   UNL     1      67.489   6.550   6.645  1.00  0.00     0.270 C 
BRANCH  14  15
HETATM   15  N   UNL     1      67.115   7.395   7.781  1.00  0.00    -0.075 N 
HETATM   16  C   UNL     1      66.841   6.595   8.964  1.00  0.00     0.267 C 
HETATM   17  H   UNL     1      66.279   7.926   7.538  1.00  0.00     0.277 HD
HETATM   18  H   UNL     1      67.893   8.020   7.988  1.00  0.00     0.277 HD
ENDBRANCH  14  15
ENDBRANCH   3  14
TORSDOF 3
ENDMDL
MODEL 5
REMARK VINA RESULT:      -4.7      1.501      5.811
REMARK  3 active torsions:
REMARK  status: ('A' for Active; 'I' for Inactive)
REMARK    1  A    between atoms: C_1  and  C_5 
REMARK    2  A    between atoms: C_6  and  C_12 
REMARK    3  A    between atoms: N_7  and  C_12 
ROOT
HETATM    1  C   UNL     1      61.641   8.706   3.410  1.00  0.00    -0.024 A 
HETATM    2  C   UNL     1      62.610   7.948   4.095  1.00  0.00     0.021 A 
HETATM    3  C   UNL     1      63.536   8.531   4.982  1.00  0.00    -0.032 A 
HETATM    4  C   UNL     1      61.604  10.085   3.682  1.00  0.00     0.012 A 
HETATM    5  C   UNL     1      62.510  10.679   4.565  1.00  0.00     0.001 A 
HETATM    6  C   UNL     1      63.475   9.909   5.207  1.00  0.00     0.009 A 
ENDROOT
BRANCH   1   7
HETATM    7  C   UNL     1      60.728   8.077   2.428  1.00  0.00    -0.011 A 
HETATM    8  C   UNL     1      59.841   7.054   2.783  1.00  0.00     0.099 A 
HETATM    9  N   UNL     1      58.959   6.450   1.947  1.00  0.00    -0.374 N 
HETATM   10  C   UNL     1      58.937   6.889   0.674  1.00  0.00     0.087 A 
ATOM     11  HN  UNL     1      58.344   5.701   2.267  1.00  0.00     0.164 HD
HETATM   12  C   UNL     1      59.759   7.893   0.201  1.00  0.00     0.018 A 
HETATM   13  C   UNL     1      60.664   8.482   1.086  1.00  0.00     0.015 A 
ENDBRANCH   1   7
BRANCH   3  14
HETATM   14  C   UNL     1      64.574   7.679   5.680  1.00  0.00     0.270 C 
BRANCH  14  15
HETATM   15  N   UNL     1      65.646   8.503   6.242  1.00  0.00    -0.075 N 
HETATM   16  C   UNL     1      66.877   7.739   6.382  1.00  0.00     0.267 C 
HETATM   17  H   UNL     1      65.359   8.842   7.159  1.00  0.00     0.277 HD
HETATM   18  H   UNL     1      65.821   9.281   5.607  1.00  0.00     0.277 HD
ENDBRANCH  14  15
ENDBRANCH   3  14
TORSDOF 3
ENDMDL
MODEL 6
REMARK VINA RESULT:      -4.6      2.659      4.449
REMARK  3 active torsions:
REMARK  status: ('A' for Active; 'I' for Inactive)
REMARK    1  A    between atoms: C_1  and  C_5 
REMARK    2  A    between atoms: C_6  and  C_12 
REMARK    3  A    between atoms: N_7  and  C_12 
ROOT
HETATM    1  C   UNL     1      65.806   6.281   5.692  1.00  0.00    -0.024 A 
HETATM    2  C   UNL     1      64.835   7.302   5.651  1.00  0.00     0.021 A 
HETATM    3  C   UNL     1      64.107   7.605   4.484  1.00  0.00    -0.032 A 
HETATM    4  C   UNL     1      65.993   5.535   4.514  1.00  0.00     0.012 A 
HETATM    5  C   UNL     1      65.274   5.818   3.349  1.00  0.00     0.001 A 
HETATM    6  C   UNL     1      64.340   6.850   3.331  1.00  0.00     0.009 A 
ENDROOT
BRANCH   1   7
HETATM    7  C   UNL     1      66.608   6.033   6.911  1.00  0.00    -0.011 A 
HETATM    8  C   UNL     1      66.684   6.963   7.955  1.00  0.00     0.099 A 
HETATM    9  N   UNL     1      67.375   6.796   9.111  1.00  0.00    -0.374 N 
HETATM   10  C   UNL     1      68.027   5.627   9.260  1.00  0.00     0.087 A 
ATOM     11  HN  UNL     1      67.399   7.519   9.830  1.00  0.00     0.164 HD
HETATM   12  C   UNL     1      68.026   4.628   8.305  1.00  0.00     0.018 A 
HETATM   13  C   UNL     1      67.318   4.841   7.122  1.00  0.00     0.015 A 
ENDBRANCH   1   7
BRANCH   3  14
HETATM   14  C   UNL     1      63.090   8.725   4.482  1.00  0.00     0.270 C 
BRANCH  14  15
HETATM   15  N   UNL     1      63.367   9.696   5.542  1.00  0.00    -0.075 N 
HETATM   16  C   UNL     1      62.784  10.993   5.232  1.00  0.00     0.267 C 
HETATM   17  H   UNL     1      64.376   9.801   5.642  1.00  0.00     0.277 HD
HETATM   18  H   UNL     1      62.951   9.355   6.409  1.00  0.00     0.277 HD
ENDBRANCH  14  15
ENDBRANCH   3  14
TORSDOF 3
ENDMDL
MODEL 7
REMARK VINA RESULT:      -4.5      1.574      6.020
REMARK  3 active torsions:
REMARK  status: ('A' for Active; 'I' for Inactive)
REMARK    1  A    between atoms: C_1  and  C_5 
REMARK    2  A    between atoms: C_6  and  C_12 
REMARK    3  A    between atoms: N_7  and  C_12 
ROOT
HETATM    1  C   UNL     1      64.063   8.029   4.838  1.00  0.00    -0.024 A 
HETATM    2  C   UNL     1      63.802   6.725   5.302  1.00  0.00     0.021 A 
HETATM    3  C   UNL     1      64.660   6.055   6.195  1.00  0.00    -0.032 A 
HETATM    4  C   UNL     1      65.212   8.665   5.342  1.00  0.00     0.012 A 
HETATM    5  C   UNL     1      66.071   8.018   6.236  1.00  0.00     0.001 A 
HETATM    6  C   UNL     1      65.801   6.719   6.656  1.00  0.00     0.009 A 
ENDROOT
BRANCH   1   7
HETATM    7  C   UNL     1      63.182   8.680   3.842  1.00  0.00    -0.011 A 
HETATM    8  C   UNL     1      62.538   9.897   4.098  1.00  0.00     0.099 A 
HETATM    9  N   UNL     1      61.740  10.565   3.228  1.00  0.00    -0.374 N 
HETATM   10  C   UNL     1      61.572  10.007   2.014  1.00  0.00     0.087 A 
ATOM     11  HN  UNL     1      61.290  11.445   3.480  1.00  0.00     0.164 HD
HETATM   12  C   UNL     1      62.156   8.813   1.637  1.00  0.00     0.018 A 
HETATM   13  C   UNL     1      62.959   8.146   2.563  1.00  0.00     0.015 A 
ENDBRANCH   1   7
BRANCH   3  14
HETATM   14  C   UNL     1      64.349   4.646   6.650  1.00  0.00     0.270 C 
BRANCH  14  15
HETATM   15  N   UNL     1      65.318   4.183   7.645  1.00  0.00    -0.075 N 
HETATM   16  C   UNL     1      66.054   3.025   7.161  1.00  0.00     0.267 C 
HETATM   17  H   UNL     1      64.823   3.929   8.498  1.00  0.00     0.277 HD
HETATM   18  H   UNL     1      65.982   4.935   7.823  1.00  0.00     0.277 HD
ENDBRANCH  14  15
ENDBRANCH   3  14
TORSDOF 3
ENDMDL
MODEL 8
REMARK VINA RESULT:      -4.4      1.611      2.839
REMARK  3 active torsions:
REMARK  status: ('A' for Active; 'I' for Inactive)
REMARK    1  A    between atoms: C_1  and  C_5 
REMARK    2  A    between atoms: C_6  and  C_12 
REMARK    3  A    between atoms: N_7  and  C_12 
ROOT
HETATM    1  C   UNL     1      63.734   7.241   5.647  1.00  0.00    -0.024 A 
HETATM    2  C   UNL     1      63.491   8.501   5.067  1.00  0.00     0.021 A 
HETATM    3  C   UNL     1      62.322   8.782   4.335  1.00  0.00    -0.032 A 
HETATM    4  C   UNL     1      62.728   6.270   5.502  1.00  0.00     0.012 A 
HETATM    5  C   UNL     1      61.557   6.534   4.785  1.00  0.00     0.001 A 
HETATM    6  C   UNL     1      61.356   7.781   4.199  1.00  0.00     0.009 A 
ENDROOT
BRANCH   1   7
HETATM    7  C   UNL     1      65.006   6.951   6.348  1.00  0.00    -0.011 A 
HETATM    8  C   UNL     1      66.105   7.817   6.287  1.00  0.00     0.099 A 
HETATM    9  N   UNL     1      67.290   7.632   6.922  1.00  0.00    -0.374 N 
HETATM   10  C   UNL     1      67.401   6.526   7.682  1.00  0.00     0.087 A 
ATOM     11  HN  UNL     1      68.057   8.298   6.828  1.00  0.00     0.164 HD
HETATM   12  C   UNL     1      66.388   5.597   7.827  1.00  0.00     0.018 A 
HETATM   13  C   UNL     1      65.189   5.812   7.147  1.00  0.00     0.015 A 
ENDBRANCH   1   7
BRANCH   3  14
HETATM   14  C   UNL     1      62.114  10.145   3.711  1.00  0.00     0.270 C 
BRANCH  14  15
HETATM   15  N   UNL     1      61.300  10.055   2.497  1.00  0.00    -0.075 N 
HETATM   16  C   UNL     1      62.124   9.773   1.332  1.00  0.00     0.267 C 
HETATM   17  H   UNL     1      60.816  10.941   2.355  1.00  0.00     0.277 HD
HETATM   18  H   UNL     1      60.633   9.293   2.612  1.00  0.00     0.277 HD
ENDBRANCH  14  15
ENDBRANCH   3  14
TORSDOF 3
ENDMDL
MODEL 9
REMARK VINA RESULT:      -4.4      2.227      5.747
REMARK  3 active torsions:
REMARK  status: ('A' for Active; 'I' for Inactive)
REMARK    1  A    between atoms: C_1  and  C_5 
REMARK    2  A    between atoms: C_6  and  C_12 
REMARK    3  A    between atoms: N_7  and  C_12 
ROOT
HETATM    1  C   UNL     1      63.517   7.601   3.140  1.00  0.00    -0.024 A 
HETATM    2  C   UNL     1      64.517   6.943   3.883  1.00  0.00     0.021 A 
HETATM    3  C   UNL     1      64.962   5.646   3.566  1.00  0.00    -0.032 A 
HETATM    4  C   UNL     1      63.001   6.917   2.025  1.00  0.00     0.012 A 
HETATM    5  C   UNL     1      63.437   5.632   1.691  1.00  0.00     0.001 A 
HETATM    6  C   UNL     1      64.408   4.996   2.459  1.00  0.00     0.009 A 
ENDROOT
BRANCH   1   7
HETATM    7  C   UNL     1      63.015   8.935   3.542  1.00  0.00    -0.011 A 
HETATM    8  C   UNL     1      62.178   9.696   2.717  1.00  0.00     0.099 A 
HETATM    9  N   UNL     1      61.660  10.911   3.026  1.00  0.00    -0.374 N 
HETATM   10  C   UNL     1      61.973  11.410   4.237  1.00  0.00     0.087 A 
ATOM     11  HN  UNL     1      61.062  11.420   2.374  1.00  0.00     0.164 HD
HETATM   12  C   UNL     1      62.785  10.755   5.143  1.00  0.00     0.018 A 
HETATM   13  C   UNL     1      63.313   9.514   4.785  1.00  0.00     0.015 A 
ENDBRANCH   1   7
BRANCH   3  14
HETATM   14  C   UNL     1      66.025   4.971   4.406  1.00  0.00     0.270 C 
BRANCH  14  15
HETATM   15  N   UNL     1      66.232   5.679   5.671  1.00  0.00    -0.075 N 
HETATM   16  C   UNL     1      67.633   6.022   5.858  1.00  0.00     0.267 C 
HETATM   17  H   UNL     1      65.931   5.081   6.439  1.00  0.00     0.277 HD
HETATM   18  H   UNL     1      65.689   6.542   5.650  1.00  0.00     0.277 HD
ENDBRANCH  14  15
ENDBRANCH   3  14
TORSDOF 3
ENDMDL
