MODEL 1
REMARK VINA RESULT:      -5.6      0.000      0.000
REMARK  3 active torsions:
REMARK  status: ('A' for Active; 'I' for Inactive)
REMARK    1  A    between atoms: C_1  and  C_5 
REMARK    2  A    between atoms: C_6  and  C_12 
REMARK    3  A    between atoms: O_8  and  C_12 
ROOT
HETATM    1  C   UNL     1      63.340   8.283   4.665  1.00  0.00    -0.024 A 
HETATM    2  C   UNL     1      64.699   8.377   5.026  1.00  0.00     0.021 A 
HETATM    3  C   UNL     1      65.277   7.533   5.993  1.00  0.00    -0.034 A 
HETATM    4  C   UNL     1      62.579   7.286   5.300  1.00  0.00     0.012 A 
HETATM    5  C   UNL     1      63.143   6.429   6.250  1.00  0.00     0.002 A 
HETATM    6  C   UNL     1      64.485   6.556   6.600  1.00  0.00     0.009 A 
ENDROOT
BRANCH   1   7
HETATM    7  C   UNL     1      62.733   9.209   3.681  1.00  0.00    -0.011 A 
HETATM    8  C   UNL     1      62.302  10.493   4.026  1.00  0.00     0.099 A 
HETATM    9  N   UNL     1      61.770  11.402   3.168  1.00  0.00    -0.374 N 
HETATM   10  C   UNL     1      61.644  11.017   1.884  1.00  0.00     0.087 A 
ATOM     11  HN  UNL     1      61.481  12.329   3.481  1.00  0.00     0.164 HD
HETATM   12  C   UNL     1      62.019   9.768   1.423  1.00  0.00     0.018 A 
HETATM   13  C   UNL     1      62.569   8.864   2.331  1.00  0.00     0.015 A 
ENDBRANCH   1   7
BRANCH   3  14
HETATM   14  C   UNL     1      66.721   7.704   6.379  1.00  0.00     0.202 C 
BRANCH  14  15
HETATM   15  O   UNL     1      66.923   8.943   7.042  1.00  0.00    -0.396 OA
HETATM   16  H   UNL     1      67.556   8.823   7.768  1.00  0.00     0.209 HD
ENDBRANCH  14  15
ENDBRANCH   3  14
TORSDOF 3
ENDMDL
MODEL 2
REMARK VINA RESULT:      -5.5      2.853      5.190
REMARK  3 active torsions:
REMARK  status: ('A' for Active; 'I' for Inactive)
REMARK    1  A    between atoms: C_1  and  C_5 
REMARK    2  A    between atoms: C_6  and  C_12 
REMARK    3  A    between atoms: O_8  and  C_12 
ROOT
HETATM    1  C   UNL     1      64.306   7.861   4.484  1.00  0.00    -0.024 A 
HETATM    2  C   UNL     1      64.156   9.016   5.276  1.00  0.00     0.021 A 
HETATM    3  C   UNL     1      63.188   9.998   4.991  1.00  0.00    -0.034 A 
HETATM    4  C   UNL     1      63.425   7.712   3.398  1.00  0.00     0.012 A 
HETATM    5  C   UNL     1      62.447   8.670   3.114  1.00  0.00     0.002 A 
HETATM    6  C   UNL     1      62.333   9.811   3.903  1.00  0.00     0.009 A 
ENDROOT
BRANCH   1   7
HETATM    7  C   UNL     1      65.360   6.859   4.764  1.00  0.00    -0.011 A 
HETATM    8  C   UNL     1      66.453   6.661   3.916  1.00  0.00     0.099 A 
HETATM    9  N   UNL     1      67.469   5.787   4.131  1.00  0.00    -0.374 N 
HETATM   10  C   UNL     1      67.401   5.047   5.255  1.00  0.00     0.087 A 
ATOM     11  HN  UNL     1      68.245   5.695   3.476  1.00  0.00     0.164 HD
HETATM   12  C   UNL     1      66.364   5.140   6.164  1.00  0.00     0.018 A 
HETATM   13  C   UNL     1      65.341   6.055   5.915  1.00  0.00     0.015 A 
ENDBRANCH   1   7
BRANCH   3  14
HETATM   14  C   UNL     1      63.098  11.238   5.838  1.00  0.00     0.202 C 
BRANCH  14  15
HETATM   15  O   UNL     1      64.345  11.518   6.457  1.00  0.00    -0.396 OA
HETATM   16  H   UNL     1      64.537  12.467   6.386  1.00  0.00     0.209 HD
ENDBRANCH  14  15
ENDBRANCH   3  14
TORSDOF 3
ENDMDL
MODEL 3
REMARK VINA RESULT:      -5.4      2.895      5.412
REMARK  3 active torsions:
REMARK  status: ('A' for Active; 'I' for Inactive)
REMARK    1  A    between atoms: C_1  and  C_5 
REMARK    2  A    between atoms: C_6  and  C_12 
REMARK    3  A    between atoms: O_8  and  C_12 
ROOT
HETATM    1  C   UNL     1      63.462   8.189   3.968  1.00  0.00    -0.024 A 
HETATM    2  C   UNL     1      62.922   9.491   3.986  1.00  0.00     0.021 A 
HETATM    3  C   UNL     1      62.209  10.020   2.894  1.00  0.00    -0.034 A 
HETATM    4  C   UNL     1      63.239   7.421   2.811  1.00  0.00     0.012 A 
HETATM    5  C   UNL     1      62.518   7.927   1.726  1.00  0.00     0.002 A 
HETATM    6  C   UNL     1      62.010   9.223   1.763  1.00  0.00     0.009 A 
ENDROOT
BRANCH   1   7
HETATM    7  C   UNL     1      64.251   7.661   5.105  1.00  0.00    -0.011 A 
HETATM    8  C   UNL     1      65.352   8.340   5.634  1.00  0.00     0.099 A 
HETATM    9  N   UNL     1      66.096   7.930   6.693  1.00  0.00    -0.374 N 
HETATM   10  C   UNL     1      65.738   6.766   7.267  1.00  0.00     0.087 A 
ATOM     11  HN  UNL     1      66.885   8.477   7.037  1.00  0.00     0.164 HD
HETATM   12  C   UNL     1      64.678   5.995   6.826  1.00  0.00     0.018 A 
HETATM   13  C   UNL     1      63.931   6.452   5.740  1.00  0.00     0.015 A 
ENDBRANCH   1   7
BRANCH   3  14
HETATM   14  C   UNL     1      61.692  11.432   2.941  1.00  0.00     0.202 C 
BRANCH  14  15
HETATM   15  O   UNL     1      62.085  12.152   1.782  1.00  0.00    -0.396 OA
HETATM   16  H   UNL     1      61.296  12.462   1.310  1.00  0.00     0.209 HD
ENDBRANCH  14  15
ENDBRANCH   3  14
TORSDOF 3
ENDMDL
MODEL 4
REMARK VINA RESULT:      -5.3      3.125      5.623
REMARK  3 active torsions:
REMARK  status: ('A' for Active; 'I' for Inactive)
REMARK    1  A    between atoms: C_1  and  C_5 
REMARK    2  A    between atoms: C_6  and  C_12 
REMARK    3  A    between atoms: O_8  and  C_12 
ROOT
HETATM    1  C   UNL     1      63.504   9.014   4.644  1.00  0.00    -0.024 A 
HETATM    2  C   UNL     1      63.013   8.705   3.359  1.00  0.00     0.021 A 
HETATM    3  C   UNL     1      62.167   9.580   2.652  1.00  0.00    -0.034 A 
HETATM    4  C   UNL     1      63.129  10.255   5.190  1.00  0.00     0.012 A 
HETATM    5  C   UNL     1      62.303  11.141   4.491  1.00  0.00     0.002 A 
HETATM    6  C   UNL     1      61.819  10.803   3.230  1.00  0.00     0.009 A 
ENDROOT
BRANCH   1   7
HETATM    7  C   UNL     1      64.354   8.065   5.399  1.00  0.00    -0.011 A 
HETATM    8  C   UNL     1      63.822   7.005   6.139  1.00  0.00     0.099 A 
HETATM    9  N   UNL     1      64.544   6.081   6.823  1.00  0.00    -0.374 N 
HETATM   10  C   UNL     1      65.884   6.214   6.785  1.00  0.00     0.087 A 
ATOM     11  HN  UNL     1      64.095   5.325   7.339  1.00  0.00     0.164 HD
HETATM   12  C   UNL     1      66.528   7.228   6.101  1.00  0.00     0.018 A 
HETATM   13  C   UNL     1      65.754   8.154   5.402  1.00  0.00     0.015 A 
ENDBRANCH   1   7
BRANCH   3  14
HETATM   14  C   UNL     1      61.631   9.185   1.302  1.00  0.00     0.202 C 
BRANCH  14  15
HETATM   15  O   UNL     1      60.240   8.909   1.374  1.00  0.00    -0.396 OA
HETATM   16  H   UNL     1      59.896   8.747   0.481  1.00  0.00     0.209 HD
ENDBRANCH  14  15
ENDBRANCH   3  14
TORSDOF 3
ENDMDL
MODEL 5
REMARK VINA RESULT:      -5.2      2.698      4.736
REMARK  3 active torsions:
REMARK  status: ('A' for Active; 'I' for Inactive)
REMARK    1  A    between atoms: C_1  and  C_5 
REMARK    2  A    between atoms: C_6  and  C_12 
REMARK    3  A    between atoms: O_8  and  C_12 
ROOT
HETATM    1  C   UNL     1      63.101   8.483   3.865  1.00  0.00    -0.024 A 
HETATM    2  C   UNL     1      63.277   9.292   5.006  1.00  0.00     0.021 A 
HETATM    3  C   UNL     1      62.808  10.618   5.062  1.00  0.00    -0.034 A 
HETATM    4  C   UNL     1      62.409   9.051   2.781  1.00  0.00     0.012 A 
HETATM    5  C   UNL     1      61.921  10.360   2.829  1.00  0.00     0.002 A 
HETATM    6  C   UNL     1      62.125  11.143   3.963  1.00  0.00     0.009 A 
ENDROOT
BRANCH   1   7
HETATM    7  C   UNL     1      63.642   7.106   3.800  1.00  0.00    -0.011 A 
HETATM    8  C   UNL     1      63.891   6.454   2.589  1.00  0.00     0.099 A 
HETATM    9  N   UNL     1      64.417   5.210   2.458  1.00  0.00    -0.374 N 
HETATM   10  C   UNL     1      64.710   4.555   3.598  1.00  0.00     0.087 A 
ATOM     11  HN  UNL     1      64.583   4.791   1.542  1.00  0.00     0.164 HD
HETATM   12  C   UNL     1      64.495   5.087   4.856  1.00  0.00     0.018 A 
HETATM   13  C   UNL     1      63.961   6.371   4.952  1.00  0.00     0.015 A 
ENDBRANCH   1   7
BRANCH   3  14
HETATM   14  C   UNL     1      63.062  11.458   6.284  1.00  0.00     0.202 C 
BRANCH  14  15
HETATM   15  O   UNL     1      64.455  11.653   6.480  1.00  0.00    -0.396 OA
HETATM   16  H   UNL     1      64.823  12.145   5.729  1.00  0.00     0.209 HD
ENDBRANCH  14  15
ENDBRANCH   3  14
TORSDOF 3
ENDMDL
MODEL 6
REMARK VINA RESULT:      -4.8      1.932      2.907
REMARK  3 active torsions:
REMARK  status: ('A' for Active; 'I' for Inactive)
REMARK    1  A    between atoms: C_1  and  C_5 
REMARK    2  A    between atoms: C_6  and  C_12 
REMARK    3  A    between atoms: O_8  and  C_12 
ROOT
HETATM    1  C   UNL     1      65.425   7.711   5.334  1.00  0.00    -0.024 A 
HETATM    2  C   UNL     1      65.356   7.212   6.650  1.00  0.00     0.021 A 
HETATM    3  C   UNL     1      66.451   6.580   7.268  1.00  0.00    -0.034 A 
HETATM    4  C   UNL     1      66.652   7.572   4.661  1.00  0.00     0.012 A 
HETATM    5  C   UNL     1      67.754   6.963   5.269  1.00  0.00     0.002 A 
HETATM    6  C   UNL     1      67.653   6.463   6.564  1.00  0.00     0.009 A 
ENDROOT
BRANCH   1   7
HETATM    7  C   UNL     1      64.251   8.331   4.677  1.00  0.00    -0.011 A 
HETATM    8  C   UNL     1      63.649   9.497   5.159  1.00  0.00     0.099 A 
HETATM    9  N   UNL     1      62.596  10.134   4.586  1.00  0.00    -0.374 N 
HETATM   10  C   UNL     1      62.092   9.581   3.467  1.00  0.00     0.087 A 
ATOM     11  HN  UNL     1      62.206  10.989   4.984  1.00  0.00     0.164 HD
HETATM   12  C   UNL     1      62.589   8.421   2.901  1.00  0.00     0.018 A 
HETATM   13  C   UNL     1      63.677   7.798   3.511  1.00  0.00     0.015 A 
ENDBRANCH   1   7
BRANCH   3  14
HETATM   14  C   UNL     1      66.315   6.021   8.658  1.00  0.00     0.202 C 
BRANCH  14  15
HETATM   15  O   UNL     1      66.304   4.601   8.631  1.00  0.00    -0.396 OA
HETATM   16  H   UNL     1      67.209   4.267   8.734  1.00  0.00     0.209 HD
ENDBRANCH  14  15
ENDBRANCH   3  14
TORSDOF 3
ENDMDL
MODEL 7
REMARK VINA RESULT:      -4.5      3.906      6.717
REMARK  3 active torsions:
REMARK  status: ('A' for Active; 'I' for Inactive)
REMARK    1  A    between atoms: C_1  and  C_5 
REMARK    2  A    between atoms: C_6  and  C_12 
REMARK    3  A    between atoms: O_8  and  C_12 
ROOT
HETATM    1  C   UNL     1      65.216   6.744   6.655  1.00  0.00    -0.024 A 
HETATM    2  C   UNL     1      63.860   6.376   6.546  1.00  0.00     0.021 A 
HETATM    3  C   UNL     1      62.948   7.106   5.761  1.00  0.00    -0.034 A 
HETATM    4  C   UNL     1      65.633   7.869   5.922  1.00  0.00     0.012 A 
HETATM    5  C   UNL     1      64.742   8.593   5.123  1.00  0.00     0.002 A 
HETATM    6  C   UNL     1      63.403   8.218   5.048  1.00  0.00     0.009 A 
ENDROOT
BRANCH   1   7
HETATM    7  C   UNL     1      66.155   5.997   7.522  1.00  0.00    -0.011 A 
HETATM    8  C   UNL     1      66.112   4.606   7.652  1.00  0.00     0.099 A 
HETATM    9  N   UNL     1      66.963   3.858   8.401  1.00  0.00    -0.374 N 
HETATM   10  C   UNL     1      67.918   4.525   9.077  1.00  0.00     0.087 A 
ATOM     11  HN  UNL     1      66.883   2.842   8.449  1.00  0.00     0.164 HD
HETATM   12  C   UNL     1      68.054   5.901   9.041  1.00  0.00     0.018 A 
HETATM   13  C   UNL     1      67.167   6.636   8.254  1.00  0.00     0.015 A 
ENDBRANCH   1   7
BRANCH   3  14
HETATM   14  C   UNL     1      61.499   6.702   5.714  1.00  0.00     0.202 C 
BRANCH  14  15
HETATM   15  O   UNL     1      61.022   6.384   7.013  1.00  0.00    -0.396 OA
HETATM   16  H   UNL     1      61.060   7.174   7.575  1.00  0.00     0.209 HD
ENDBRANCH  14  15
ENDBRANCH   3  14
TORSDOF 3
ENDMDL
MODEL 8
REMARK VINA RESULT:      -4.4      3.703      5.961
REMARK  3 active torsions:
REMARK  status: ('A' for Active; 'I' for Inactive)
REMARK    1  A    between atoms: C_1  and  C_5 
REMARK    2  A    between atoms: C_6  and  C_12 
REMARK    3  A    between atoms: O_8  and  C_12 
ROOT
HETATM    1  C   UNL     1      62.303   7.863   3.076  1.00  0.00    -0.024 A 
HETATM    2  C   UNL     1      60.970   7.410   3.129  1.00  0.00     0.021 A 
HETATM    3  C   UNL     1      60.042   7.694   2.109  1.00  0.00    -0.034 A 
HETATM    4  C   UNL     1      62.683   8.600   1.941  1.00  0.00     0.012 A 
HETATM    5  C   UNL     1      61.777   8.875   0.911  1.00  0.00     0.002 A 
HETATM    6  C   UNL     1      60.461   8.429   0.998  1.00  0.00     0.009 A 
ENDROOT
BRANCH   1   7
HETATM    7  C   UNL     1      63.257   7.599   4.179  1.00  0.00    -0.011 A 
HETATM    8  C   UNL     1      62.905   7.735   5.525  1.00  0.00     0.099 A 
HETATM    9  N   UNL     1      63.717   7.476   6.581  1.00  0.00    -0.374 N 
HETATM   10  C   UNL     1      64.967   7.063   6.294  1.00  0.00     0.087 A 
ATOM     11  HN  UNL     1      63.397   7.588   7.543  1.00  0.00     0.164 HD
HETATM   12  C   UNL     1      65.438   6.905   5.004  1.00  0.00     0.018 A 
HETATM   13  C   UNL     1      64.573   7.172   3.943  1.00  0.00     0.015 A 
ENDBRANCH   1   7
BRANCH   3  14
HETATM   14  C   UNL     1      58.617   7.229   2.233  1.00  0.00     0.202 C 
BRANCH  14  15
HETATM   15  O   UNL     1      57.764   7.988   1.389  1.00  0.00    -0.396 OA
HETATM   16  H   UNL     1      57.838   8.929   1.615  1.00  0.00     0.209 HD
ENDBRANCH  14  15
ENDBRANCH   3  14
TORSDOF 3
ENDMDL
MODEL 9
REMARK VINA RESULT:      -4.3      8.887     11.374
REMARK  3 active torsions:
REMARK  status: ('A' for Active; 'I' for Inactive)
REMARK    1  A    between atoms: C_1  and  C_5 
REMARK    2  A    between atoms: C_6  and  C_12 
REMARK    3  A    between atoms: O_8  and  C_12 
ROOT
HETATM    1  C   UNL     1      58.680   2.173  10.502  1.00  0.00    -0.024 A 
HETATM    2  C   UNL     1      58.572   3.541  10.182  1.00  0.00     0.021 A 
HETATM    3  C   UNL     1      59.003   4.057   8.945  1.00  0.00    -0.034 A 
HETATM    4  C   UNL     1      59.221   1.328   9.516  1.00  0.00     0.012 A 
HETATM    5  C   UNL     1      59.637   1.823   8.277  1.00  0.00     0.002 A 
HETATM    6  C   UNL     1      59.534   3.183   7.994  1.00  0.00     0.009 A 
ENDROOT
BRANCH   1   7
HETATM    7  C   UNL     1      58.268   1.650  11.825  1.00  0.00    -0.011 A 
HETATM    8  C   UNL     1      57.121   0.870  11.999  1.00  0.00     0.099 A 
HETATM    9  N   UNL     1      56.706   0.332  13.175  1.00  0.00    -0.374 N 
HETATM   10  C   UNL     1      57.467   0.586  14.257  1.00  0.00     0.087 A 
ATOM     11  HN  UNL     1      55.861  -0.237  13.235  1.00  0.00     0.164 HD
HETATM   12  C   UNL     1      58.615   1.356  14.215  1.00  0.00     0.018 A 
HETATM   13  C   UNL     1      59.015   1.885  12.989  1.00  0.00     0.015 A 
ENDBRANCH   1   7
BRANCH   3  14
HETATM   14  C   UNL     1      58.910   5.533   8.669  1.00  0.00     0.202 C 
BRANCH  14  15
HETATM   15  O   UNL     1      58.597   6.249   9.854  1.00  0.00    -0.396 OA
HETATM   16  H   UNL     1      57.697   6.026  10.140  1.00  0.00     0.209 HD
ENDBRANCH  14  15
ENDBRANCH   3  14
TORSDOF 3
ENDMDL
