MODEL 1
REMARK VINA RESULT:      -4.4      0.000      0.000
REMARK  1 active torsions:
REMARK  status: ('A' for Active; 'I' for Inactive)
REMARK    1  A    between atoms: C_1  and  C_6 
ROOT
HETATM    1  C   UNL     1      64.044   8.272   4.645  1.00  0.00     0.113 A 
HETATM    2  N   UNL     1      63.172   9.294   4.317  1.00  0.00    -0.345 N 
HETATM    3  C   UNL     1      63.995   7.333   3.619  1.00  0.00     0.058 A 
HETATM    4  C   UNL     1      62.591   9.010   3.097  1.00  0.00     0.052 A 
HETATM    5  C   UNL     1      63.076   7.819   2.655  1.00  0.00     0.034 A 
HETATM    6  S   UNL     1      62.411   7.356   1.125  1.00  0.00    -0.100 SA
HETATM    7  C   UNL     1      61.653   9.605   2.208  1.00  0.00     0.038 A 
HETATM    8  C   UNL     1      61.477   8.800   1.103  1.00  0.00     0.053 A 
HETATM    9  C   UNL     1      62.842  10.497   5.042  1.00  0.00     0.157 C 
ENDROOT
BRANCH   1  10
HETATM   10  C   UNL     1      64.857   8.196   5.838  1.00  0.00     0.227 C 
HETATM   11  O   UNL     1      65.874   8.816   6.107  1.00  0.00    -0.643 OA
HETATM   12  O   UNL     1      64.358   7.298   6.716  1.00  0.00    -0.643 OA
ENDBRANCH   1  10
TORSDOF 1
ENDMDL
MODEL 2
REMARK VINA RESULT:      -4.4      2.068      2.994
REMARK  1 active torsions:
REMARK  status: ('A' for Active; 'I' for Inactive)
REMARK    1  A    between atoms: C_1  and  C_6 
ROOT
HETATM    1  C   UNL     1      62.670   9.918   4.111  1.00  0.00     0.113 A 
HETATM    2  N   UNL     1      63.518   8.830   4.206  1.00  0.00    -0.345 N 
HETATM    3  C   UNL     1      61.887   9.743   2.973  1.00  0.00     0.058 A 
HETATM    4  C   UNL     1      63.267   7.976   3.150  1.00  0.00     0.052 A 
HETATM    5  C   UNL     1      62.279   8.514   2.386  1.00  0.00     0.034 A 
HETATM    6  S   UNL     1      61.881   7.524   1.022  1.00  0.00    -0.100 SA
HETATM    7  C   UNL     1      63.747   6.729   2.663  1.00  0.00     0.038 A 
HETATM    8  C   UNL     1      63.068   6.381   1.514  1.00  0.00     0.053 A 
HETATM    9  C   UNL     1      64.531   8.530   5.189  1.00  0.00     0.157 C 
ENDROOT
BRANCH   1  10
HETATM   10  C   UNL     1      62.608  11.034   5.029  1.00  0.00     0.227 C 
HETATM   11  O   UNL     1      63.090  11.127   6.147  1.00  0.00    -0.643 OA
HETATM   12  O   UNL     1      61.908  12.063   4.505  1.00  0.00    -0.643 OA
ENDBRANCH   1  10
TORSDOF 1
ENDMDL
MODEL 3
REMARK VINA RESULT:      -4.1      1.499      2.405
REMARK  1 active torsions:
REMARK  status: ('A' for Active; 'I' for Inactive)
REMARK    1  A    between atoms: C_1  and  C_6 
ROOT
HETATM    1  C   UNL     1      64.548   8.275   5.072  1.00  0.00     0.113 A 
HETATM    2  N   UNL     1      64.227   7.562   3.931  1.00  0.00    -0.345 N 
HETATM    3  C   UNL     1      63.761   9.423   5.085  1.00  0.00     0.058 A 
HETATM    4  C   UNL     1      63.246   8.245   3.240  1.00  0.00     0.052 A 
HETATM    5  C   UNL     1      62.948   9.382   3.924  1.00  0.00     0.034 A 
HETATM    6  S   UNL     1      61.724  10.326   3.144  1.00  0.00    -0.100 SA
HETATM    7  C   UNL     1      62.488   8.085   2.047  1.00  0.00     0.038 A 
HETATM    8  C   UNL     1      61.628   9.152   1.891  1.00  0.00     0.053 A 
HETATM    9  C   UNL     1      64.759   6.313   3.440  1.00  0.00     0.157 C 
ENDROOT
BRANCH   1  10
HETATM   10  C   UNL     1      65.523   7.894   6.069  1.00  0.00     0.227 C 
HETATM   11  O   UNL     1      65.358   7.231   7.081  1.00  0.00    -0.643 OA
HETATM   12  O   UNL     1      66.749   8.375   5.766  1.00  0.00    -0.643 OA
ENDBRANCH   1  10
TORSDOF 1
ENDMDL
MODEL 4
REMARK VINA RESULT:      -4.0      1.502      2.292
REMARK  1 active torsions:
REMARK  status: ('A' for Active; 'I' for Inactive)
REMARK    1  A    between atoms: C_1  and  C_6 
ROOT
HETATM    1  C   UNL     1      63.209   8.039   4.863  1.00  0.00     0.113 A 
HETATM    2  N   UNL     1      63.154   7.218   3.752  1.00  0.00    -0.345 N 
HETATM    3  C   UNL     1      62.799   9.309   4.467  1.00  0.00     0.058 A 
HETATM    4  C   UNL     1      62.707   7.955   2.674  1.00  0.00     0.052 A 
HETATM    5  C   UNL     1      62.487   9.233   3.086  1.00  0.00     0.034 A 
HETATM    6  S   UNL     1      61.923  10.255   1.809  1.00  0.00    -0.100 SA
HETATM    7  C   UNL     1      62.424   7.747   1.295  1.00  0.00     0.038 A 
HETATM    8  C   UNL     1      61.990   8.924   0.723  1.00  0.00     0.053 A 
HETATM    9  C   UNL     1      63.484   5.819   3.619  1.00  0.00     0.157 C 
ENDROOT
BRANCH   1  10
HETATM   10  C   UNL     1      63.616   7.647   6.194  1.00  0.00     0.227 C 
HETATM   11  O   UNL     1      64.737   7.378   6.599  1.00  0.00    -0.643 OA
HETATM   12  O   UNL     1      62.561   7.595   7.035  1.00  0.00    -0.643 OA
ENDBRANCH   1  10
TORSDOF 1
ENDMDL
MODEL 5
REMARK VINA RESULT:      -3.8      3.285      4.864
REMARK  1 active torsions:
REMARK  status: ('A' for Active; 'I' for Inactive)
REMARK    1  A    between atoms: C_1  and  C_6 
ROOT
HETATM    1  C   UNL     1      64.099   8.392   5.422  1.00  0.00     0.113 A 
HETATM    2  N   UNL     1      63.646   7.219   5.998  1.00  0.00    -0.345 N 
HETATM    3  C   UNL     1      65.490   8.347   5.417  1.00  0.00     0.058 A 
HETATM    4  C   UNL     1      64.734   6.442   6.341  1.00  0.00     0.052 A 
HETATM    5  C   UNL     1      65.867   7.110   5.999  1.00  0.00     0.034 A 
HETATM    6  S   UNL     1      67.304   6.227   6.389  1.00  0.00    -0.100 SA
HETATM    7  C   UNL     1      64.981   5.174   6.937  1.00  0.00     0.038 A 
HETATM    8  C   UNL     1      66.339   4.948   7.014  1.00  0.00     0.053 A 
HETATM    9  C   UNL     1      62.296   6.774   6.251  1.00  0.00     0.157 C 
ENDROOT
BRANCH   1  10
HETATM   10  C   UNL     1      63.275   9.467   4.916  1.00  0.00     0.227 C 
HETATM   11  O   UNL     1      62.664   9.526   3.860  1.00  0.00    -0.643 OA
HETATM   12  O   UNL     1      63.229  10.500   5.784  1.00  0.00    -0.643 OA
ENDBRANCH   1  10
TORSDOF 1
ENDMDL
MODEL 6
REMARK VINA RESULT:      -3.8      2.770      3.137
REMARK  1 active torsions:
REMARK  status: ('A' for Active; 'I' for Inactive)
REMARK    1  A    between atoms: C_1  and  C_6 
ROOT
HETATM    1  C   UNL     1      63.425   8.107   5.250  1.00  0.00     0.113 A 
HETATM    2  N   UNL     1      62.505   8.124   4.217  1.00  0.00    -0.345 N 
HETATM    3  C   UNL     1      62.953   7.224   6.218  1.00  0.00     0.058 A 
HETATM    4  C   UNL     1      61.474   7.258   4.524  1.00  0.00     0.052 A 
HETATM    5  C   UNL     1      61.725   6.701   5.739  1.00  0.00     0.034 A 
HETATM    6  S   UNL     1      60.489   5.594   6.231  1.00  0.00    -0.100 SA
HETATM    7  C   UNL     1      60.262   6.807   3.932  1.00  0.00     0.038 A 
HETATM    8  C   UNL     1      59.642   5.900   4.766  1.00  0.00     0.053 A 
HETATM    9  C   UNL     1      62.511   8.876   2.985  1.00  0.00     0.157 C 
ENDROOT
BRANCH   1  10
HETATM   10  C   UNL     1      64.653   8.867   5.310  1.00  0.00     0.227 C 
HETATM   11  O   UNL     1      65.781   8.517   5.001  1.00  0.00    -0.643 OA
HETATM   12  O   UNL     1      64.436  10.114   5.782  1.00  0.00    -0.643 OA
ENDBRANCH   1  10
TORSDOF 1
ENDMDL
MODEL 7
REMARK VINA RESULT:      -3.7      4.209      5.902
REMARK  1 active torsions:
REMARK  status: ('A' for Active; 'I' for Inactive)
REMARK    1  A    between atoms: C_1  and  C_6 
ROOT
HETATM    1  C   UNL     1      64.506   6.342   6.412  1.00  0.00     0.113 A 
HETATM    2  N   UNL     1      65.828   6.716   6.569  1.00  0.00    -0.345 N 
HETATM    3  C   UNL     1      64.440   4.960   6.558  1.00  0.00     0.058 A 
HETATM    4  C   UNL     1      66.583   5.587   6.821  1.00  0.00     0.052 A 
HETATM    5  C   UNL     1      65.758   4.506   6.816  1.00  0.00     0.034 A 
HETATM    6  S   UNL     1      66.601   3.025   7.119  1.00  0.00    -0.100 SA
HETATM    7  C   UNL     1      67.944   5.261   7.074  1.00  0.00     0.038 A 
HETATM    8  C   UNL     1      68.075   3.900   7.253  1.00  0.00     0.053 A 
HETATM    9  C   UNL     1      66.434   8.024   6.502  1.00  0.00     0.157 C 
ENDROOT
BRANCH   1  10
HETATM   10  C   UNL     1      63.395   7.230   6.147  1.00  0.00     0.227 C 
HETATM   11  O   UNL     1      62.708   7.849   6.944  1.00  0.00    -0.643 OA
HETATM   12  O   UNL     1      63.152   7.329   4.822  1.00  0.00    -0.643 OA
ENDBRANCH   1  10
TORSDOF 1
ENDMDL
MODEL 8
REMARK VINA RESULT:      -3.6      2.257      2.893
REMARK  1 active torsions:
REMARK  status: ('A' for Active; 'I' for Inactive)
REMARK    1  A    between atoms: C_1  and  C_6 
ROOT
HETATM    1  C   UNL     1      64.184   7.909   4.899  1.00  0.00     0.113 A 
HETATM    2  N   UNL     1      63.475   6.844   5.422  1.00  0.00    -0.345 N 
HETATM    3  C   UNL     1      63.343   8.582   4.017  1.00  0.00     0.058 A 
HETATM    4  C   UNL     1      62.202   6.850   4.886  1.00  0.00     0.052 A 
HETATM    5  C   UNL     1      62.101   7.899   4.025  1.00  0.00     0.034 A 
HETATM    6  S   UNL     1      60.540   8.004   3.286  1.00  0.00    -0.100 SA
HETATM    7  C   UNL     1      61.009   6.081   4.986  1.00  0.00     0.038 A 
HETATM    8  C   UNL     1      60.038   6.614   4.165  1.00  0.00     0.053 A 
HETATM    9  C   UNL     1      63.886   5.834   6.367  1.00  0.00     0.157 C 
ENDROOT
BRANCH   1  10
HETATM   10  C   UNL     1      65.551   8.260   5.215  1.00  0.00     0.227 C 
HETATM   11  O   UNL     1      66.583   7.783   4.767  1.00  0.00    -0.643 OA
HETATM   12  O   UNL     1      65.605   9.250   6.132  1.00  0.00    -0.643 OA
ENDBRANCH   1  10
TORSDOF 1
ENDMDL
MODEL 9
REMARK VINA RESULT:      -3.6      6.148      6.377
REMARK  1 active torsions:
REMARK  status: ('A' for Active; 'I' for Inactive)
REMARK    1  A    between atoms: C_1  and  C_6 
ROOT
HETATM    1  C   UNL     1      58.543   6.108   7.508  1.00  0.00     0.113 A 
HETATM    2  N   UNL     1      57.420   6.556   6.837  1.00  0.00    -0.345 N 
HETATM    3  C   UNL     1      59.530   5.861   6.558  1.00  0.00     0.058 A 
HETATM    4  C   UNL     1      57.699   6.603   5.485  1.00  0.00     0.052 A 
HETATM    5  C   UNL     1      58.977   6.181   5.293  1.00  0.00     0.034 A 
HETATM    6  S   UNL     1      59.438   6.194   3.624  1.00  0.00    -0.100 SA
HETATM    7  C   UNL     1      57.031   6.959   4.280  1.00  0.00     0.038 A 
HETATM    8  C   UNL     1      57.876   6.780   3.206  1.00  0.00     0.053 A 
HETATM    9  C   UNL     1      56.127   6.938   7.350  1.00  0.00     0.157 C 
ENDROOT
BRANCH   1  10
HETATM   10  C   UNL     1      58.666   5.929   8.938  1.00  0.00     0.227 C 
HETATM   11  O   UNL     1      58.766   4.889   9.570  1.00  0.00    -0.643 OA
HETATM   12  O   UNL     1      58.660   7.116   9.583  1.00  0.00    -0.643 OA
ENDBRANCH   1  10
TORSDOF 1
ENDMDL
