MODEL 1
REMARK VINA RESULT:      -5.3      0.000      0.000
REMARK  3 active torsions:
REMARK  status: ('A' for Active; 'I' for Inactive)
REMARK    1  A    between atoms: C_3  and  C_7 
REMARK    2  A    between atoms: C_12  and  C_15 
REMARK    3  A    between atoms: O_13  and  C_15 
ROOT
HETATM    1  C   UNL     1      63.519   8.233   4.724  1.00  0.00    -0.009 A 
HETATM    2  C   UNL     1      63.076   9.475   5.196  1.00  0.00     0.014 A 
HETATM    3  C   UNL     1      63.254   7.888   3.393  1.00  0.00     0.014 A 
HETATM    4  C   UNL     1      62.403  10.365   4.350  1.00  0.00     0.010 A 
HETATM    5  C   UNL     1      62.579   8.774   2.547  1.00  0.00     0.010 A 
HETATM    6  C   UNL     1      62.151  10.023   3.016  1.00  0.00    -0.035 A 
ENDROOT
BRANCH   1   7
HETATM    7  C   UNL     1      64.236   7.331   5.620  1.00  0.00     0.049 A 
HETATM    8  N   UNL     1      65.240   7.790   6.463  1.00  0.00    -0.353 N 
HETATM    9  C   UNL     1      65.726   6.793   7.169  1.00  0.00     0.047 A 
ATOM     10  HN  UNL     1      65.554   8.759   6.525  1.00  0.00     0.166 HD
HETATM   11  S   UNL     1      65.046   5.250   6.843  1.00  0.00    -0.087 SA
HETATM   12  C   UNL     1      66.797   6.926   8.196  1.00  0.00     0.076 C 
HETATM   13  C   UNL     1      64.010   5.970   5.684  1.00  0.00     0.081 A 
ENDBRANCH   1   7
BRANCH   6  14
HETATM   14  C   UNL     1      61.420  10.964   2.097  1.00  0.00     0.202 C 
BRANCH  14  15
HETATM   15  O   UNL     1      62.181  12.144   1.884  1.00  0.00    -0.396 OA
HETATM   16  H   UNL     1      61.769  12.673   1.183  1.00  0.00     0.209 HD
ENDBRANCH  14  15
ENDBRANCH   6  14
TORSDOF 3
ENDMDL
MODEL 2
REMARK VINA RESULT:      -5.1      1.363      2.042
REMARK  3 active torsions:
REMARK  status: ('A' for Active; 'I' for Inactive)
REMARK    1  A    between atoms: C_3  and  C_7 
REMARK    2  A    between atoms: C_12  and  C_15 
REMARK    3  A    between atoms: O_13  and  C_15 
ROOT
HETATM    1  C   UNL     1      64.661   7.818   4.993  1.00  0.00    -0.009 A 
HETATM    2  C   UNL     1      64.257   7.185   3.810  1.00  0.00     0.014 A 
HETATM    3  C   UNL     1      64.086   9.053   5.323  1.00  0.00     0.014 A 
HETATM    4  C   UNL     1      63.282   7.760   2.986  1.00  0.00     0.010 A 
HETATM    5  C   UNL     1      63.114   9.629   4.499  1.00  0.00     0.010 A 
HETATM    6  C   UNL     1      62.700   8.987   3.325  1.00  0.00    -0.035 A 
ENDROOT
BRANCH   1   7
HETATM    7  C   UNL     1      65.664   7.190   5.846  1.00  0.00     0.049 A 
HETATM    8  N   UNL     1      65.611   7.294   7.230  1.00  0.00    -0.353 N 
HETATM    9  C   UNL     1      66.616   6.642   7.770  1.00  0.00     0.047 A 
ATOM     10  HN  UNL     1      64.895   7.801   7.750  1.00  0.00     0.166 HD
HETATM   11  S   UNL     1      67.704   5.903   6.663  1.00  0.00    -0.087 SA
HETATM   12  C   UNL     1      66.856   6.517   9.235  1.00  0.00     0.076 C 
HETATM   13  C   UNL     1      66.749   6.481   5.365  1.00  0.00     0.081 A 
ENDBRANCH   1   7
BRANCH   6  14
HETATM   14  C   UNL     1      61.657   9.622   2.445  1.00  0.00     0.202 C 
BRANCH  14  15
HETATM   15  O   UNL     1      61.210  10.848   3.007  1.00  0.00    -0.396 OA
HETATM   16  H   UNL     1      60.764  10.674   3.850  1.00  0.00     0.209 HD
ENDBRANCH  14  15
ENDBRANCH   6  14
TORSDOF 3
ENDMDL
MODEL 3
REMARK VINA RESULT:      -4.7      3.649      6.164
REMARK  3 active torsions:
REMARK  status: ('A' for Active; 'I' for Inactive)
REMARK    1  A    between atoms: C_3  and  C_7 
REMARK    2  A    between atoms: C_12  and  C_15 
REMARK    3  A    between atoms: O_13  and  C_15 
ROOT
HETATM    1  C   UNL     1      64.617   7.972   5.411  1.00  0.00    -0.009 A 
HETATM    2  C   UNL     1      64.188   6.924   6.236  1.00  0.00     0.014 A 
HETATM    3  C   UNL     1      65.979   8.297   5.393  1.00  0.00     0.014 A 
HETATM    4  C   UNL     1      65.103   6.199   7.008  1.00  0.00     0.010 A 
HETATM    5  C   UNL     1      66.895   7.575   6.167  1.00  0.00     0.010 A 
HETATM    6  C   UNL     1      66.466   6.517   6.978  1.00  0.00    -0.035 A 
ENDROOT
BRANCH   1   7
HETATM    7  C   UNL     1      63.646   8.700   4.600  1.00  0.00     0.049 A 
HETATM    8  N   UNL     1      63.339   8.304   3.305  1.00  0.00    -0.353 N 
HETATM    9  C   UNL     1      62.439   9.112   2.788  1.00  0.00     0.047 A 
ATOM     10  HN  UNL     1      63.750   7.504   2.825  1.00  0.00     0.166 HD
HETATM   11  S   UNL     1      61.939  10.410   3.798  1.00  0.00    -0.087 SA
HETATM   12  C   UNL     1      61.856   8.970   1.425  1.00  0.00     0.076 C 
HETATM   13  C   UNL     1      62.988   9.839   5.024  1.00  0.00     0.081 A 
ENDBRANCH   1   7
BRANCH   6  14
HETATM   14  C   UNL     1      67.461   5.753   7.810  1.00  0.00     0.202 C 
BRANCH  14  15
HETATM   15  O   UNL     1      68.000   6.583   8.830  1.00  0.00    -0.396 OA
HETATM   16  H   UNL     1      68.855   6.937   8.541  1.00  0.00     0.209 HD
ENDBRANCH  14  15
ENDBRANCH   6  14
TORSDOF 3
ENDMDL
MODEL 4
REMARK VINA RESULT:      -4.7      3.495      5.088
REMARK  3 active torsions:
REMARK  status: ('A' for Active; 'I' for Inactive)
REMARK    1  A    between atoms: C_3  and  C_7 
REMARK    2  A    between atoms: C_12  and  C_15 
REMARK    3  A    between atoms: O_13  and  C_15 
ROOT
HETATM    1  C   UNL     1      62.469   8.278   3.117  1.00  0.00    -0.009 A 
HETATM    2  C   UNL     1      61.827   9.515   2.973  1.00  0.00     0.014 A 
HETATM    3  C   UNL     1      63.347   8.098   4.193  1.00  0.00     0.014 A 
HETATM    4  C   UNL     1      62.040  10.543   3.899  1.00  0.00     0.010 A 
HETATM    5  C   UNL     1      63.562   9.125   5.118  1.00  0.00     0.010 A 
HETATM    6  C   UNL     1      62.907  10.356   4.982  1.00  0.00    -0.035 A 
ENDROOT
BRANCH   1   7
HETATM    7  C   UNL     1      62.216   7.214   2.150  1.00  0.00     0.049 A 
HETATM    8  N   UNL     1      60.978   6.591   2.061  1.00  0.00    -0.353 N 
HETATM    9  C   UNL     1      61.000   5.676   1.117  1.00  0.00     0.047 A 
ATOM     10  HN  UNL     1      60.170   6.811   2.644  1.00  0.00     0.166 HD
HETATM   11  S   UNL     1      62.504   5.478   0.309  1.00  0.00    -0.087 SA
HETATM   12  C   UNL     1      59.836   4.833   0.728  1.00  0.00     0.076 C 
HETATM   13  C   UNL     1      63.171   6.721   1.281  1.00  0.00     0.081 A 
ENDBRANCH   1   7
BRANCH   6  14
HETATM   14  C   UNL     1      63.153  11.455   5.980  1.00  0.00     0.202 C 
BRANCH  14  15
HETATM   15  O   UNL     1      64.493  11.410   6.451  1.00  0.00    -0.396 OA
HETATM   16  H   UNL     1      64.496  11.443   7.421  1.00  0.00     0.209 HD
ENDBRANCH  14  15
ENDBRANCH   6  14
TORSDOF 3
ENDMDL
MODEL 5
REMARK VINA RESULT:      -4.7      1.966      2.259
REMARK  3 active torsions:
REMARK  status: ('A' for Active; 'I' for Inactive)
REMARK    1  A    between atoms: C_3  and  C_7 
REMARK    2  A    between atoms: C_12  and  C_15 
REMARK    3  A    between atoms: O_13  and  C_15 
ROOT
HETATM    1  C   UNL     1      64.815   7.474   4.831  1.00  0.00    -0.009 A 
HETATM    2  C   UNL     1      64.377   8.698   5.353  1.00  0.00     0.014 A 
HETATM    3  C   UNL     1      64.235   7.005   3.646  1.00  0.00     0.014 A 
HETATM    4  C   UNL     1      63.398   9.450   4.692  1.00  0.00     0.010 A 
HETATM    5  C   UNL     1      63.256   7.753   2.986  1.00  0.00     0.010 A 
HETATM    6  C   UNL     1      62.831   8.985   3.500  1.00  0.00    -0.035 A 
ENDROOT
BRANCH   1   7
HETATM    7  C   UNL     1      65.851   6.718   5.528  1.00  0.00     0.049 A 
HETATM    8  N   UNL     1      66.189   5.426   5.147  1.00  0.00    -0.353 N 
HETATM    9  C   UNL     1      67.146   4.964   5.920  1.00  0.00     0.047 A 
ATOM     10  HN  UNL     1      65.757   4.912   4.379  1.00  0.00     0.166 HD
HETATM   11  S   UNL     1      67.671   6.023   7.168  1.00  0.00    -0.087 SA
HETATM   12  C   UNL     1      67.774   3.621   5.780  1.00  0.00     0.076 C 
HETATM   13  C   UNL     1      66.547   7.195   6.622  1.00  0.00     0.081 A 
ENDBRANCH   1   7
BRANCH   6  14
HETATM   14  C   UNL     1      61.771   9.777   2.783  1.00  0.00     0.202 C 
BRANCH  14  15
HETATM   15  O   UNL     1      61.308  10.845   3.598  1.00  0.00    -0.396 OA
HETATM   16  H   UNL     1      61.260  11.657   3.070  1.00  0.00     0.209 HD
ENDBRANCH  14  15
ENDBRANCH   6  14
TORSDOF 3
ENDMDL
MODEL 6
REMARK VINA RESULT:      -4.3      2.440      2.762
REMARK  3 active torsions:
REMARK  status: ('A' for Active; 'I' for Inactive)
REMARK    1  A    between atoms: C_3  and  C_7 
REMARK    2  A    between atoms: C_12  and  C_15 
REMARK    3  A    between atoms: O_13  and  C_15 
ROOT
HETATM    1  C   UNL     1      63.183   7.519   5.020  1.00  0.00    -0.009 A 
HETATM    2  C   UNL     1      62.949   8.421   3.975  1.00  0.00     0.014 A 
HETATM    3  C   UNL     1      62.154   6.645   5.396  1.00  0.00     0.014 A 
HETATM    4  C   UNL     1      61.721   8.436   3.302  1.00  0.00     0.010 A 
HETATM    5  C   UNL     1      60.926   6.660   4.727  1.00  0.00     0.010 A 
HETATM    6  C   UNL     1      60.699   7.553   3.671  1.00  0.00    -0.035 A 
ENDROOT
BRANCH   1   7
HETATM    7  C   UNL     1      64.478   7.509   5.693  1.00  0.00     0.049 A 
HETATM    8  N   UNL     1      64.648   6.909   6.934  1.00  0.00    -0.353 N 
HETATM    9  C   UNL     1      65.898   7.028   7.325  1.00  0.00     0.047 A 
ATOM     10  HN  UNL     1      63.911   6.443   7.464  1.00  0.00     0.166 HD
HETATM   11  S   UNL     1      66.930   7.895   6.259  1.00  0.00    -0.087 SA
HETATM   12  C   UNL     1      66.444   6.476   8.595  1.00  0.00     0.076 C 
HETATM   13  C   UNL     1      65.613   8.111   5.186  1.00  0.00     0.081 A 
ENDBRANCH   1   7
BRANCH   6  14
HETATM   14  C   UNL     1      59.371   7.562   2.964  1.00  0.00     0.202 C 
BRANCH  14  15
HETATM   15  O   UNL     1      58.374   8.160   3.782  1.00  0.00    -0.396 OA
HETATM   16  H   UNL     1      58.648   8.113   4.711  1.00  0.00     0.209 HD
ENDBRANCH  14  15
ENDBRANCH   6  14
TORSDOF 3
ENDMDL
MODEL 7
REMARK VINA RESULT:      -4.3      3.535      5.992
REMARK  3 active torsions:
REMARK  status: ('A' for Active; 'I' for Inactive)
REMARK    1  A    between atoms: C_3  and  C_7 
REMARK    2  A    between atoms: C_12  and  C_15 
REMARK    3  A    between atoms: O_13  and  C_15 
ROOT
HETATM    1  C   UNL     1      64.647   7.515   5.071  1.00  0.00    -0.009 A 
HETATM    2  C   UNL     1      65.943   8.039   5.152  1.00  0.00     0.014 A 
HETATM    3  C   UNL     1      64.180   6.714   6.122  1.00  0.00     0.014 A 
HETATM    4  C   UNL     1      66.749   7.790   6.270  1.00  0.00     0.010 A 
HETATM    5  C   UNL     1      64.985   6.462   7.238  1.00  0.00     0.010 A 
HETATM    6  C   UNL     1      66.275   7.001   7.325  1.00  0.00    -0.035 A 
ENDROOT
BRANCH   1   7
HETATM    7  C   UNL     1      63.819   7.805   3.905  1.00  0.00     0.049 A 
HETATM    8  N   UNL     1      63.187   9.031   3.750  1.00  0.00    -0.353 N 
HETATM    9  C   UNL     1      62.509   9.049   2.623  1.00  0.00     0.047 A 
ATOM     10  HN  UNL     1      63.240   9.805   4.413  1.00  0.00     0.166 HD
HETATM   11  S   UNL     1      62.553   7.597   1.705  1.00  0.00    -0.087 SA
HETATM   12  C   UNL     1      61.732  10.216   2.121  1.00  0.00     0.076 C 
HETATM   13  C   UNL     1      63.570   6.897   2.893  1.00  0.00     0.081 A 
ENDBRANCH   1   7
BRANCH   6  14
HETATM   14  C   UNL     1      67.132   6.716   8.529  1.00  0.00     0.202 C 
BRANCH  14  15
HETATM   15  O   UNL     1      66.333   6.629   9.700  1.00  0.00    -0.396 OA
HETATM   16  H   UNL     1      66.520   5.795  10.159  1.00  0.00     0.209 HD
ENDBRANCH  14  15
ENDBRANCH   6  14
TORSDOF 3
ENDMDL
MODEL 8
REMARK VINA RESULT:      -4.2      3.789      5.728
REMARK  3 active torsions:
REMARK  status: ('A' for Active; 'I' for Inactive)
REMARK    1  A    between atoms: C_3  and  C_7 
REMARK    2  A    between atoms: C_12  and  C_15 
REMARK    3  A    between atoms: O_13  and  C_15 
ROOT
HETATM    1  C   UNL     1      63.397   7.790   3.468  1.00  0.00    -0.009 A 
HETATM    2  C   UNL     1      63.576   8.803   4.419  1.00  0.00     0.014 A 
HETATM    3  C   UNL     1      64.392   6.812   3.334  1.00  0.00     0.014 A 
HETATM    4  C   UNL     1      64.712   8.827   5.236  1.00  0.00     0.010 A 
HETATM    5  C   UNL     1      65.530   6.836   4.148  1.00  0.00     0.010 A 
HETATM    6  C   UNL     1      65.698   7.841   5.110  1.00  0.00    -0.035 A 
ENDROOT
BRANCH   1   7
HETATM    7  C   UNL     1      62.195   7.775   2.642  1.00  0.00     0.049 A 
HETATM    8  N   UNL     1      61.124   6.940   2.931  1.00  0.00    -0.353 N 
HETATM    9  C   UNL     1      60.165   7.114   2.049  1.00  0.00     0.047 A 
ATOM     10  HN  UNL     1      61.087   6.287   3.714  1.00  0.00     0.166 HD
HETATM   11  S   UNL     1      60.498   8.251   0.804  1.00  0.00    -0.087 SA
HETATM   12  C   UNL     1      58.856   6.404   2.069  1.00  0.00     0.076 C 
HETATM   13  C   UNL     1      62.031   8.546   1.507  1.00  0.00     0.081 A 
ENDBRANCH   1   7
BRANCH   6  14
HETATM   14  C   UNL     1      66.930   7.858   5.974  1.00  0.00     0.202 C 
BRANCH  14  15
HETATM   15  O   UNL     1      66.847   8.896   6.941  1.00  0.00    -0.396 OA
HETATM   16  H   UNL     1      67.297   8.617   7.754  1.00  0.00     0.209 HD
ENDBRANCH  14  15
ENDBRANCH   6  14
TORSDOF 3
ENDMDL
MODEL 9
REMARK VINA RESULT:      -4.2      3.624      5.764
REMARK  3 active torsions:
REMARK  status: ('A' for Active; 'I' for Inactive)
REMARK    1  A    between atoms: C_3  and  C_7 
REMARK    2  A    between atoms: C_12  and  C_15 
REMARK    3  A    between atoms: O_13  and  C_15 
ROOT
HETATM    1  C   UNL     1      62.706   7.507   4.512  1.00  0.00    -0.009 A 
HETATM    2  C   UNL     1      62.926   6.559   5.520  1.00  0.00     0.014 A 
HETATM    3  C   UNL     1      63.689   8.476   4.276  1.00  0.00     0.014 A 
HETATM    4  C   UNL     1      64.115   6.563   6.260  1.00  0.00     0.010 A 
HETATM    5  C   UNL     1      64.876   8.484   5.016  1.00  0.00     0.010 A 
HETATM    6  C   UNL     1      65.102   7.525   6.012  1.00  0.00    -0.035 A 
ENDROOT
BRANCH   1   7
HETATM    7  C   UNL     1      61.467   7.469   3.741  1.00  0.00     0.049 A 
HETATM    8  N   UNL     1      61.410   7.938   2.435  1.00  0.00    -0.353 N 
HETATM    9  C   UNL     1      60.194   7.792   1.957  1.00  0.00     0.047 A 
ATOM     10  HN  UNL     1      62.196   8.337   1.922  1.00  0.00     0.166 HD
HETATM   11  S   UNL     1      59.042   7.127   3.045  1.00  0.00    -0.087 SA
HETATM   12  C   UNL     1      59.777   8.162   0.576  1.00  0.00     0.076 C 
HETATM   13  C   UNL     1      60.264   7.007   4.239  1.00  0.00     0.081 A 
ENDBRANCH   1   7
BRANCH   6  14
HETATM   14  C   UNL     1      66.380   7.549   6.806  1.00  0.00     0.202 C 
BRANCH  14  15
HETATM   15  O   UNL     1      66.857   8.880   6.943  1.00  0.00    -0.396 OA
HETATM   16  H   UNL     1      66.112   9.498   6.884  1.00  0.00     0.209 HD
ENDBRANCH  14  15
ENDBRANCH   6  14
TORSDOF 3
ENDMDL
