MODEL 1
REMARK VINA RESULT:      -4.0      0.000      0.000
REMARK  2 active torsions:
REMARK  status: ('A' for Active; 'I' for Inactive)
REMARK    1  A    between atoms: C_5  and  C_9 
REMARK    2  A    between atoms: C_9  and  N_11 
ROOT
HETATM    1  N   UNL     1      63.412   7.900   3.317  1.00  0.00    -0.352 N 
HETATM    2  C   UNL     1      64.517   7.538   3.991  1.00  0.00     0.052 A 
HETATM    3  C   UNL     1      64.745   8.351   5.029  1.00  0.00     0.033 A 
HETATM    4  C   UNL     1      63.766   9.310   5.069  1.00  0.00     0.048 A 
HETATM    5  C   UNL     1      62.935   8.994   3.986  1.00  0.00     0.038 A 
HETATM    6  S   UNL     1      66.106   7.886   5.880  1.00  0.00    -0.100 SA
HETATM    7  C   UNL     1      65.429   6.506   3.824  1.00  0.00     0.038 A 
HETATM    8  C   UNL     1      66.407   6.565   4.828  1.00  0.00     0.053 A 
HETATM    9  C   UNL     1      62.857   7.230   2.145  1.00  0.00     0.156 C 
ENDROOT
BRANCH   5  10
HETATM   10  C   UNL     1      61.673   9.736   3.645  1.00  0.00     0.288 C 
BRANCH  10  11
HETATM   11  N   UNL     1      61.942  11.170   3.461  1.00  0.00    -0.074 N 
HETATM   12  C   UNL     1      61.790  11.590   2.063  1.00  0.00     0.267 C 
HETATM   13  H   UNL     1      62.898  11.366   3.759  1.00  0.00     0.277 HD
HETATM   14  H   UNL     1      61.265  11.689   4.019  1.00  0.00     0.277 HD
ENDBRANCH  10  11
ENDBRANCH   5  10
TORSDOF 2
ENDMDL
MODEL 2
REMARK VINA RESULT:      -3.9      1.295      2.121
REMARK  2 active torsions:
REMARK  status: ('A' for Active; 'I' for Inactive)
REMARK    1  A    between atoms: C_5  and  C_9 
REMARK    2  A    between atoms: C_9  and  N_11 
ROOT
HETATM    1  N   UNL     1      63.367   9.254   4.628  1.00  0.00    -0.352 N 
HETATM    2  C   UNL     1      64.401   8.401   4.709  1.00  0.00     0.052 A 
HETATM    3  C   UNL     1      64.300   7.422   3.803  1.00  0.00     0.033 A 
HETATM    4  C   UNL     1      63.152   7.604   3.076  1.00  0.00     0.048 A 
HETATM    5  C   UNL     1      62.591   8.771   3.610  1.00  0.00     0.038 A 
HETATM    6  S   UNL     1      65.599   6.374   3.889  1.00  0.00    -0.100 SA
HETATM    7  C   UNL     1      65.524   8.354   5.522  1.00  0.00     0.038 A 
HETATM    8  C   UNL     1      66.317   7.247   5.180  1.00  0.00     0.053 A 
HETATM    9  C   UNL     1      63.161  10.445   5.448  1.00  0.00     0.156 C 
ENDROOT
BRANCH   5  10
HETATM   10  C   UNL     1      61.334   9.416   3.096  1.00  0.00     0.288 C 
BRANCH  10  11
HETATM   11  N   UNL     1      61.596  10.155   1.851  1.00  0.00    -0.074 N 
HETATM   12  C   UNL     1      61.784  11.591   2.086  1.00  0.00     0.267 C 
HETATM   13  H   UNL     1      60.803  10.026   1.221  1.00  0.00     0.277 HD
HETATM   14  H   UNL     1      62.456   9.789   1.446  1.00  0.00     0.277 HD
ENDBRANCH  10  11
ENDBRANCH   5  10
TORSDOF 2
ENDMDL
MODEL 3
REMARK VINA RESULT:      -3.9      2.328      4.428
REMARK  2 active torsions:
REMARK  status: ('A' for Active; 'I' for Inactive)
REMARK    1  A    between atoms: C_5  and  C_9 
REMARK    2  A    between atoms: C_9  and  N_11 
ROOT
HETATM    1  N   UNL     1      63.443   7.526   3.339  1.00  0.00    -0.352 N 
HETATM    2  C   UNL     1      62.822   8.670   3.009  1.00  0.00     0.052 A 
HETATM    3  C   UNL     1      62.746   9.504   4.052  1.00  0.00     0.033 A 
HETATM    4  C   UNL     1      63.330   8.912   5.141  1.00  0.00     0.048 A 
HETATM    5  C   UNL     1      63.770   7.672   4.659  1.00  0.00     0.038 A 
HETATM    6  S   UNL     1      61.994  10.937   3.634  1.00  0.00    -0.100 SA
HETATM    7  C   UNL     1      62.273   9.138   1.824  1.00  0.00     0.038 A 
HETATM    8  C   UNL     1      61.754  10.428   2.013  1.00  0.00     0.053 A 
HETATM    9  C   UNL     1      63.716   6.402   2.448  1.00  0.00     0.156 C 
ENDROOT
BRANCH   5  10
HETATM   10  C   UNL     1      64.533   6.669   5.480  1.00  0.00     0.288 C 
BRANCH  10  11
HETATM   11  N   UNL     1      64.745   7.165   6.848  1.00  0.00    -0.074 N 
HETATM   12  C   UNL     1      66.156   7.112   7.247  1.00  0.00     0.267 C 
HETATM   13  H   UNL     1      64.200   6.591   7.493  1.00  0.00     0.277 HD
HETATM   14  H   UNL     1      64.448   8.140   6.877  1.00  0.00     0.277 HD
ENDBRANCH  10  11
ENDBRANCH   5  10
TORSDOF 2
ENDMDL
MODEL 4
REMARK VINA RESULT:      -3.9      2.434      4.759
REMARK  2 active torsions:
REMARK  status: ('A' for Active; 'I' for Inactive)
REMARK    1  A    between atoms: C_5  and  C_9 
REMARK    2  A    between atoms: C_9  and  N_11 
ROOT
HETATM    1  N   UNL     1      63.351   9.159   4.387  1.00  0.00    -0.352 N 
HETATM    2  C   UNL     1      62.692   8.842   3.261  1.00  0.00     0.052 A 
HETATM    3  C   UNL     1      63.150   7.701   2.731  1.00  0.00     0.033 A 
HETATM    4  C   UNL     1      64.163   7.220   3.518  1.00  0.00     0.048 A 
HETATM    5  C   UNL     1      64.260   8.152   4.558  1.00  0.00     0.038 A 
HETATM    6  S   UNL     1      62.313   7.295   1.343  1.00  0.00    -0.100 SA
HETATM    7  C   UNL     1      61.651   9.449   2.572  1.00  0.00     0.038 A 
HETATM    8  C   UNL     1      61.314   8.686   1.444  1.00  0.00     0.053 A 
HETATM    9  C   UNL     1      63.104  10.323   5.234  1.00  0.00     0.156 C 
ENDROOT
BRANCH   5  10
HETATM   10  C   UNL     1      65.207   8.027   5.719  1.00  0.00     0.288 C 
BRANCH  10  11
HETATM   11  N   UNL     1      64.614   7.218   6.795  1.00  0.00    -0.074 N 
HETATM   12  C   UNL     1      65.631   6.542   7.608  1.00  0.00     0.267 C 
HETATM   13  H   UNL     1      64.005   6.513   6.378  1.00  0.00     0.277 HD
HETATM   14  H   UNL     1      64.091   7.845   7.405  1.00  0.00     0.277 HD
ENDBRANCH  10  11
ENDBRANCH   5  10
TORSDOF 2
ENDMDL
MODEL 5
REMARK VINA RESULT:      -3.6      1.952      2.244
REMARK  2 active torsions:
REMARK  status: ('A' for Active; 'I' for Inactive)
REMARK    1  A    between atoms: C_5  and  C_9 
REMARK    2  A    between atoms: C_9  and  N_11 
ROOT
HETATM    1  N   UNL     1      63.283   6.958   5.819  1.00  0.00    -0.352 N 
HETATM    2  C   UNL     1      64.538   6.993   6.296  1.00  0.00     0.052 A 
HETATM    3  C   UNL     1      65.242   7.992   5.750  1.00  0.00     0.033 A 
HETATM    4  C   UNL     1      64.445   8.665   4.862  1.00  0.00     0.048 A 
HETATM    5  C   UNL     1      63.214   7.999   4.934  1.00  0.00     0.038 A 
HETATM    6  S   UNL     1      66.796   8.048   6.362  1.00  0.00    -0.100 SA
HETATM    7  C   UNL     1      65.216   6.219   7.227  1.00  0.00     0.038 A 
HETATM    8  C   UNL     1      66.528   6.694   7.381  1.00  0.00     0.053 A 
HETATM    9  C   UNL     1      62.238   6.014   6.204  1.00  0.00     0.156 C 
ENDROOT
BRANCH   5  10
HETATM   10  C   UNL     1      61.985   8.411   4.173  1.00  0.00     0.288 C 
BRANCH  10  11
HETATM   11  N   UNL     1      62.046   9.834   3.808  1.00  0.00    -0.074 N 
HETATM   12  C   UNL     1      61.905  10.045   2.363  1.00  0.00     0.267 C 
HETATM   13  H   UNL     1      62.946  10.211   4.108  1.00  0.00     0.277 HD
HETATM   14  H   UNL     1      61.272  10.309   4.271  1.00  0.00     0.277 HD
ENDBRANCH  10  11
ENDBRANCH   5  10
TORSDOF 2
ENDMDL
MODEL 6
REMARK VINA RESULT:      -3.6      2.998      5.128
REMARK  2 active torsions:
REMARK  status: ('A' for Active; 'I' for Inactive)
REMARK    1  A    between atoms: C_5  and  C_9 
REMARK    2  A    between atoms: C_9  and  N_11 
ROOT
HETATM    1  N   UNL     1      64.546   6.352   6.018  1.00  0.00    -0.352 N 
HETATM    2  C   UNL     1      63.607   7.034   5.341  1.00  0.00     0.052 A 
HETATM    3  C   UNL     1      64.066   8.222   4.929  1.00  0.00     0.033 A 
HETATM    4  C   UNL     1      65.364   8.366   5.342  1.00  0.00     0.048 A 
HETATM    5  C   UNL     1      65.643   7.169   6.015  1.00  0.00     0.038 A 
HETATM    6  S   UNL     1      62.904   9.058   4.067  1.00  0.00    -0.100 SA
HETATM    7  C   UNL     1      62.297   6.741   4.989  1.00  0.00     0.038 A 
HETATM    8  C   UNL     1      61.750   7.803   4.254  1.00  0.00     0.053 A 
HETATM    9  C   UNL     1      64.399   5.019   6.594  1.00  0.00     0.156 C 
ENDROOT
BRANCH   5  10
HETATM   10  C   UNL     1      66.981   6.826   6.608  1.00  0.00     0.288 C 
BRANCH  10  11
HETATM   11  N   UNL     1      67.156   7.472   7.918  1.00  0.00    -0.074 N 
HETATM   12  C   UNL     1      66.891   6.553   9.031  1.00  0.00     0.267 C 
HETATM   13  H   UNL     1      66.511   8.260   7.983  1.00  0.00     0.277 HD
HETATM   14  H   UNL     1      68.125   7.777   7.989  1.00  0.00     0.277 HD
ENDBRANCH  10  11
ENDBRANCH   5  10
TORSDOF 2
ENDMDL
MODEL 7
REMARK VINA RESULT:      -3.5      2.402      3.092
REMARK  2 active torsions:
REMARK  status: ('A' for Active; 'I' for Inactive)
REMARK    1  A    between atoms: C_5  and  C_9 
REMARK    2  A    between atoms: C_9  and  N_11 
ROOT
HETATM    1  N   UNL     1      62.704   7.544   2.153  1.00  0.00    -0.352 N 
HETATM    2  C   UNL     1      63.223   8.051   3.283  1.00  0.00     0.052 A 
HETATM    3  C   UNL     1      62.574   9.157   3.667  1.00  0.00     0.033 A 
HETATM    4  C   UNL     1      61.577   9.424   2.766  1.00  0.00     0.048 A 
HETATM    5  C   UNL     1      61.676   8.386   1.830  1.00  0.00     0.038 A 
HETATM    6  S   UNL     1      63.206   9.773   5.086  1.00  0.00    -0.100 SA
HETATM    7  C   UNL     1      64.265   7.649   4.108  1.00  0.00     0.038 A 
HETATM    8  C   UNL     1      64.387   8.533   5.191  1.00  0.00     0.053 A 
HETATM    9  C   UNL     1      63.152   6.338   1.461  1.00  0.00     0.156 C 
ENDROOT
BRANCH   5  10
HETATM   10  C   UNL     1      60.745   8.210   0.662  1.00  0.00     0.288 C 
BRANCH  10  11
HETATM   11  N   UNL     1      59.361   8.530   1.042  1.00  0.00    -0.074 N 
HETATM   12  C   UNL     1      58.483   7.356   0.980  1.00  0.00     0.267 C 
HETATM   13  H   UNL     1      59.002   9.243   0.407  1.00  0.00     0.277 HD
HETATM   14  H   UNL     1      59.371   8.862   2.006  1.00  0.00     0.277 HD
ENDBRANCH  10  11
ENDBRANCH   5  10
TORSDOF 2
ENDMDL
MODEL 8
REMARK VINA RESULT:      -3.4      3.019      4.249
REMARK  2 active torsions:
REMARK  status: ('A' for Active; 'I' for Inactive)
REMARK    1  A    between atoms: C_5  and  C_9 
REMARK    2  A    between atoms: C_9  and  N_11 
ROOT
HETATM    1  N   UNL     1      66.399   6.091   5.454  1.00  0.00    -0.352 N 
HETATM    2  C   UNL     1      67.020   5.495   6.484  1.00  0.00     0.052 A 
HETATM    3  C   UNL     1      67.134   6.320   7.532  1.00  0.00     0.033 A 
HETATM    4  C   UNL     1      66.576   7.529   7.209  1.00  0.00     0.048 A 
HETATM    5  C   UNL     1      66.112   7.352   5.899  1.00  0.00     0.038 A 
HETATM    6  S   UNL     1      67.886   5.569   8.821  1.00  0.00    -0.100 SA
HETATM    7  C   UNL     1      67.539   4.220   6.665  1.00  0.00     0.038 A 
HETATM    8  C   UNL     1      68.075   4.100   7.956  1.00  0.00     0.053 A 
HETATM    9  C   UNL     1      66.091   5.485   4.162  1.00  0.00     0.156 C 
ENDROOT
BRANCH   5  10
HETATM   10  C   UNL     1      65.364   8.398   5.120  1.00  0.00     0.288 C 
BRANCH  10  11
HETATM   11  N   UNL     1      64.120   8.775   5.808  1.00  0.00    -0.074 N 
HETATM   12  C   UNL     1      63.107   7.715   5.747  1.00  0.00     0.267 C 
HETATM   13  H   UNL     1      63.743   9.615   5.368  1.00  0.00     0.277 HD
HETATM   14  H   UNL     1      64.343   8.938   6.789  1.00  0.00     0.277 HD
ENDBRANCH  10  11
ENDBRANCH   5  10
TORSDOF 2
ENDMDL
MODEL 9
REMARK VINA RESULT:      -3.4      2.546      5.514
REMARK  2 active torsions:
REMARK  status: ('A' for Active; 'I' for Inactive)
REMARK    1  A    between atoms: C_5  and  C_9 
REMARK    2  A    between atoms: C_9  and  N_11 
ROOT
HETATM    1  N   UNL     1      65.864   7.674   5.345  1.00  0.00    -0.352 N 
HETATM    2  C   UNL     1      64.727   8.138   4.800  1.00  0.00     0.052 A 
HETATM    3  C   UNL     1      64.328   7.374   3.776  1.00  0.00     0.033 A 
HETATM    4  C   UNL     1      65.225   6.352   3.606  1.00  0.00     0.048 A 
HETATM    5  C   UNL     1      66.175   6.560   4.614  1.00  0.00     0.038 A 
HETATM    6  S   UNL     1      62.901   7.939   3.115  1.00  0.00    -0.100 SA
HETATM    7  C   UNL     1      63.909   9.218   5.099  1.00  0.00     0.038 A 
HETATM    8  C   UNL     1      62.814   9.247   4.222  1.00  0.00     0.053 A 
HETATM    9  C   UNL     1      66.573   8.247   6.486  1.00  0.00     0.156 C 
ENDROOT
BRANCH   5  10
HETATM   10  C   UNL     1      67.344   5.651   4.873  1.00  0.00     0.288 C 
BRANCH  10  11
HETATM   11  N   UNL     1      67.000   4.626   5.870  1.00  0.00    -0.074 N 
HETATM   12  C   UNL     1      68.044   4.469   6.889  1.00  0.00     0.267 C 
HETATM   13  H   UNL     1      66.871   3.734   5.392  1.00  0.00     0.277 HD
HETATM   14  H   UNL     1      66.146   4.922   6.341  1.00  0.00     0.277 HD
ENDBRANCH  10  11
ENDBRANCH   5  10
TORSDOF 2
ENDMDL
