MODEL 1
REMARK VINA RESULT:      -5.0      0.000      0.000
REMARK  2 active torsions:
REMARK  status: ('A' for Active; 'I' for Inactive)
REMARK    1  A    between atoms: C_1  and  C_6 
REMARK    2  A    between atoms: C_4  and  C_7 
ROOT
HETATM    1  C   UNL     1      64.261   7.998   4.885  1.00  0.00    -0.002 A 
HETATM    2  C   UNL     1      62.533   9.012   2.891  1.00  0.00     0.040 A 
HETATM    3  C   UNL     1      63.600   9.227   5.059  1.00  0.00     0.015 A 
HETATM    4  C   UNL     1      64.022   7.279   3.703  1.00  0.00     0.015 A 
HETATM    5  C   UNL     1      62.747   9.733   4.070  1.00  0.00     0.019 A 
HETATM    6  C   UNL     1      63.170   7.780   2.713  1.00  0.00     0.019 A 
ENDROOT
BRANCH   1   7
HETATM    7  C   UNL     1      65.154   7.494   5.941  1.00  0.00     0.084 A 
HETATM    8  N   UNL     1      64.743   6.971   7.082  1.00  0.00    -0.359 N 
HETATM    9  C   UNL     1      65.828   6.581   7.845  1.00  0.00     0.096 A 
ATOM     10  HN  UNL     1      63.767   6.870   7.360  1.00  0.00     0.166 HD
HETATM   11  C   UNL     1      67.063   6.841   7.299  1.00  0.00     0.069 A 
HETATM   12  S   UNL     1      66.872   7.595   5.776  1.00  0.00    -0.082 SA
ENDBRANCH   1   7
BRANCH   2  13
HETATM   13  C   UNL     1      61.627   9.575   1.860  1.00  0.00     0.209 C 
HETATM   14  O   UNL     1      60.842   8.944   1.176  1.00  0.00    -0.644 OA
HETATM   15  O   UNL     1      61.748  10.909   1.738  1.00  0.00    -0.644 OA
ENDBRANCH   2  13
TORSDOF 2
ENDMDL
MODEL 2
REMARK VINA RESULT:      -4.7      3.034      4.343
REMARK  2 active torsions:
REMARK  status: ('A' for Active; 'I' for Inactive)
REMARK    1  A    between atoms: C_1  and  C_6 
REMARK    2  A    between atoms: C_4  and  C_7 
ROOT
HETATM    1  C   UNL     1      63.654   7.429   3.144  1.00  0.00    -0.002 A 
HETATM    2  C   UNL     1      63.116   9.783   4.614  1.00  0.00     0.040 A 
HETATM    3  C   UNL     1      62.696   8.357   2.696  1.00  0.00     0.015 A 
HETATM    4  C   UNL     1      64.349   7.715   4.330  1.00  0.00     0.015 A 
HETATM    5  C   UNL     1      62.425   9.521   3.426  1.00  0.00     0.019 A 
HETATM    6  C   UNL     1      64.083   8.877   5.061  1.00  0.00     0.019 A 
ENDROOT
BRANCH   1   7
HETATM    7  C   UNL     1      63.914   6.212   2.357  1.00  0.00     0.084 A 
HETATM    8  N   UNL     1      63.255   5.872   1.265  1.00  0.00    -0.359 N 
HETATM    9  C   UNL     1      63.754   4.687   0.758  1.00  0.00     0.096 A 
ATOM     10  HN  UNL     1      62.490   6.407   0.855  1.00  0.00     0.166 HD
HETATM   11  C   UNL     1      64.766   4.108   1.486  1.00  0.00     0.069 A 
HETATM   12  S   UNL     1      65.118   5.074   2.852  1.00  0.00    -0.082 SA
ENDBRANCH   1   7
BRANCH   2  13
HETATM   13  C   UNL     1      62.805  11.022   5.366  1.00  0.00     0.209 C 
HETATM   14  O   UNL     1      63.185  11.290   6.491  1.00  0.00    -0.644 OA
HETATM   15  O   UNL     1      62.031  11.872   4.667  1.00  0.00    -0.644 OA
ENDBRANCH   2  13
TORSDOF 2
ENDMDL
MODEL 3
REMARK VINA RESULT:      -4.6      1.860      2.474
REMARK  2 active torsions:
REMARK  status: ('A' for Active; 'I' for Inactive)
REMARK    1  A    between atoms: C_1  and  C_6 
REMARK    2  A    between atoms: C_4  and  C_7 
ROOT
HETATM    1  C   UNL     1      64.870   7.203   6.379  1.00  0.00    -0.002 A 
HETATM    2  C   UNL     1      62.952   8.621   4.862  1.00  0.00     0.040 A 
HETATM    3  C   UNL     1      65.241   8.319   5.608  1.00  0.00     0.015 A 
HETATM    4  C   UNL     1      63.518   6.826   6.391  1.00  0.00     0.015 A 
HETATM    5  C   UNL     1      64.293   9.020   4.852  1.00  0.00     0.019 A 
HETATM    6  C   UNL     1      62.567   7.524   5.638  1.00  0.00     0.019 A 
ENDROOT
BRANCH   1   7
HETATM    7  C   UNL     1      65.890   6.485   7.161  1.00  0.00     0.084 A 
HETATM    8  N   UNL     1      66.970   7.044   7.675  1.00  0.00    -0.359 N 
HETATM    9  C   UNL     1      67.711   6.103   8.364  1.00  0.00     0.096 A 
ATOM     10  HN  UNL     1      67.220   8.028   7.579  1.00  0.00     0.166 HD
HETATM   11  C   UNL     1      67.214   4.821   8.342  1.00  0.00     0.069 A 
HETATM   12  S   UNL     1      65.765   4.782   7.434  1.00  0.00    -0.082 SA
ENDBRANCH   1   7
BRANCH   2  13
HETATM   13  C   UNL     1      61.972   9.380   4.048  1.00  0.00     0.209 C 
HETATM   14  O   UNL     1      61.760  10.577   4.117  1.00  0.00    -0.644 OA
HETATM   15  O   UNL     1      61.304   8.598   3.181  1.00  0.00    -0.644 OA
ENDBRANCH   2  13
TORSDOF 2
ENDMDL
MODEL 4
REMARK VINA RESULT:      -4.6      1.731      2.031
REMARK  2 active torsions:
REMARK  status: ('A' for Active; 'I' for Inactive)
REMARK    1  A    between atoms: C_1  and  C_6 
REMARK    2  A    between atoms: C_4  and  C_7 
ROOT
HETATM    1  C   UNL     1      64.949   7.185   4.630  1.00  0.00    -0.002 A 
HETATM    2  C   UNL     1      63.012   9.058   3.775  1.00  0.00     0.040 A 
HETATM    3  C   UNL     1      64.709   8.361   5.363  1.00  0.00     0.015 A 
HETATM    4  C   UNL     1      64.187   6.958   3.473  1.00  0.00     0.015 A 
HETATM    5  C   UNL     1      63.753   9.292   4.939  1.00  0.00     0.019 A 
HETATM    6  C   UNL     1      63.230   7.885   3.046  1.00  0.00     0.019 A 
ENDROOT
BRANCH   1   7
HETATM    7  C   UNL     1      65.963   6.226   5.100  1.00  0.00     0.084 A 
HETATM    8  N   UNL     1      66.185   5.044   4.554  1.00  0.00    -0.359 N 
HETATM    9  C   UNL     1      67.211   4.399   5.219  1.00  0.00     0.096 A 
ATOM     10  HN  UNL     1      65.674   4.664   3.759  1.00  0.00     0.166 HD
HETATM   11  C   UNL     1      67.743   5.075   6.292  1.00  0.00     0.069 A 
HETATM   12  S   UNL     1      66.941   6.574   6.482  1.00  0.00    -0.082 SA
ENDBRANCH   1   7
BRANCH   2  13
HETATM   13  C   UNL     1      62.010  10.064   3.348  1.00  0.00     0.209 C 
HETATM   14  O   UNL     1      61.525  10.932   4.049  1.00  0.00    -0.644 OA
HETATM   15  O   UNL     1      61.666   9.935   2.054  1.00  0.00    -0.644 OA
ENDBRANCH   2  13
TORSDOF 2
ENDMDL
MODEL 5
REMARK VINA RESULT:      -4.6      4.054      5.908
REMARK  2 active torsions:
REMARK  status: ('A' for Active; 'I' for Inactive)
REMARK    1  A    between atoms: C_1  and  C_6 
REMARK    2  A    between atoms: C_4  and  C_7 
ROOT
HETATM    1  C   UNL     1      62.616   7.967   3.236  1.00  0.00    -0.002 A 
HETATM    2  C   UNL     1      64.935   8.039   4.851  1.00  0.00     0.040 A 
HETATM    3  C   UNL     1      62.827   9.016   4.149  1.00  0.00     0.015 A 
HETATM    4  C   UNL     1      63.598   6.969   3.135  1.00  0.00     0.015 A 
HETATM    5  C   UNL     1      63.973   9.051   4.954  1.00  0.00     0.019 A 
HETATM    6  C   UNL     1      64.745   7.000   3.935  1.00  0.00     0.019 A 
ENDROOT
BRANCH   1   7
HETATM    7  C   UNL     1      61.400   7.956   2.407  1.00  0.00     0.084 A 
HETATM    8  N   UNL     1      61.298   8.527   1.221  1.00  0.00    -0.359 N 
HETATM    9  C   UNL     1      60.034   8.320   0.700  1.00  0.00     0.096 A 
ATOM     10  HN  UNL     1      62.043   9.046   0.757  1.00  0.00     0.166 HD
HETATM   11  C   UNL     1      59.165   7.624   1.506  1.00  0.00     0.069 A 
HETATM   12  S   UNL     1      59.948   7.204   2.967  1.00  0.00    -0.082 SA
ENDBRANCH   1   7
BRANCH   2  13
HETATM   13  C   UNL     1      66.136   8.101   5.719  1.00  0.00     0.209 C 
HETATM   14  O   UNL     1      66.149   7.990   6.931  1.00  0.00    -0.644 OA
HETATM   15  O   UNL     1      67.269   8.297   5.020  1.00  0.00    -0.644 OA
ENDBRANCH   2  13
TORSDOF 2
ENDMDL
MODEL 6
REMARK VINA RESULT:      -4.5      2.465      2.996
REMARK  2 active torsions:
REMARK  status: ('A' for Active; 'I' for Inactive)
REMARK    1  A    between atoms: C_1  and  C_6 
REMARK    2  A    between atoms: C_4  and  C_7 
ROOT
HETATM    1  C   UNL     1      63.251   7.267   4.045  1.00  0.00    -0.002 A 
HETATM    2  C   UNL     1      62.442   9.954   3.708  1.00  0.00     0.040 A 
HETATM    3  C   UNL     1      63.495   8.224   5.045  1.00  0.00     0.015 A 
HETATM    4  C   UNL     1      62.577   7.678   2.884  1.00  0.00     0.015 A 
HETATM    5  C   UNL     1      63.099   9.558   4.878  1.00  0.00     0.019 A 
HETATM    6  C   UNL     1      62.178   9.008   2.713  1.00  0.00     0.019 A 
ENDROOT
BRANCH   1   7
HETATM    7  C   UNL     1      63.682   5.874   4.248  1.00  0.00     0.084 A 
HETATM    8  N   UNL     1      63.470   4.892   3.390  1.00  0.00    -0.359 N 
HETATM    9  C   UNL     1      64.013   3.715   3.870  1.00  0.00     0.096 A 
ATOM     10  HN  UNL     1      62.978   4.989   2.503  1.00  0.00     0.166 HD
HETATM   11  C   UNL     1      64.605   3.795   5.109  1.00  0.00     0.069 A 
HETATM   12  S   UNL     1      64.487   5.395   5.701  1.00  0.00    -0.082 SA
ENDBRANCH   1   7
BRANCH   2  13
HETATM   13  C   UNL     1      62.039  11.373   3.558  1.00  0.00     0.209 C 
HETATM   14  O   UNL     1      61.821  12.155   4.466  1.00  0.00    -0.644 OA
HETATM   15  O   UNL     1      61.930  11.747   2.271  1.00  0.00    -0.644 OA
ENDBRANCH   2  13
TORSDOF 2
ENDMDL
MODEL 7
REMARK VINA RESULT:      -4.5      3.095      4.235
REMARK  2 active torsions:
REMARK  status: ('A' for Active; 'I' for Inactive)
REMARK    1  A    between atoms: C_1  and  C_6 
REMARK    2  A    between atoms: C_4  and  C_7 
ROOT
HETATM    1  C   UNL     1      63.466   7.228   3.125  1.00  0.00    -0.002 A 
HETATM    2  C   UNL     1      62.873   9.695   4.371  1.00  0.00     0.040 A 
HETATM    3  C   UNL     1      64.202   7.670   4.239  1.00  0.00     0.015 A 
HETATM    4  C   UNL     1      62.416   8.036   2.662  1.00  0.00     0.015 A 
HETATM    5  C   UNL     1      63.913   8.894   4.854  1.00  0.00     0.019 A 
HETATM    6  C   UNL     1      62.122   9.259   3.275  1.00  0.00     0.019 A 
ENDROOT
BRANCH   1   7
HETATM    7  C   UNL     1      63.796   5.938   2.497  1.00  0.00     0.084 A 
HETATM    8  N   UNL     1      64.385   4.932   3.118  1.00  0.00    -0.359 N 
HETATM    9  C   UNL     1      64.537   3.863   2.256  1.00  0.00     0.096 A 
ATOM     10  HN  UNL     1      64.684   4.943   4.093  1.00  0.00     0.166 HD
HETATM   11  C   UNL     1      64.096   4.070   0.969  1.00  0.00     0.069 A 
HETATM   12  S   UNL     1      63.464   5.652   0.825  1.00  0.00    -0.082 SA
ENDBRANCH   1   7
BRANCH   2  13
HETATM   13  C   UNL     1      62.592  10.988   5.041  1.00  0.00     0.209 C 
HETATM   14  O   UNL     1      61.977  11.923   4.562  1.00  0.00    -0.644 OA
HETATM   15  O   UNL     1      63.097  11.045   6.286  1.00  0.00    -0.644 OA
ENDBRANCH   2  13
TORSDOF 2
ENDMDL
MODEL 8
REMARK VINA RESULT:      -4.4      2.983      3.410
REMARK  2 active torsions:
REMARK  status: ('A' for Active; 'I' for Inactive)
REMARK    1  A    between atoms: C_1  and  C_6 
REMARK    2  A    between atoms: C_4  and  C_7 
ROOT
HETATM    1  C   UNL     1      61.927   7.222   4.785  1.00  0.00    -0.002 A 
HETATM    2  C   UNL     1      61.951   9.843   3.725  1.00  0.00     0.040 A 
HETATM    3  C   UNL     1      62.796   8.201   5.300  1.00  0.00     0.015 A 
HETATM    4  C   UNL     1      61.058   7.588   3.745  1.00  0.00     0.015 A 
HETATM    5  C   UNL     1      62.812   9.499   4.773  1.00  0.00     0.019 A 
HETATM    6  C   UNL     1      61.070   8.883   3.216  1.00  0.00     0.019 A 
ENDROOT
BRANCH   1   7
HETATM    7  C   UNL     1      61.935   5.866   5.358  1.00  0.00     0.084 A 
HETATM    8  N   UNL     1      61.458   5.554   6.549  1.00  0.00    -0.359 N 
HETATM    9  C   UNL     1      61.601   4.199   6.779  1.00  0.00     0.096 A 
ATOM     10  HN  UNL     1      61.043   6.217   7.204  1.00  0.00     0.166 HD
HETATM   11  C   UNL     1      62.221   3.488   5.778  1.00  0.00     0.069 A 
HETATM   12  S   UNL     1      62.638   4.542   4.498  1.00  0.00    -0.082 SA
ENDBRANCH   1   7
BRANCH   2  13
HETATM   13  C   UNL     1      61.994  11.223   3.185  1.00  0.00     0.209 C 
HETATM   14  O   UNL     1      62.069  11.529   2.010  1.00  0.00    -0.644 OA
HETATM   15  O   UNL     1      61.937  12.158   4.151  1.00  0.00    -0.644 OA
ENDBRANCH   2  13
TORSDOF 2
ENDMDL
MODEL 9
REMARK VINA RESULT:      -4.4      4.426      6.107
REMARK  2 active torsions:
REMARK  status: ('A' for Active; 'I' for Inactive)
REMARK    1  A    between atoms: C_1  and  C_6 
REMARK    2  A    between atoms: C_4  and  C_7 
ROOT
HETATM    1  C   UNL     1      60.770   7.704   3.575  1.00  0.00    -0.002 A 
HETATM    2  C   UNL     1      63.247   8.583   4.615  1.00  0.00     0.040 A 
HETATM    3  C   UNL     1      61.466   8.770   2.977  1.00  0.00     0.015 A 
HETATM    4  C   UNL     1      61.348   7.076   4.689  1.00  0.00     0.015 A 
HETATM    5  C   UNL     1      62.691   9.210   3.494  1.00  0.00     0.019 A 
HETATM    6  C   UNL     1      62.573   7.511   5.208  1.00  0.00     0.019 A 
ENDROOT
BRANCH   1   7
HETATM    7  C   UNL     1      59.482   7.266   3.011  1.00  0.00     0.084 A 
HETATM    8  N   UNL     1      58.887   7.832   1.977  1.00  0.00    -0.359 N 
HETATM    9  C   UNL     1      57.706   7.175   1.689  1.00  0.00     0.096 A 
ATOM     10  HN  UNL     1      59.247   8.637   1.465  1.00  0.00     0.166 HD
HETATM   11  C   UNL     1      57.385   6.133   2.527  1.00  0.00     0.069 A 
HETATM   12  S   UNL     1      58.600   5.958   3.718  1.00  0.00    -0.082 SA
ENDBRANCH   1   7
BRANCH   2  13
HETATM   13  C   UNL     1      64.543   9.073   5.141  1.00  0.00     0.209 C 
HETATM   14  O   UNL     1      65.628   8.548   4.973  1.00  0.00    -0.644 OA
HETATM   15  O   UNL     1      64.416  10.206   5.855  1.00  0.00    -0.644 OA
ENDBRANCH   2  13
TORSDOF 2
ENDMDL
