MODEL 1
REMARK VINA RESULT:      -5.1      0.000      0.000
REMARK  2 active torsions:
REMARK  status: ('A' for Active; 'I' for Inactive)
REMARK    1  A    between atoms: C_1  and  C_4 
REMARK    2  A    between atoms: C_7  and  N_8 
ROOT
HETATM    1  C   UNL     1      63.594   8.766   4.727  1.00  0.00    -0.025 A 
HETATM    2  C   UNL     1      63.164  10.026   5.179  1.00  0.00     0.014 A 
HETATM    3  C   UNL     1      63.199   8.391   3.431  1.00  0.00     0.014 A 
HETATM    4  C   UNL     1      61.949  10.451   3.116  1.00  0.00     0.025 A 
HETATM    5  C   UNL     1      62.369  10.860   4.380  1.00  0.00     0.030 A 
HETATM    6  C   UNL     1      62.415   9.233   2.629  1.00  0.00     0.030 A 
ENDROOT
BRANCH   1   7
HETATM    7  C   UNL     1      64.446   7.891   5.562  1.00  0.00    -0.011 A 
HETATM    8  C   UNL     1      63.970   6.709   6.137  1.00  0.00     0.099 A 
HETATM    9  N   UNL     1      64.689   5.871   6.928  1.00  0.00    -0.374 N 
HETATM   10  C   UNL     1      65.971   6.216   7.162  1.00  0.00     0.087 A 
ATOM     11  HN  UNL     1      64.281   5.026   7.325  1.00  0.00     0.164 HD
HETATM   12  C   UNL     1      66.561   7.353   6.643  1.00  0.00     0.018 A 
HETATM   13  C   UNL     1      65.788   8.194   5.843  1.00  0.00     0.015 A 
ENDBRANCH   1   7
BRANCH   4  14
HETATM   14  N   UNL     1      61.284  11.344   2.269  1.00  0.00    -0.399 N 
HETATM   15  H   UNL     1      61.037  11.066   1.358  1.00  0.00     0.156 HD
HETATM   16  H   UNL     1      61.062  12.250   2.585  1.00  0.00     0.156 HD
ENDBRANCH   4  14
TORSDOF 2
ENDMDL
MODEL 2
REMARK VINA RESULT:      -5.1      1.023      1.450
REMARK  2 active torsions:
REMARK  status: ('A' for Active; 'I' for Inactive)
REMARK    1  A    between atoms: C_1  and  C_4 
REMARK    2  A    between atoms: C_7  and  N_8 
ROOT
HETATM    1  C   UNL     1      63.901   8.606   4.893  1.00  0.00    -0.025 A 
HETATM    2  C   UNL     1      63.323   9.840   5.237  1.00  0.00     0.014 A 
HETATM    3  C   UNL     1      63.542   8.065   3.647  1.00  0.00     0.014 A 
HETATM    4  C   UNL     1      62.043   9.918   3.171  1.00  0.00     0.025 A 
HETATM    5  C   UNL     1      62.422  10.492   4.383  1.00  0.00     0.030 A 
HETATM    6  C   UNL     1      62.651   8.725   2.788  1.00  0.00     0.030 A 
ENDROOT
BRANCH   1   7
HETATM    7  C   UNL     1      64.865   7.925   5.786  1.00  0.00    -0.011 A 
HETATM    8  C   UNL     1      66.179   8.374   5.952  1.00  0.00     0.099 A 
HETATM    9  N   UNL     1      67.119   7.788   6.738  1.00  0.00    -0.374 N 
HETATM   10  C   UNL     1      66.738   6.687   7.415  1.00  0.00     0.087 A 
ATOM     11  HN  UNL     1      68.065   8.161   6.810  1.00  0.00     0.164 HD
HETATM   12  C   UNL     1      65.466   6.151   7.343  1.00  0.00     0.018 A 
HETATM   13  C   UNL     1      64.529   6.775   6.519  1.00  0.00     0.015 A 
ENDBRANCH   1   7
BRANCH   4  14
HETATM   14  N   UNL     1      61.263  10.639   2.261  1.00  0.00    -0.399 N 
HETATM   15  H   UNL     1      60.310  10.420   2.149  1.00  0.00     0.156 HD
HETATM   16  H   UNL     1      61.667  11.366   1.735  1.00  0.00     0.156 HD
ENDBRANCH   4  14
TORSDOF 2
ENDMDL
MODEL 3
REMARK VINA RESULT:      -4.9      0.954      5.478
REMARK  2 active torsions:
REMARK  status: ('A' for Active; 'I' for Inactive)
REMARK    1  A    between atoms: C_1  and  C_4 
REMARK    2  A    between atoms: C_7  and  N_8 
ROOT
HETATM    1  C   UNL     1      63.591   8.287   4.720  1.00  0.00    -0.025 A 
HETATM    2  C   UNL     1      64.947   8.486   5.032  1.00  0.00     0.014 A 
HETATM    3  C   UNL     1      62.925   7.267   5.421  1.00  0.00     0.014 A 
HETATM    4  C   UNL     1      64.939   6.661   6.638  1.00  0.00     0.025 A 
HETATM    5  C   UNL     1      65.604   7.698   5.986  1.00  0.00     0.030 A 
HETATM    6  C   UNL     1      63.581   6.487   6.385  1.00  0.00     0.030 A 
ENDROOT
BRANCH   1   7
HETATM    7  C   UNL     1      62.891   9.130   3.725  1.00  0.00    -0.011 A 
HETATM    8  C   UNL     1      62.399  10.401   4.035  1.00  0.00     0.099 A 
HETATM    9  N   UNL     1      61.732  11.218   3.179  1.00  0.00    -0.374 N 
HETATM   10  C   UNL     1      61.544  10.756   1.927  1.00  0.00     0.087 A 
ATOM     11  HN  UNL     1      61.390  12.134   3.469  1.00  0.00     0.164 HD
HETATM   12  C   UNL     1      61.991   9.521   1.496  1.00  0.00     0.018 A 
HETATM   13  C   UNL     1      62.664   8.706   2.407  1.00  0.00     0.015 A 
ENDBRANCH   1   7
BRANCH   4  14
HETATM   14  N   UNL     1      65.556   5.977   7.691  1.00  0.00    -0.399 N 
HETATM   15  H   UNL     1      65.520   4.994   7.727  1.00  0.00     0.156 HD
HETATM   16  H   UNL     1      66.027   6.479   8.395  1.00  0.00     0.156 HD
ENDBRANCH   4  14
TORSDOF 2
ENDMDL
MODEL 4
REMARK VINA RESULT:      -4.8      2.920      5.198
REMARK  2 active torsions:
REMARK  status: ('A' for Active; 'I' for Inactive)
REMARK    1  A    between atoms: C_1  and  C_4 
REMARK    2  A    between atoms: C_7  and  N_8 
ROOT
HETATM    1  C   UNL     1      61.889   8.888   3.215  1.00  0.00    -0.025 A 
HETATM    2  C   UNL     1      61.665  10.276   3.219  1.00  0.00     0.014 A 
HETATM    3  C   UNL     1      62.705   8.376   4.238  1.00  0.00     0.014 A 
HETATM    4  C   UNL     1      63.082  10.589   5.170  1.00  0.00     0.025 A 
HETATM    5  C   UNL     1      62.238  11.109   4.190  1.00  0.00     0.030 A 
HETATM    6  C   UNL     1      63.267   9.210   5.216  1.00  0.00     0.030 A 
ENDROOT
BRANCH   1   7
HETATM    7  C   UNL     1      61.270   8.005   2.201  1.00  0.00    -0.011 A 
HETATM    8  C   UNL     1      61.430   6.616   2.219  1.00  0.00     0.099 A 
HETATM    9  N   UNL     1      60.909   5.751   1.312  1.00  0.00    -0.374 N 
HETATM   10  C   UNL     1      60.169   6.288   0.322  1.00  0.00     0.087 A 
ATOM     11  HN  UNL     1      61.069   4.746   1.376  1.00  0.00     0.164 HD
HETATM   12  C   UNL     1      59.929   7.644   0.200  1.00  0.00     0.018 A 
HETATM   13  C   UNL     1      60.489   8.503   1.146  1.00  0.00     0.015 A 
ENDBRANCH   1   7
BRANCH   4  14
HETATM   14  N   UNL     1      63.530  11.399   6.218  1.00  0.00    -0.399 N 
HETATM   15  H   UNL     1      63.268  12.347   6.255  1.00  0.00     0.156 HD
HETATM   16  H   UNL     1      64.106  11.019   6.921  1.00  0.00     0.156 HD
ENDBRANCH   4  14
TORSDOF 2
ENDMDL
MODEL 5
REMARK VINA RESULT:      -4.7      1.189      1.847
REMARK  2 active torsions:
REMARK  status: ('A' for Active; 'I' for Inactive)
REMARK    1  A    between atoms: C_1  and  C_4 
REMARK    2  A    between atoms: C_7  and  N_8 
ROOT
HETATM    1  C   UNL     1      64.242   8.082   4.529  1.00  0.00    -0.025 A 
HETATM    2  C   UNL     1      63.821   7.443   3.350  1.00  0.00     0.014 A 
HETATM    3  C   UNL     1      63.562   9.259   4.887  1.00  0.00     0.014 A 
HETATM    4  C   UNL     1      62.151   9.156   2.911  1.00  0.00     0.025 A 
HETATM    5  C   UNL     1      62.782   7.962   2.564  1.00  0.00     0.030 A 
HETATM    6  C   UNL     1      62.515   9.770   4.106  1.00  0.00     0.030 A 
ENDROOT
BRANCH   1   7
HETATM    7  C   UNL     1      65.326   7.526   5.368  1.00  0.00    -0.011 A 
HETATM    8  C   UNL     1      65.083   6.937   6.613  1.00  0.00     0.099 A 
HETATM    9  N   UNL     1      66.029   6.425   7.441  1.00  0.00    -0.374 N 
HETATM   10  C   UNL     1      67.305   6.489   7.012  1.00  0.00     0.087 A 
ATOM     11  HN  UNL     1      65.787   6.015   8.343  1.00  0.00     0.164 HD
HETATM   12  C   UNL     1      67.673   7.037   5.798  1.00  0.00     0.018 A 
HETATM   13  C   UNL     1      66.674   7.561   4.977  1.00  0.00     0.015 A 
ENDBRANCH   1   7
BRANCH   4  14
HETATM   14  N   UNL     1      61.023   9.589   2.208  1.00  0.00    -0.399 N 
HETATM   15  H   UNL     1      61.059   9.683   1.229  1.00  0.00     0.156 HD
HETATM   16  H   UNL     1      60.191   9.797   2.692  1.00  0.00     0.156 HD
ENDBRANCH   4  14
TORSDOF 2
ENDMDL
MODEL 6
REMARK VINA RESULT:      -4.7      1.259      5.532
REMARK  2 active torsions:
REMARK  status: ('A' for Active; 'I' for Inactive)
REMARK    1  A    between atoms: C_1  and  C_4 
REMARK    2  A    between atoms: C_7  and  N_8 
ROOT
HETATM    1  C   UNL     1      64.801   7.978   5.406  1.00  0.00    -0.025 A 
HETATM    2  C   UNL     1      64.437   7.042   6.390  1.00  0.00     0.014 A 
HETATM    3  C   UNL     1      66.168   8.067   5.092  1.00  0.00     0.014 A 
HETATM    4  C   UNL     1      66.750   6.381   6.744  1.00  0.00     0.025 A 
HETATM    5  C   UNL     1      65.394   6.246   7.035  1.00  0.00     0.030 A 
HETATM    6  C   UNL     1      67.122   7.261   5.730  1.00  0.00     0.030 A 
ENDROOT
BRANCH   1   7
HETATM    7  C   UNL     1      63.790   8.806   4.712  1.00  0.00    -0.011 A 
HETATM    8  C   UNL     1      63.324  10.015   5.237  1.00  0.00     0.099 A 
HETATM    9  N   UNL     1      62.386  10.814   4.664  1.00  0.00    -0.374 N 
HETATM   10  C   UNL     1      61.877  10.399   3.488  1.00  0.00     0.087 A 
ATOM     11  HN  UNL     1      62.083  11.683   5.103  1.00  0.00     0.164 HD
HETATM   12  C   UNL     1      62.263   9.228   2.862  1.00  0.00     0.018 A 
HETATM   13  C   UNL     1      63.222   8.429   3.485  1.00  0.00     0.015 A 
ENDBRANCH   1   7
BRANCH   4  14
HETATM   14  N   UNL     1      67.681   5.486   7.280  1.00  0.00    -0.399 N 
HETATM   15  H   UNL     1      67.436   4.923   8.049  1.00  0.00     0.156 HD
HETATM   16  H   UNL     1      68.582   5.418   6.888  1.00  0.00     0.156 HD
ENDBRANCH   4  14
TORSDOF 2
ENDMDL
MODEL 7
REMARK VINA RESULT:      -4.6      1.624      2.247
REMARK  2 active torsions:
REMARK  status: ('A' for Active; 'I' for Inactive)
REMARK    1  A    between atoms: C_1  and  C_4 
REMARK    2  A    between atoms: C_7  and  N_8 
ROOT
HETATM    1  C   UNL     1      62.791   8.875   3.696  1.00  0.00    -0.025 A 
HETATM    2  C   UNL     1      62.565   8.878   2.308  1.00  0.00     0.014 A 
HETATM    3  C   UNL     1      62.490  10.060   4.388  1.00  0.00     0.014 A 
HETATM    4  C   UNL     1      61.824  11.194   2.345  1.00  0.00     0.025 A 
HETATM    5  C   UNL     1      62.074  10.013   1.648  1.00  0.00     0.030 A 
HETATM    6  C   UNL     1      61.986  11.190   3.728  1.00  0.00     0.030 A 
ENDROOT
BRANCH   1   7
HETATM    7  C   UNL     1      63.294   7.672   4.397  1.00  0.00    -0.011 A 
HETATM    8  C   UNL     1      63.098   7.467   5.766  1.00  0.00     0.099 A 
HETATM    9  N   UNL     1      63.547   6.400   6.476  1.00  0.00    -0.374 N 
HETATM   10  C   UNL     1      64.228   5.462   5.788  1.00  0.00     0.087 A 
ATOM     11  HN  UNL     1      63.378   6.312   7.477  1.00  0.00     0.164 HD
HETATM   12  C   UNL     1      64.478   5.544   4.431  1.00  0.00     0.018 A 
HETATM   13  C   UNL     1      64.009   6.661   3.737  1.00  0.00     0.015 A 
ENDBRANCH   1   7
BRANCH   4  14
HETATM   14  N   UNL     1      61.197  12.270   1.709  1.00  0.00    -0.399 N 
HETATM   15  H   UNL     1      60.951  12.205   0.758  1.00  0.00     0.156 HD
HETATM   16  H   UNL     1      61.001  13.093   2.213  1.00  0.00     0.156 HD
ENDBRANCH   4  14
TORSDOF 2
ENDMDL
MODEL 8
REMARK VINA RESULT:      -4.4      2.144      2.870
REMARK  2 active torsions:
REMARK  status: ('A' for Active; 'I' for Inactive)
REMARK    1  A    between atoms: C_1  and  C_4 
REMARK    2  A    between atoms: C_7  and  N_8 
ROOT
HETATM    1  C   UNL     1      62.586   8.016   3.204  1.00  0.00    -0.025 A 
HETATM    2  C   UNL     1      62.602   8.480   1.877  1.00  0.00     0.014 A 
HETATM    3  C   UNL     1      61.336   7.651   3.731  1.00  0.00     0.014 A 
HETATM    4  C   UNL     1      60.188   8.260   1.677  1.00  0.00     0.025 A 
HETATM    5  C   UNL     1      61.425   8.584   1.122  1.00  0.00     0.030 A 
HETATM    6  C   UNL     1      60.161   7.744   2.970  1.00  0.00     0.030 A 
ENDROOT
BRANCH   1   7
HETATM    7  C   UNL     1      63.830   7.890   3.996  1.00  0.00    -0.011 A 
HETATM    8  C   UNL     1      64.105   8.710   5.095  1.00  0.00     0.099 A 
HETATM    9  N   UNL     1      65.231   8.662   5.852  1.00  0.00    -0.374 N 
HETATM   10  C   UNL     1      66.148   7.735   5.511  1.00  0.00     0.087 A 
ATOM     11  HN  UNL     1      65.376   9.295   6.639  1.00  0.00     0.164 HD
HETATM   12  C   UNL     1      65.989   6.859   4.454  1.00  0.00     0.018 A 
HETATM   13  C   UNL     1      64.822   6.945   3.692  1.00  0.00     0.015 A 
ENDBRANCH   1   7
BRANCH   4  14
HETATM   14  N   UNL     1      59.042   8.225   0.877  1.00  0.00    -0.399 N 
HETATM   15  H   UNL     1      58.205   7.849   1.233  1.00  0.00     0.156 HD
HETATM   16  H   UNL     1      59.072   8.578  -0.041  1.00  0.00     0.156 HD
ENDBRANCH   4  14
TORSDOF 2
ENDMDL
MODEL 9
REMARK VINA RESULT:      -4.3      1.760      5.586
REMARK  2 active torsions:
REMARK  status: ('A' for Active; 'I' for Inactive)
REMARK    1  A    between atoms: C_1  and  C_4 
REMARK    2  A    between atoms: C_7  and  N_8 
ROOT
HETATM    1  C   UNL     1      64.344   7.784   4.026  1.00  0.00    -0.025 A 
HETATM    2  C   UNL     1      65.141   6.649   3.796  1.00  0.00     0.014 A 
HETATM    3  C   UNL     1      64.712   8.607   5.104  1.00  0.00     0.014 A 
HETATM    4  C   UNL     1      66.564   7.152   5.702  1.00  0.00     0.025 A 
HETATM    5  C   UNL     1      66.242   6.348   4.610  1.00  0.00     0.030 A 
HETATM    6  C   UNL     1      65.821   8.311   5.909  1.00  0.00     0.030 A 
ENDROOT
BRANCH   1   7
HETATM    7  C   UNL     1      63.192   8.112   3.157  1.00  0.00    -0.011 A 
HETATM    8  C   UNL     1      62.328   9.178   3.429  1.00  0.00     0.099 A 
HETATM    9  N   UNL     1      61.244   9.523   2.687  1.00  0.00    -0.374 N 
HETATM   10  C   UNL     1      60.996   8.773   1.596  1.00  0.00     0.087 A 
ATOM     11  HN  UNL     1      60.647  10.309   2.944  1.00  0.00     0.164 HD
HETATM   12  C   UNL     1      61.781   7.700   1.215  1.00  0.00     0.018 A 
HETATM   13  C   UNL     1      62.881   7.370   2.007  1.00  0.00     0.015 A 
ENDBRANCH   1   7
BRANCH   4  14
HETATM   14  N   UNL     1      67.745   6.930   6.418  1.00  0.00    -0.399 N 
HETATM   15  H   UNL     1      67.981   7.518   7.172  1.00  0.00     0.156 HD
HETATM   16  H   UNL     1      68.339   6.186   6.169  1.00  0.00     0.156 HD
ENDBRANCH   4  14
TORSDOF 2
ENDMDL
