MODEL 1
REMARK VINA RESULT:      -5.3      0.000      0.000
REMARK  2 active torsions:
REMARK  status: ('A' for Active; 'I' for Inactive)
REMARK    1  A    between atoms: C_3  and  C_8 
REMARK    2  A    between atoms: C_7  and  C_9 
ROOT
HETATM    1  C   UNL     1      64.497   7.742   4.827  1.00  0.00    -0.009 A 
HETATM    2  C   UNL     1      62.651   8.924   3.054  1.00  0.00     0.040 A 
HETATM    3  C   UNL     1      63.907   8.978   5.129  1.00  0.00     0.015 A 
HETATM    4  C   UNL     1      64.130   7.093   3.639  1.00  0.00     0.015 A 
HETATM    5  C   UNL     1      63.217   7.680   2.758  1.00  0.00     0.019 A 
HETATM    6  C   UNL     1      62.994   9.571   4.247  1.00  0.00     0.019 A 
ENDROOT
BRANCH   1   7
HETATM    7  C   UNL     1      65.473   7.163   5.742  1.00  0.00     0.049 A 
HETATM    8  N   UNL     1      65.278   7.176   7.117  1.00  0.00    -0.353 N 
HETATM    9  C   UNL     1      66.295   6.602   7.723  1.00  0.00     0.047 A 
ATOM     10  HN  UNL     1      64.465   7.573   7.589  1.00  0.00     0.166 HD
HETATM   11  S   UNL     1      67.554   6.046   6.693  1.00  0.00    -0.087 SA
HETATM   12  C   UNL     1      66.413   6.422   9.195  1.00  0.00     0.076 C 
HETATM   13  C   UNL     1      66.667   6.600   5.336  1.00  0.00     0.081 A 
ENDBRANCH   1   7
BRANCH   2  14
HETATM   14  C   UNL     1      61.701   9.511   2.079  1.00  0.00     0.209 C 
HETATM   15  O   UNL     1      60.961   8.887   1.341  1.00  0.00    -0.644 OA
HETATM   16  O   UNL     1      61.723  10.856   2.071  1.00  0.00    -0.644 OA
ENDBRANCH   2  14
TORSDOF 2
ENDMDL
MODEL 2
REMARK VINA RESULT:      -4.9      4.342      6.308
REMARK  2 active torsions:
REMARK  status: ('A' for Active; 'I' for Inactive)
REMARK    1  A    between atoms: C_3  and  C_8 
REMARK    2  A    between atoms: C_7  and  C_9 
ROOT
HETATM    1  C   UNL     1      63.825   7.906   4.706  1.00  0.00    -0.009 A 
HETATM    2  C   UNL     1      65.217   6.662   6.818  1.00  0.00     0.040 A 
HETATM    3  C   UNL     1      63.290   6.781   5.349  1.00  0.00     0.015 A 
HETATM    4  C   UNL     1      65.053   8.417   5.151  1.00  0.00     0.015 A 
HETATM    5  C   UNL     1      65.746   7.799   6.197  1.00  0.00     0.019 A 
HETATM    6  C   UNL     1      63.982   6.157   6.395  1.00  0.00     0.019 A 
ENDROOT
BRANCH   1   7
HETATM    7  C   UNL     1      63.104   8.516   3.595  1.00  0.00     0.049 A 
HETATM    8  N   UNL     1      62.775   9.865   3.594  1.00  0.00    -0.353 N 
HETATM    9  C   UNL     1      62.125  10.170   2.492  1.00  0.00     0.047 A 
ATOM     10  HN  UNL     1      63.003  10.523   4.340  1.00  0.00     0.166 HD
HETATM   11  S   UNL     1      61.841   8.864   1.411  1.00  0.00    -0.087 SA
HETATM   12  C   UNL     1      61.635  11.533   2.146  1.00  0.00     0.076 C 
HETATM   13  C   UNL     1      62.660   7.815   2.490  1.00  0.00     0.081 A 
ENDBRANCH   1   7
BRANCH   2  14
HETATM   14  C   UNL     1      65.998   6.034   7.911  1.00  0.00     0.209 C 
HETATM   15  O   UNL     1      65.874   4.891   8.309  1.00  0.00    -0.644 OA
HETATM   16  O   UNL     1      66.901   6.869   8.456  1.00  0.00    -0.644 OA
ENDBRANCH   2  14
TORSDOF 2
ENDMDL
MODEL 3
REMARK VINA RESULT:      -4.8      1.415      1.755
REMARK  2 active torsions:
REMARK  status: ('A' for Active; 'I' for Inactive)
REMARK    1  A    between atoms: C_3  and  C_8 
REMARK    2  A    between atoms: C_7  and  C_9 
ROOT
HETATM    1  C   UNL     1      64.874   7.486   4.907  1.00  0.00    -0.009 A 
HETATM    2  C   UNL     1      62.936   9.083   3.625  1.00  0.00     0.040 A 
HETATM    3  C   UNL     1      64.497   8.724   5.447  1.00  0.00     0.015 A 
HETATM    4  C   UNL     1      64.248   7.046   3.731  1.00  0.00     0.015 A 
HETATM    5  C   UNL     1      63.290   7.839   3.093  1.00  0.00     0.019 A 
HETATM    6  C   UNL     1      63.539   9.523   4.809  1.00  0.00     0.019 A 
ENDROOT
BRANCH   1   7
HETATM    7  C   UNL     1      65.900   6.690   5.568  1.00  0.00     0.049 A 
HETATM    8  N   UNL     1      66.231   5.416   5.124  1.00  0.00    -0.353 N 
HETATM    9  C   UNL     1      67.175   4.904   5.885  1.00  0.00     0.047 A 
ATOM     10  HN  UNL     1      65.805   4.947   4.325  1.00  0.00     0.166 HD
HETATM   11  S   UNL     1      67.697   5.895   7.189  1.00  0.00    -0.087 SA
HETATM   12  C   UNL     1      67.787   3.562   5.688  1.00  0.00     0.076 C 
HETATM   13  C   UNL     1      66.589   7.104   6.692  1.00  0.00     0.081 A 
ENDBRANCH   1   7
BRANCH   2  14
HETATM   14  C   UNL     1      61.927   9.893   2.902  1.00  0.00     0.209 C 
HETATM   15  O   UNL     1      61.410   9.603   1.839  1.00  0.00    -0.644 OA
HETATM   16  O   UNL     1      61.611  11.032   3.543  1.00  0.00    -0.644 OA
ENDBRANCH   2  14
TORSDOF 2
ENDMDL
MODEL 4
REMARK VINA RESULT:      -4.7      2.905      4.034
REMARK  2 active torsions:
REMARK  status: ('A' for Active; 'I' for Inactive)
REMARK    1  A    between atoms: C_3  and  C_8 
REMARK    2  A    between atoms: C_7  and  C_9 
ROOT
HETATM    1  C   UNL     1      64.324   7.156   3.556  1.00  0.00    -0.009 A 
HETATM    2  C   UNL     1      63.303   9.556   4.625  1.00  0.00     0.040 A 
HETATM    3  C   UNL     1      63.210   7.780   2.976  1.00  0.00     0.015 A 
HETATM    4  C   UNL     1      64.936   7.763   4.663  1.00  0.00     0.015 A 
HETATM    5  C   UNL     1      64.428   8.952   5.195  1.00  0.00     0.019 A 
HETATM    6  C   UNL     1      62.697   8.969   3.509  1.00  0.00     0.019 A 
ENDROOT
BRANCH   1   7
HETATM    7  C   UNL     1      64.817   5.899   3.008  1.00  0.00     0.049 A 
HETATM    8  N   UNL     1      66.104   5.446   3.269  1.00  0.00    -0.353 N 
HETATM    9  C   UNL     1      66.311   4.299   2.659  1.00  0.00     0.047 A 
ATOM     10  HN  UNL     1      66.788   5.932   3.848  1.00  0.00     0.166 HD
HETATM   11  S   UNL     1      65.000   3.711   1.716  1.00  0.00    -0.087 SA
HETATM   12  C   UNL     1      67.575   3.515   2.735  1.00  0.00     0.076 C 
HETATM   13  C   UNL     1      64.082   5.085   2.167  1.00  0.00     0.081 A 
ENDBRANCH   1   7
BRANCH   2  14
HETATM   14  C   UNL     1      62.793  10.807   5.238  1.00  0.00     0.209 C 
HETATM   15  O   UNL     1      63.061  11.214   6.353  1.00  0.00    -0.644 OA
HETATM   16  O   UNL     1      61.969  11.491   4.424  1.00  0.00    -0.644 OA
ENDBRANCH   2  14
TORSDOF 2
ENDMDL
MODEL 5
REMARK VINA RESULT:      -4.6      4.336      6.292
REMARK  2 active torsions:
REMARK  status: ('A' for Active; 'I' for Inactive)
REMARK    1  A    between atoms: C_3  and  C_8 
REMARK    2  A    between atoms: C_7  and  C_9 
ROOT
HETATM    1  C   UNL     1      63.129   7.780   3.413  1.00  0.00    -0.009 A 
HETATM    2  C   UNL     1      65.480   7.846   4.966  1.00  0.00     0.040 A 
HETATM    3  C   UNL     1      64.113   6.794   3.260  1.00  0.00     0.015 A 
HETATM    4  C   UNL     1      63.324   8.786   4.371  1.00  0.00     0.015 A 
HETATM    5  C   UNL     1      64.492   8.820   5.140  1.00  0.00     0.019 A 
HETATM    6  C   UNL     1      65.286   6.827   4.027  1.00  0.00     0.019 A 
ENDROOT
BRANCH   1   7
HETATM    7  C   UNL     1      61.934   7.746   2.577  1.00  0.00     0.049 A 
HETATM    8  N   UNL     1      60.935   6.802   2.775  1.00  0.00    -0.353 N 
HETATM    9  C   UNL     1      59.971   6.974   1.896  1.00  0.00     0.047 A 
ATOM     10  HN  UNL     1      60.946   6.081   3.497  1.00  0.00     0.166 HD
HETATM   11  S   UNL     1      60.216   8.245   0.765  1.00  0.00    -0.087 SA
HETATM   12  C   UNL     1      58.731   6.154   1.826  1.00  0.00     0.076 C 
HETATM   13  C   UNL     1      61.714   8.602   1.515  1.00  0.00     0.081 A 
ENDBRANCH   1   7
BRANCH   2  14
HETATM   14  C   UNL     1      66.706   7.937   5.794  1.00  0.00     0.209 C 
HETATM   15  O   UNL     1      67.714   7.269   5.651  1.00  0.00    -0.644 OA
HETATM   16  O   UNL     1      66.615   8.862   6.766  1.00  0.00    -0.644 OA
ENDBRANCH   2  14
TORSDOF 2
ENDMDL
MODEL 6
REMARK VINA RESULT:      -4.4      1.266      1.719
REMARK  2 active torsions:
REMARK  status: ('A' for Active; 'I' for Inactive)
REMARK    1  A    between atoms: C_3  and  C_8 
REMARK    2  A    between atoms: C_7  and  C_9 
ROOT
HETATM    1  C   UNL     1      64.290   7.151   5.258  1.00  0.00    -0.009 A 
HETATM    2  C   UNL     1      62.029   7.820   3.712  1.00  0.00     0.040 A 
HETATM    3  C   UNL     1      63.242   6.234   5.090  1.00  0.00     0.015 A 
HETATM    4  C   UNL     1      64.203   8.397   4.620  1.00  0.00     0.015 A 
HETATM    5  C   UNL     1      63.081   8.731   3.856  1.00  0.00     0.019 A 
HETATM    6  C   UNL     1      62.115   6.566   4.327  1.00  0.00     0.019 A 
ENDROOT
BRANCH   1   7
HETATM    7  C   UNL     1      65.435   6.797   6.087  1.00  0.00     0.049 A 
HETATM    8  N   UNL     1      65.408   6.945   7.467  1.00  0.00    -0.353 N 
HETATM    9  C   UNL     1      66.556   6.565   7.985  1.00  0.00     0.047 A 
ATOM     10  HN  UNL     1      64.613   7.296   8.002  1.00  0.00     0.166 HD
HETATM   11  S   UNL     1      67.743   6.044   6.857  1.00  0.00    -0.087 SA
HETATM   12  C   UNL     1      66.873   6.570   9.439  1.00  0.00     0.076 C 
HETATM   13  C   UNL     1      66.635   6.333   5.583  1.00  0.00     0.081 A 
ENDBRANCH   1   7
BRANCH   2  14
HETATM   14  C   UNL     1      60.855   8.229   2.905  1.00  0.00     0.209 C 
HETATM   15  O   UNL     1      60.892   8.749   1.805  1.00  0.00    -0.644 OA
HETATM   16  O   UNL     1      59.684   7.969   3.515  1.00  0.00    -0.644 OA
ENDBRANCH   2  14
TORSDOF 2
ENDMDL
MODEL 7
REMARK VINA RESULT:      -4.4      4.703      6.461
REMARK  2 active torsions:
REMARK  status: ('A' for Active; 'I' for Inactive)
REMARK    1  A    between atoms: C_3  and  C_8 
REMARK    2  A    between atoms: C_7  and  C_9 
ROOT
HETATM    1  C   UNL     1      61.561   7.658   4.034  1.00  0.00    -0.009 A 
HETATM    2  C   UNL     1      64.063   7.832   5.321  1.00  0.00     0.040 A 
HETATM    3  C   UNL     1      61.814   6.929   5.204  1.00  0.00     0.015 A 
HETATM    4  C   UNL     1      62.567   8.496   3.530  1.00  0.00     0.015 A 
HETATM    5  C   UNL     1      63.809   8.580   4.166  1.00  0.00     0.019 A 
HETATM    6  C   UNL     1      63.059   7.008   5.843  1.00  0.00     0.019 A 
ENDROOT
BRANCH   1   7
HETATM    7  C   UNL     1      60.271   7.530   3.366  1.00  0.00     0.049 A 
HETATM    8  N   UNL     1      59.117   7.206   4.068  1.00  0.00    -0.353 N 
HETATM    9  C   UNL     1      58.091   7.144   3.246  1.00  0.00     0.047 A 
ATOM     10  HN  UNL     1      59.072   7.040   5.073  1.00  0.00     0.166 HD
HETATM   11  S   UNL     1      58.447   7.436   1.591  1.00  0.00    -0.087 SA
HETATM   12  C   UNL     1      56.693   6.841   3.658  1.00  0.00     0.076 C 
HETATM   13  C   UNL     1      60.093   7.676   2.004  1.00  0.00     0.081 A 
ENDBRANCH   1   7
BRANCH   2  14
HETATM   14  C   UNL     1      65.402   7.943   5.947  1.00  0.00     0.209 C 
HETATM   15  O   UNL     1      65.704   7.546   7.058  1.00  0.00    -0.644 OA
HETATM   16  O   UNL     1      66.303   8.549   5.154  1.00  0.00    -0.644 OA
ENDBRANCH   2  14
TORSDOF 2
ENDMDL
MODEL 8
REMARK VINA RESULT:      -4.4      6.332      7.716
REMARK  2 active torsions:
REMARK  status: ('A' for Active; 'I' for Inactive)
REMARK    1  A    between atoms: C_3  and  C_8 
REMARK    2  A    between atoms: C_7  and  C_9 
ROOT
HETATM    1  C   UNL     1      58.791   7.092   4.100  1.00  0.00    -0.009 A 
HETATM    2  C   UNL     1      57.570   6.327   6.523  1.00  0.00     0.040 A 
HETATM    3  C   UNL     1      57.536   7.605   4.461  1.00  0.00     0.015 A 
HETATM    4  C   UNL     1      59.438   6.212   4.980  1.00  0.00     0.015 A 
HETATM    5  C   UNL     1      58.831   5.830   6.180  1.00  0.00     0.019 A 
HETATM    6  C   UNL     1      56.924   7.222   5.662  1.00  0.00     0.019 A 
ENDROOT
BRANCH   1   7
HETATM    7  C   UNL     1      59.391   7.476   2.828  1.00  0.00     0.049 A 
HETATM    8  N   UNL     1      60.503   8.305   2.769  1.00  0.00    -0.353 N 
HETATM    9  C   UNL     1      60.849   8.507   1.516  1.00  0.00     0.047 A 
ATOM     10  HN  UNL     1      60.982   8.698   3.579  1.00  0.00     0.166 HD
HETATM   11  S   UNL     1      59.852   7.751   0.338  1.00  0.00    -0.087 SA
HETATM   12  C   UNL     1      62.010   9.330   1.079  1.00  0.00     0.076 C 
HETATM   13  C   UNL     1      58.894   7.092   1.597  1.00  0.00     0.081 A 
ENDBRANCH   1   7
BRANCH   2  14
HETATM   14  C   UNL     1      56.963   5.878   7.799  1.00  0.00     0.209 C 
HETATM   15  O   UNL     1      57.381   4.984   8.511  1.00  0.00    -0.644 OA
HETATM   16  O   UNL     1      55.857   6.570   8.125  1.00  0.00    -0.644 OA
ENDBRANCH   2  14
TORSDOF 2
ENDMDL
MODEL 9
REMARK VINA RESULT:      -4.1      5.587      6.784
REMARK  2 active torsions:
REMARK  status: ('A' for Active; 'I' for Inactive)
REMARK    1  A    between atoms: C_3  and  C_8 
REMARK    2  A    between atoms: C_7  and  C_9 
ROOT
HETATM    1  C   UNL     1      60.395   6.501   4.855  1.00  0.00    -0.009 A 
HETATM    2  C   UNL     1      58.939   5.763   7.153  1.00  0.00     0.040 A 
HETATM    3  C   UNL     1      61.054   6.233   6.063  1.00  0.00     0.015 A 
HETATM    4  C   UNL     1      58.999   6.369   4.805  1.00  0.00     0.015 A 
HETATM    5  C   UNL     1      58.276   6.007   5.946  1.00  0.00     0.019 A 
HETATM    6  C   UNL     1      60.333   5.872   7.208  1.00  0.00     0.019 A 
ENDROOT
BRANCH   1   7
HETATM    7  C   UNL     1      61.163   6.911   3.686  1.00  0.00     0.049 A 
HETATM    8  N   UNL     1      61.086   8.202   3.181  1.00  0.00    -0.353 N 
HETATM    9  C   UNL     1      61.863   8.322   2.126  1.00  0.00     0.047 A 
ATOM     10  HN  UNL     1      60.510   8.949   3.571  1.00  0.00     0.166 HD
HETATM   11  S   UNL     1      62.702   6.898   1.657  1.00  0.00    -0.087 SA
HETATM   12  C   UNL     1      62.042   9.575   1.342  1.00  0.00     0.076 C 
HETATM   13  C   UNL     1      61.985   6.062   2.969  1.00  0.00     0.081 A 
ENDBRANCH   1   7
BRANCH   2  14
HETATM   14  C   UNL     1      58.125   5.398   8.337  1.00  0.00     0.209 C 
HETATM   15  O   UNL     1      56.965   5.029   8.318  1.00  0.00    -0.644 OA
HETATM   16  O   UNL     1      58.802   5.514   9.494  1.00  0.00    -0.644 OA
ENDBRANCH   2  14
TORSDOF 2
ENDMDL
