MODEL 1
REMARK VINA RESULT:      -5.3      0.000      0.000
REMARK  2 active torsions:
REMARK  status: ('A' for Active; 'I' for Inactive)
REMARK    1  A    between atoms: C_1  and  C_5 
REMARK    2  A    between atoms: C_5  and  C_6 
ROOT
HETATM    1  C   UNL     1      63.235   9.150   4.900  1.00  0.00    -0.013 A 
HETATM    2  C   UNL     1      62.808  10.414   5.258  1.00  0.00     0.151 A 
HETATM    3  O   UNL     1      62.197  11.036   4.219  1.00  0.00    -0.321 OA
HETATM    4  C   UNL     1      62.825   8.977   3.541  1.00  0.00     0.006 A 
HETATM    5  C   UNL     1      62.205  10.165   3.174  1.00  0.00     0.085 A 
HETATM    6  C   UNL     1      62.912   7.948   2.584  1.00  0.00     0.015 A 
HETATM    7  C   UNL     1      61.670  10.414   1.911  1.00  0.00     0.038 A 
HETATM    8  C   UNL     1      62.370   8.164   1.307  1.00  0.00     0.001 A 
HETATM    9  C   UNL     1      61.764   9.378   0.977  1.00  0.00     0.003 A 
ENDROOT
BRANCH   1  10
HETATM   10  C   UNL     1      63.957   8.168   5.758  1.00  0.00     0.154 C 
BRANCH  10  11
HETATM   11  C   UNL     1      65.447   8.200   5.524  1.00  0.00     0.177 C 
HETATM   12  O   UNL     1      66.085   7.584   4.685  1.00  0.00    -0.648 OA
HETATM   13  O   UNL     1      66.095   8.975   6.420  1.00  0.00    -0.648 OA
ENDBRANCH  10  11
ENDBRANCH   1  10
TORSDOF 2
ENDMDL
MODEL 2
REMARK VINA RESULT:      -5.3      1.649      4.194
REMARK  2 active torsions:
REMARK  status: ('A' for Active; 'I' for Inactive)
REMARK    1  A    between atoms: C_1  and  C_5 
REMARK    2  A    between atoms: C_5  and  C_6 
ROOT
HETATM    1  C   UNL     1      62.787   9.679   4.316  1.00  0.00    -0.013 A 
HETATM    2  C   UNL     1      63.326  10.441   5.334  1.00  0.00     0.151 A 
HETATM    3  O   UNL     1      64.448   9.866   5.833  1.00  0.00    -0.321 OA
HETATM    4  C   UNL     1      63.669   8.564   4.163  1.00  0.00     0.006 A 
HETATM    5  C   UNL     1      64.660   8.725   5.124  1.00  0.00     0.085 A 
HETATM    6  C   UNL     1      63.735   7.439   3.319  1.00  0.00     0.015 A 
HETATM    7  C   UNL     1      65.716   7.837   5.319  1.00  0.00     0.038 A 
HETATM    8  C   UNL     1      64.794   6.533   3.482  1.00  0.00     0.001 A 
HETATM    9  C   UNL     1      65.765   6.728   4.468  1.00  0.00     0.003 A 
ENDROOT
BRANCH   1  10
HETATM   10  C   UNL     1      61.553   9.970   3.532  1.00  0.00     0.154 C 
BRANCH  10  11
HETATM   11  C   UNL     1      61.869  10.481   2.148  1.00  0.00     0.177 C 
HETATM   12  O   UNL     1      62.071   9.826   1.138  1.00  0.00    -0.648 OA
HETATM   13  O   UNL     1      61.982  11.826   2.107  1.00  0.00    -0.648 OA
ENDBRANCH  10  11
ENDBRANCH   1  10
TORSDOF 2
ENDMDL
MODEL 3
REMARK VINA RESULT:      -5.3      1.471      2.316
REMARK  2 active torsions:
REMARK  status: ('A' for Active; 'I' for Inactive)
REMARK    1  A    between atoms: C_1  and  C_5 
REMARK    2  A    between atoms: C_5  and  C_6 
ROOT
HETATM    1  C   UNL     1      63.270   7.938   4.228  1.00  0.00    -0.013 A 
HETATM    2  C   UNL     1      63.356   7.116   3.121  1.00  0.00     0.151 A 
HETATM    3  O   UNL     1      62.897   7.743   2.010  1.00  0.00    -0.321 OA
HETATM    4  C   UNL     1      62.743   9.177   3.746  1.00  0.00     0.006 A 
HETATM    5  C   UNL     1      62.524   8.996   2.386  1.00  0.00     0.085 A 
HETATM    6  C   UNL     1      62.427  10.427   4.312  1.00  0.00     0.015 A 
HETATM    7  C   UNL     1      61.998   9.970   1.539  1.00  0.00     0.038 A 
HETATM    8  C   UNL     1      61.908  11.433   3.482  1.00  0.00     0.001 A 
HETATM    9  C   UNL     1      61.694  11.205   2.120  1.00  0.00     0.003 A 
ENDROOT
BRANCH   1  10
HETATM   10  C   UNL     1      63.662   7.605   5.627  1.00  0.00     0.154 C 
BRANCH  10  11
HETATM   11  C   UNL     1      65.146   7.759   5.852  1.00  0.00     0.177 C 
HETATM   12  O   UNL     1      65.976   6.873   5.987  1.00  0.00    -0.648 OA
HETATM   13  O   UNL     1      65.522   9.050   5.963  1.00  0.00    -0.648 OA
ENDBRANCH  10  11
ENDBRANCH   1  10
TORSDOF 2
ENDMDL
MODEL 4
REMARK VINA RESULT:      -5.1      1.443      1.542
REMARK  2 active torsions:
REMARK  status: ('A' for Active; 'I' for Inactive)
REMARK    1  A    between atoms: C_1  and  C_5 
REMARK    2  A    between atoms: C_5  and  C_6 
ROOT
HETATM    1  C   UNL     1      63.380   9.210   4.760  1.00  0.00    -0.013 A 
HETATM    2  C   UNL     1      62.832  10.437   5.083  1.00  0.00     0.151 A 
HETATM    3  O   UNL     1      62.082  10.922   4.063  1.00  0.00    -0.321 OA
HETATM    4  C   UNL     1      62.900   8.911   3.446  1.00  0.00     0.006 A 
HETATM    5  C   UNL     1      62.121   9.997   3.066  1.00  0.00     0.085 A 
HETATM    6  C   UNL     1      63.042   7.843   2.540  1.00  0.00     0.015 A 
HETATM    7  C   UNL     1      61.475  10.108   1.836  1.00  0.00     0.038 A 
HETATM    8  C   UNL     1      62.392   7.919   1.298  1.00  0.00     0.001 A 
HETATM    9  C   UNL     1      61.626   9.035   0.952  1.00  0.00     0.003 A 
ENDROOT
BRANCH   1  10
HETATM   10  C   UNL     1      64.270   8.370   5.610  1.00  0.00     0.154 C 
BRANCH  10  11
HETATM   11  C   UNL     1      63.528   7.217   6.240  1.00  0.00     0.177 C 
HETATM   12  O   UNL     1      63.726   6.024   6.075  1.00  0.00    -0.648 OA
HETATM   13  O   UNL     1      62.503   7.624   7.018  1.00  0.00    -0.648 OA
ENDBRANCH  10  11
ENDBRANCH   1  10
TORSDOF 2
ENDMDL
MODEL 5
REMARK VINA RESULT:      -5.0      2.294      4.969
REMARK  2 active torsions:
REMARK  status: ('A' for Active; 'I' for Inactive)
REMARK    1  A    between atoms: C_1  and  C_5 
REMARK    2  A    between atoms: C_5  and  C_6 
ROOT
HETATM    1  C   UNL     1      63.319   8.316   5.266  1.00  0.00    -0.013 A 
HETATM    2  C   UNL     1      62.517   7.552   6.092  1.00  0.00     0.151 A 
HETATM    3  O   UNL     1      63.251   6.653   6.792  1.00  0.00    -0.321 OA
HETATM    4  C   UNL     1      64.655   7.865   5.506  1.00  0.00     0.006 A 
HETATM    5  C   UNL     1      64.552   6.840   6.440  1.00  0.00     0.085 A 
HETATM    6  C   UNL     1      65.936   8.211   5.035  1.00  0.00     0.015 A 
HETATM    7  C   UNL     1      65.636   6.118   6.936  1.00  0.00     0.038 A 
HETATM    8  C   UNL     1      67.049   7.510   5.526  1.00  0.00     0.001 A 
HETATM    9  C   UNL     1      66.899   6.480   6.458  1.00  0.00     0.003 A 
ENDROOT
BRANCH   1  10
HETATM   10  C   UNL     1      62.883   9.395   4.335  1.00  0.00     0.154 C 
BRANCH  10  11
HETATM   11  C   UNL     1      62.750  10.726   5.033  1.00  0.00     0.177 C 
HETATM   12  O   UNL     1      63.227  11.057   6.107  1.00  0.00    -0.648 OA
HETATM   13  O   UNL     1      61.951  11.583   4.364  1.00  0.00    -0.648 OA
ENDBRANCH  10  11
ENDBRANCH   1  10
TORSDOF 2
ENDMDL
MODEL 6
REMARK VINA RESULT:      -4.9      2.614      4.639
REMARK  2 active torsions:
REMARK  status: ('A' for Active; 'I' for Inactive)
REMARK    1  A    between atoms: C_1  and  C_5 
REMARK    2  A    between atoms: C_5  and  C_6 
ROOT
HETATM    1  C   UNL     1      61.955   9.959   1.878  1.00  0.00    -0.013 A 
HETATM    2  C   UNL     1      61.654  11.308   1.880  1.00  0.00     0.151 A 
HETATM    3  O   UNL     1      61.863  11.853   3.104  1.00  0.00    -0.321 OA
HETATM    4  C   UNL     1      62.412   9.666   3.201  1.00  0.00     0.006 A 
HETATM    5  C   UNL     1      62.324  10.859   3.910  1.00  0.00     0.085 A 
HETATM    6  C   UNL     1      62.888   8.525   3.874  1.00  0.00     0.015 A 
HETATM    7  C   UNL     1      62.666  11.000   5.253  1.00  0.00     0.038 A 
HETATM    8  C   UNL     1      63.253   8.639   5.224  1.00  0.00     0.001 A 
HETATM    9  C   UNL     1      63.139   9.856   5.902  1.00  0.00     0.003 A 
ENDROOT
BRANCH   1  10
HETATM   10  C   UNL     1      61.842   9.015   0.731  1.00  0.00     0.154 C 
BRANCH  10  11
HETATM   11  C   UNL     1      60.626   8.129   0.844  1.00  0.00     0.177 C 
HETATM   12  O   UNL     1      59.465   8.418   0.600  1.00  0.00    -0.648 OA
HETATM   13  O   UNL     1      60.922   6.906   1.334  1.00  0.00    -0.648 OA
ENDBRANCH  10  11
ENDBRANCH   1  10
TORSDOF 2
ENDMDL
MODEL 7
REMARK VINA RESULT:      -4.9      2.307      4.682
REMARK  2 active torsions:
REMARK  status: ('A' for Active; 'I' for Inactive)
REMARK    1  A    between atoms: C_1  and  C_5 
REMARK    2  A    between atoms: C_5  and  C_6 
ROOT
HETATM    1  C   UNL     1      62.176   8.521   3.565  1.00  0.00    -0.013 A 
HETATM    2  C   UNL     1      61.122   7.704   3.927  1.00  0.00     0.151 A 
HETATM    3  O   UNL     1      61.471   6.876   4.943  1.00  0.00    -0.321 OA
HETATM    4  C   UNL     1      63.245   8.183   4.454  1.00  0.00     0.006 A 
HETATM    5  C   UNL     1      62.760   7.165   5.267  1.00  0.00     0.085 A 
HETATM    6  C   UNL     1      64.565   8.627   4.657  1.00  0.00     0.015 A 
HETATM    7  C   UNL     1      63.501   6.540   6.268  1.00  0.00     0.038 A 
HETATM    8  C   UNL     1      65.333   8.026   5.667  1.00  0.00     0.001 A 
HETATM    9  C   UNL     1      64.809   6.998   6.456  1.00  0.00     0.003 A 
ENDROOT
BRANCH   1  10
HETATM   10  C   UNL     1      62.188   9.549   2.486  1.00  0.00     0.154 C 
BRANCH  10  11
HETATM   11  C   UNL     1      61.974  10.941   3.028  1.00  0.00     0.177 C 
HETATM   12  O   UNL     1      61.740  11.265   4.182  1.00  0.00    -0.648 OA
HETATM   13  O   UNL     1      61.999  11.882   2.061  1.00  0.00    -0.648 OA
ENDBRANCH  10  11
ENDBRANCH   1  10
TORSDOF 2
ENDMDL
MODEL 8
REMARK VINA RESULT:      -4.7      1.788      2.617
REMARK  2 active torsions:
REMARK  status: ('A' for Active; 'I' for Inactive)
REMARK    1  A    between atoms: C_1  and  C_5 
REMARK    2  A    between atoms: C_5  and  C_6 
ROOT
HETATM    1  C   UNL     1      62.955   7.788   4.348  1.00  0.00    -0.013 A 
HETATM    2  C   UNL     1      63.106   8.289   5.627  1.00  0.00     0.151 A 
HETATM    3  O   UNL     1      62.844   9.619   5.665  1.00  0.00    -0.321 OA
HETATM    4  C   UNL     1      62.538   8.898   3.548  1.00  0.00     0.006 A 
HETATM    5  C   UNL     1      62.498   9.993   4.404  1.00  0.00     0.085 A 
HETATM    6  C   UNL     1      62.192   9.094   2.198  1.00  0.00     0.015 A 
HETATM    7  C   UNL     1      62.149  11.283   4.011  1.00  0.00     0.038 A 
HETATM    8  C   UNL     1      61.823  10.380   1.775  1.00  0.00     0.001 A 
HETATM    9  C   UNL     1      61.806  11.456   2.667  1.00  0.00     0.003 A 
ENDROOT
BRANCH   1  10
HETATM   10  C   UNL     1      63.166   6.381   3.903  1.00  0.00     0.154 C 
BRANCH  10  11
HETATM   11  C   UNL     1      64.426   6.228   3.088  1.00  0.00     0.177 C 
HETATM   12  O   UNL     1      65.574   6.453   3.439  1.00  0.00    -0.648 OA
HETATM   13  O   UNL     1      64.177   5.851   1.817  1.00  0.00    -0.648 OA
ENDBRANCH  10  11
ENDBRANCH   1  10
TORSDOF 2
ENDMDL
MODEL 9
REMARK VINA RESULT:      -4.7      2.258      3.136
REMARK  2 active torsions:
REMARK  status: ('A' for Active; 'I' for Inactive)
REMARK    1  A    between atoms: C_1  and  C_5 
REMARK    2  A    between atoms: C_5  and  C_6 
ROOT
HETATM    1  C   UNL     1      61.634   7.177   3.925  1.00  0.00    -0.013 A 
HETATM    2  C   UNL     1      61.700   6.395   2.788  1.00  0.00     0.151 A 
HETATM    3  O   UNL     1      61.817   7.159   1.675  1.00  0.00    -0.321 OA
HETATM    4  C   UNL     1      61.751   8.527   3.469  1.00  0.00     0.006 A 
HETATM    5  C   UNL     1      61.849   8.457   2.084  1.00  0.00     0.085 A 
HETATM    6  C   UNL     1      61.783   9.798   4.075  1.00  0.00     0.015 A 
HETATM    7  C   UNL     1      61.965   9.565   1.248  1.00  0.00     0.038 A 
HETATM    8  C   UNL     1      61.913  10.933   3.260  1.00  0.00     0.001 A 
HETATM    9  C   UNL     1      61.998  10.817   1.870  1.00  0.00     0.003 A 
ENDROOT
BRANCH   1  10
HETATM   10  C   UNL     1      61.490   6.708   5.333  1.00  0.00     0.154 C 
BRANCH  10  11
HETATM   11  C   UNL     1      62.707   7.028   6.164  1.00  0.00     0.177 C 
HETATM   12  O   UNL     1      62.838   7.926   6.981  1.00  0.00    -0.648 OA
HETATM   13  O   UNL     1      63.754   6.225   5.879  1.00  0.00    -0.648 OA
ENDBRANCH  10  11
ENDBRANCH   1  10
TORSDOF 2
ENDMDL
