MODEL 1
REMARK VINA RESULT:      -5.5      0.000      0.000
REMARK  4 active torsions:
REMARK  status: ('A' for Active; 'I' for Inactive)
REMARK    1  A    between atoms: N_1  and  C_2 
REMARK    2  A    between atoms: C_2  and  C_4 
REMARK    3  A    between atoms: C_6  and  C_14 
REMARK    4  A    between atoms: O_9  and  C_14 
ROOT
HETATM    1  C   UNL     1      64.071   7.982   4.454  1.00  0.00    -0.032 A 
HETATM    2  C   UNL     1      64.045   9.153   5.230  1.00  0.00     0.018 A 
HETATM    3  C   UNL     1      63.131  10.183   4.961  1.00  0.00    -0.034 A 
HETATM    4  C   UNL     1      62.323   8.928   3.056  1.00  0.00     0.001 A 
HETATM    5  C   UNL     1      63.204   7.885   3.358  1.00  0.00     0.009 A 
HETATM    6  C   UNL     1      62.274  10.065   3.860  1.00  0.00     0.009 A 
ENDROOT
BRANCH   1   7
HETATM    7  C   UNL     1      64.921   6.808   4.884  1.00  0.00     0.273 C 
BRANCH   7   8
HETATM    8  N   UNL     1      65.877   6.979   5.972  1.00  0.00    -0.063 N 
HETATM    9  C   UNL     1      67.270   6.621   5.685  1.00  0.00     0.261 C 
HETATM   10  C   UNL     1      67.645   5.180   6.063  1.00  0.00     0.195 C 
HETATM   11  O   UNL     1      67.317   4.904   7.431  1.00  0.00    -0.388 OA
HETATM   12  C   UNL     1      65.910   5.075   7.641  1.00  0.00     0.195 C 
HETATM   13  C   UNL     1      65.453   6.498   7.291  1.00  0.00     0.261 C 
HETATM   14  H   UNL     1      65.867   7.997   6.036  1.00  0.00     0.280 HD
ENDBRANCH   7   8
ENDBRANCH   1   7
BRANCH   3  15
HETATM   15  C   UNL     1      63.022  11.349   5.906  1.00  0.00     0.202 C 
BRANCH  15  16
HETATM   16  O   UNL     1      64.292  11.615   6.491  1.00  0.00    -0.396 OA
HETATM   17  H   UNL     1      64.993  11.368   5.868  1.00  0.00     0.209 HD
ENDBRANCH  15  16
ENDBRANCH   3  15
TORSDOF 4
ENDMDL
MODEL 2
REMARK VINA RESULT:      -5.2      2.085      2.767
REMARK  4 active torsions:
REMARK  status: ('A' for Active; 'I' for Inactive)
REMARK    1  A    between atoms: N_1  and  C_2 
REMARK    2  A    between atoms: C_2  and  C_4 
REMARK    3  A    between atoms: C_6  and  C_14 
REMARK    4  A    between atoms: O_9  and  C_14 
ROOT
HETATM    1  C   UNL     1      63.710   8.718   4.381  1.00  0.00    -0.032 A 
HETATM    2  C   UNL     1      63.040   8.510   3.164  1.00  0.00     0.018 A 
HETATM    3  C   UNL     1      62.127   9.452   2.666  1.00  0.00    -0.034 A 
HETATM    4  C   UNL     1      62.459  10.784   4.659  1.00  0.00     0.001 A 
HETATM    5  C   UNL     1      63.402   9.864   5.127  1.00  0.00     0.009 A 
HETATM    6  C   UNL     1      61.835  10.589   3.428  1.00  0.00     0.009 A 
ENDROOT
BRANCH   1   7
HETATM    7  C   UNL     1      64.830   7.793   4.796  1.00  0.00     0.273 C 
BRANCH   7   8
HETATM    8  N   UNL     1      65.220   7.728   6.200  1.00  0.00    -0.063 N 
HETATM    9  C   UNL     1      66.632   7.985   6.502  1.00  0.00     0.261 C 
HETATM   10  C   UNL     1      67.504   6.723   6.575  1.00  0.00     0.195 C 
HETATM   11  O   UNL     1      66.951   5.766   7.488  1.00  0.00    -0.388 OA
HETATM   12  C   UNL     1      65.638   5.384   7.061  1.00  0.00     0.195 C 
HETATM   13  C   UNL     1      64.698   6.594   6.968  1.00  0.00     0.261 C 
HETATM   14  H   UNL     1      64.717   8.546   6.543  1.00  0.00     0.280 HD
ENDBRANCH   7   8
ENDBRANCH   1   7
BRANCH   3  15
HETATM   15  C   UNL     1      61.550   9.275   1.287  1.00  0.00     0.202 C 
BRANCH  15  16
HETATM   16  O   UNL     1      60.182   8.890   1.384  1.00  0.00    -0.396 OA
HETATM   17  H   UNL     1      59.708   9.177   0.588  1.00  0.00     0.209 HD
ENDBRANCH  15  16
ENDBRANCH   3  15
TORSDOF 4
ENDMDL
MODEL 3
REMARK VINA RESULT:      -5.2      1.931      2.592
REMARK  4 active torsions:
REMARK  status: ('A' for Active; 'I' for Inactive)
REMARK    1  A    between atoms: N_1  and  C_2 
REMARK    2  A    between atoms: C_2  and  C_4 
REMARK    3  A    between atoms: C_6  and  C_14 
REMARK    4  A    between atoms: O_9  and  C_14 
ROOT
HETATM    1  C   UNL     1      62.823   8.080   3.555  1.00  0.00    -0.032 A 
HETATM    2  C   UNL     1      62.593   9.464   3.626  1.00  0.00     0.018 A 
HETATM    3  C   UNL     1      62.139  10.184   2.511  1.00  0.00    -0.034 A 
HETATM    4  C   UNL     1      62.241   8.154   1.196  1.00  0.00     0.001 A 
HETATM    5  C   UNL     1      62.649   7.435   2.324  1.00  0.00     0.009 A 
HETATM    6  C   UNL     1      61.972   9.518   1.291  1.00  0.00     0.009 A 
ENDROOT
BRANCH   1   7
HETATM    7  C   UNL     1      63.118   7.296   4.813  1.00  0.00     0.273 C 
BRANCH   7   8
HETATM    8  N   UNL     1      64.407   6.629   4.954  1.00  0.00    -0.063 N 
HETATM    9  C   UNL     1      64.594   5.810   6.157  1.00  0.00     0.261 C 
HETATM   10  C   UNL     1      65.255   6.549   7.330  1.00  0.00     0.195 C 
HETATM   11  O   UNL     1      66.489   7.156   6.927  1.00  0.00    -0.388 OA
HETATM   12  C   UNL     1      66.250   8.099   5.876  1.00  0.00     0.195 C 
HETATM   13  C   UNL     1      65.593   7.437   4.657  1.00  0.00     0.261 C 
HETATM   14  H   UNL     1      64.327   5.964   4.185  1.00  0.00     0.280 HD
ENDBRANCH   7   8
ENDBRANCH   1   7
BRANCH   3  15
HETATM   15  C   UNL     1      61.750  11.630   2.664  1.00  0.00     0.202 C 
BRANCH  15  16
HETATM   16  O   UNL     1      62.035  12.067   3.988  1.00  0.00    -0.396 OA
HETATM   17  H   UNL     1      62.104  13.035   4.002  1.00  0.00     0.209 HD
ENDBRANCH  15  16
ENDBRANCH   3  15
TORSDOF 4
ENDMDL
MODEL 4
REMARK VINA RESULT:      -5.0      2.649      3.463
REMARK  4 active torsions:
REMARK  status: ('A' for Active; 'I' for Inactive)
REMARK    1  A    between atoms: N_1  and  C_2 
REMARK    2  A    between atoms: C_2  and  C_4 
REMARK    3  A    between atoms: C_6  and  C_14 
REMARK    4  A    between atoms: O_9  and  C_14 
ROOT
HETATM    1  C   UNL     1      63.388   9.156   4.672  1.00  0.00    -0.032 A 
HETATM    2  C   UNL     1      62.899   8.796   3.406  1.00  0.00     0.018 A 
HETATM    3  C   UNL     1      62.127   9.686   2.644  1.00  0.00    -0.034 A 
HETATM    4  C   UNL     1      62.230  11.283   4.460  1.00  0.00     0.001 A 
HETATM    5  C   UNL     1      63.038  10.409   5.194  1.00  0.00     0.009 A 
HETATM    6  C   UNL     1      61.789  10.932   3.185  1.00  0.00     0.009 A 
ENDROOT
BRANCH   1   7
HETATM    7  C   UNL     1      64.379   8.263   5.383  1.00  0.00     0.273 C 
BRANCH   7   8
HETATM    8  N   UNL     1      63.933   7.467   6.521  1.00  0.00    -0.063 N 
HETATM    9  C   UNL     1      64.812   6.368   6.937  1.00  0.00     0.261 C 
HETATM   10  C   UNL     1      64.467   5.009   6.310  1.00  0.00     0.195 C 
HETATM   11  O   UNL     1      63.091   4.675   6.529  1.00  0.00    -0.388 OA
HETATM   12  C   UNL     1      62.245   5.671   5.942  1.00  0.00     0.195 C 
HETATM   13  C   UNL     1      62.524   7.064   6.521  1.00  0.00     0.261 C 
HETATM   14  H   UNL     1      64.018   8.172   7.253  1.00  0.00     0.280 HD
ENDBRANCH   7   8
ENDBRANCH   1   7
BRANCH   3  15
HETATM   15  C   UNL     1      61.755   9.329   1.230  1.00  0.00     0.202 C 
BRANCH  15  16
HETATM   16  O   UNL     1      60.368   9.014   1.162  1.00  0.00    -0.396 OA
HETATM   17  H   UNL     1      60.254   8.051   1.195  1.00  0.00     0.209 HD
ENDBRANCH  15  16
ENDBRANCH   3  15
TORSDOF 4
ENDMDL
MODEL 5
REMARK VINA RESULT:      -5.0      0.930      1.550
REMARK  4 active torsions:
REMARK  status: ('A' for Active; 'I' for Inactive)
REMARK    1  A    between atoms: N_1  and  C_2 
REMARK    2  A    between atoms: C_2  and  C_4 
REMARK    3  A    between atoms: C_6  and  C_14 
REMARK    4  A    between atoms: O_9  and  C_14 
ROOT
HETATM    1  C   UNL     1      64.954   7.832   4.708  1.00  0.00    -0.032 A 
HETATM    2  C   UNL     1      64.680   9.079   5.294  1.00  0.00     0.018 A 
HETATM    3  C   UNL     1      63.481   9.759   5.028  1.00  0.00    -0.034 A 
HETATM    4  C   UNL     1      62.856   7.995   3.493  1.00  0.00     0.001 A 
HETATM    5  C   UNL     1      64.031   7.302   3.798  1.00  0.00     0.009 A 
HETATM    6  C   UNL     1      62.573   9.210   4.115  1.00  0.00     0.009 A 
ENDROOT
BRANCH   1   7
HETATM    7  C   UNL     1      66.153   7.030   5.162  1.00  0.00     0.273 C 
BRANCH   7   8
HETATM    8  N   UNL     1      65.965   5.944   6.117  1.00  0.00    -0.063 N 
HETATM    9  C   UNL     1      65.450   6.315   7.440  1.00  0.00     0.261 C 
HETATM   10  C   UNL     1      66.537   6.572   8.494  1.00  0.00     0.195 C 
HETATM   11  O   UNL     1      67.437   5.460   8.588  1.00  0.00    -0.388 OA
HETATM   12  C   UNL     1      68.075   5.238   7.325  1.00  0.00     0.195 C 
HETATM   13  C   UNL     1      67.053   4.967   6.213  1.00  0.00     0.261 C 
HETATM   14  H   UNL     1      65.197   5.457   5.656  1.00  0.00     0.280 HD
ENDBRANCH   7   8
ENDBRANCH   1   7
BRANCH   3  15
HETATM   15  C   UNL     1      63.149  11.012   5.793  1.00  0.00     0.202 C 
BRANCH  15  16
HETATM   16  O   UNL     1      64.316  11.502   6.444  1.00  0.00    -0.396 OA
HETATM   17  H   UNL     1      64.241  12.462   6.565  1.00  0.00     0.209 HD
ENDBRANCH  15  16
ENDBRANCH   3  15
TORSDOF 4
ENDMDL
MODEL 6
REMARK VINA RESULT:      -4.9      3.596      5.962
REMARK  4 active torsions:
REMARK  status: ('A' for Active; 'I' for Inactive)
REMARK    1  A    between atoms: N_1  and  C_2 
REMARK    2  A    between atoms: C_2  and  C_4 
REMARK    3  A    between atoms: C_6  and  C_14 
REMARK    4  A    between atoms: O_9  and  C_14 
ROOT
HETATM    1  C   UNL     1      62.412   8.342   3.349  1.00  0.00    -0.032 A 
HETATM    2  C   UNL     1      62.274   9.485   4.154  1.00  0.00     0.018 A 
HETATM    3  C   UNL     1      63.267   9.849   5.077  1.00  0.00    -0.034 A 
HETATM    4  C   UNL     1      64.511   7.861   4.476  1.00  0.00     0.001 A 
HETATM    5  C   UNL     1      63.540   7.530   3.527  1.00  0.00     0.009 A 
HETATM    6  C   UNL     1      64.385   9.022   5.237  1.00  0.00     0.009 A 
ENDROOT
BRANCH   1   7
HETATM    7  C   UNL     1      61.431   8.083   2.228  1.00  0.00     0.273 C 
BRANCH   7   8
HETATM    8  N   UNL     1      60.481   6.983   2.351  1.00  0.00    -0.063 N 
HETATM    9  C   UNL     1      59.615   6.732   1.194  1.00  0.00     0.261 C 
HETATM   10  C   UNL     1      58.253   7.439   1.256  1.00  0.00     0.195 C 
HETATM   11  O   UNL     1      57.572   7.139   2.480  1.00  0.00    -0.388 OA
HETATM   12  C   UNL     1      58.357   7.572   3.597  1.00  0.00     0.195 C 
HETATM   13  C   UNL     1      59.738   6.903   3.613  1.00  0.00     0.261 C 
HETATM   14  H   UNL     1      61.139   6.205   2.370  1.00  0.00     0.280 HD
ENDBRANCH   7   8
ENDBRANCH   1   7
BRANCH   3  15
HETATM   15  C   UNL     1      63.162  11.161   5.807  1.00  0.00     0.202 C 
BRANCH  15  16
HETATM   16  O   UNL     1      64.398  11.453   6.450  1.00  0.00    -0.396 OA
HETATM   17  H   UNL     1      64.610  12.392   6.333  1.00  0.00     0.209 HD
ENDBRANCH  15  16
ENDBRANCH   3  15
TORSDOF 4
ENDMDL
MODEL 7
REMARK VINA RESULT:      -4.8      4.153      5.653
REMARK  4 active torsions:
REMARK  status: ('A' for Active; 'I' for Inactive)
REMARK    1  A    between atoms: N_1  and  C_2 
REMARK    2  A    between atoms: C_2  and  C_4 
REMARK    3  A    between atoms: C_6  and  C_14 
REMARK    4  A    between atoms: O_9  and  C_14 
ROOT
HETATM    1  C   UNL     1      62.372   9.105   2.584  1.00  0.00    -0.032 A 
HETATM    2  C   UNL     1      62.760   9.404   3.900  1.00  0.00     0.018 A 
HETATM    3  C   UNL     1      62.576  10.687   4.439  1.00  0.00    -0.034 A 
HETATM    4  C   UNL     1      61.705  11.425   2.305  1.00  0.00     0.001 A 
HETATM    5  C   UNL     1      61.849  10.133   1.790  1.00  0.00     0.009 A 
HETATM    6  C   UNL     1      62.051  11.699   3.627  1.00  0.00     0.009 A 
ENDROOT
BRANCH   1   7
HETATM    7  C   UNL     1      62.396   7.675   2.095  1.00  0.00     0.273 C 
BRANCH   7   8
HETATM    8  N   UNL     1      61.287   6.787   2.429  1.00  0.00    -0.063 N 
HETATM    9  C   UNL     1      61.217   5.520   1.693  1.00  0.00     0.261 C 
HETATM   10  C   UNL     1      60.330   5.565   0.440  1.00  0.00     0.195 C 
HETATM   11  O   UNL     1      59.018   6.049   0.753  1.00  0.00    -0.388 OA
HETATM   12  C   UNL     1      59.101   7.372   1.295  1.00  0.00     0.195 C 
HETATM   13  C   UNL     1      59.969   7.414   2.560  1.00  0.00     0.261 C 
HETATM   14  H   UNL     1      61.566   6.534   3.377  1.00  0.00     0.280 HD
ENDBRANCH   7   8
ENDBRANCH   1   7
BRANCH   3  15
HETATM   15  C   UNL     1      62.854  10.931   5.898  1.00  0.00     0.202 C 
BRANCH  15  16
HETATM   16  O   UNL     1      64.204  11.353   6.066  1.00  0.00    -0.396 OA
HETATM   17  H   UNL     1      64.233  12.108   6.674  1.00  0.00     0.209 HD
ENDBRANCH  15  16
ENDBRANCH   3  15
TORSDOF 4
ENDMDL
MODEL 8
REMARK VINA RESULT:      -4.6      4.596      5.530
REMARK  4 active torsions:
REMARK  status: ('A' for Active; 'I' for Inactive)
REMARK    1  A    between atoms: N_1  and  C_2 
REMARK    2  A    between atoms: C_2  and  C_4 
REMARK    3  A    between atoms: C_6  and  C_14 
REMARK    4  A    between atoms: O_9  and  C_14 
ROOT
HETATM    1  C   UNL     1      61.622   5.168   6.542  1.00  0.00    -0.032 A 
HETATM    2  C   UNL     1      60.539   5.937   6.998  1.00  0.00     0.018 A 
HETATM    3  C   UNL     1      59.568   5.392   7.852  1.00  0.00    -0.034 A 
HETATM    4  C   UNL     1      60.695   3.254   7.720  1.00  0.00     0.001 A 
HETATM    5  C   UNL     1      61.684   3.816   6.907  1.00  0.00     0.009 A 
HETATM    6  C   UNL     1      59.650   4.040   8.203  1.00  0.00     0.009 A 
ENDROOT
BRANCH   1   7
HETATM    7  C   UNL     1      62.756   5.827   5.791  1.00  0.00     0.273 C 
BRANCH   7   8
HETATM    8  N   UNL     1      63.377   7.025   6.344  1.00  0.00    -0.063 N 
HETATM    9  C   UNL     1      63.050   8.296   5.688  1.00  0.00     0.261 C 
HETATM   10  C   UNL     1      64.044   8.721   4.598  1.00  0.00     0.195 C 
HETATM   11  O   UNL     1      65.386   8.735   5.101  1.00  0.00    -0.388 OA
HETATM   12  C   UNL     1      65.751   7.429   5.561  1.00  0.00     0.195 C 
HETATM   13  C   UNL     1      64.805   6.930   6.662  1.00  0.00     0.261 C 
HETATM   14  H   UNL     1      62.897   7.054   7.243  1.00  0.00     0.280 HD
ENDBRANCH   7   8
ENDBRANCH   1   7
BRANCH   3  15
HETATM   15  C   UNL     1      58.513   6.285   8.448  1.00  0.00     0.202 C 
BRANCH  15  16
HETATM   16  O   UNL     1      58.616   6.268   9.868  1.00  0.00    -0.396 OA
HETATM   17  H   UNL     1      57.728   6.222  10.256  1.00  0.00     0.209 HD
ENDBRANCH  15  16
ENDBRANCH   3  15
TORSDOF 4
ENDMDL
MODEL 9
REMARK VINA RESULT:      -4.5      3.530      4.173
REMARK  4 active torsions:
REMARK  status: ('A' for Active; 'I' for Inactive)
REMARK    1  A    between atoms: N_1  and  C_2 
REMARK    2  A    between atoms: C_2  and  C_4 
REMARK    3  A    between atoms: C_6  and  C_14 
REMARK    4  A    between atoms: O_9  and  C_14 
ROOT
HETATM    1  C   UNL     1      62.606   7.834   3.132  1.00  0.00    -0.032 A 
HETATM    2  C   UNL     1      62.402   9.221   3.217  1.00  0.00     0.018 A 
HETATM    3  C   UNL     1      62.124   9.986   2.074  1.00  0.00    -0.034 A 
HETATM    4  C   UNL     1      62.358   7.994   0.719  1.00  0.00     0.001 A 
HETATM    5  C   UNL     1      62.588   7.230   1.868  1.00  0.00     0.009 A 
HETATM    6  C   UNL     1      62.112   9.362   0.821  1.00  0.00     0.009 A 
ENDROOT
BRANCH   1   7
HETATM    7  C   UNL     1      62.703   7.005   4.392  1.00  0.00     0.273 C 
BRANCH   7   8
HETATM    8  N   UNL     1      61.759   5.913   4.604  1.00  0.00    -0.063 N 
HETATM    9  C   UNL     1      60.549   6.231   5.368  1.00  0.00     0.261 C 
HETATM   10  C   UNL     1      60.657   5.949   6.874  1.00  0.00     0.195 C 
HETATM   11  O   UNL     1      61.076   4.600   7.116  1.00  0.00    -0.388 OA
HETATM   12  C   UNL     1      62.358   4.370   6.520  1.00  0.00     0.195 C 
HETATM   13  C   UNL     1      62.333   4.626   5.006  1.00  0.00     0.261 C 
HETATM   14  H   UNL     1      61.445   5.785   3.642  1.00  0.00     0.280 HD
ENDBRANCH   7   8
ENDBRANCH   1   7
BRANCH   3  15
HETATM   15  C   UNL     1      61.754  11.438   2.220  1.00  0.00     0.202 C 
BRANCH  15  16
HETATM   16  O   UNL     1      61.931  11.846   3.572  1.00  0.00    -0.396 OA
HETATM   17  H   UNL     1      61.072  11.848   4.024  1.00  0.00     0.209 HD
ENDBRANCH  15  16
ENDBRANCH   3  15
TORSDOF 4
ENDMDL
