MODEL 1
REMARK VINA RESULT:      -5.1      0.000      0.000
REMARK  3 active torsions:
REMARK  status: ('A' for Active; 'I' for Inactive)
REMARK    1  A    between atoms: C_1  and  C_4 
REMARK    2  A    between atoms: C_9  and  C_13 
REMARK    3  A    between atoms: O_11  and  C_13 
ROOT
HETATM    1  C   UNL     1      64.910   7.628   4.905  1.00  0.00    -0.025 A 
HETATM    2  C   UNL     1      64.367   7.049   3.743  1.00  0.00     0.013 A 
HETATM    3  C   UNL     1      64.363   8.855   5.319  1.00  0.00     0.013 A 
HETATM    4  C   UNL     1      63.325   7.660   3.034  1.00  0.00     0.010 A 
HETATM    5  C   UNL     1      63.330   9.476   4.606  1.00  0.00     0.010 A 
HETATM    6  C   UNL     1      62.799   8.882   3.457  1.00  0.00    -0.035 A 
ENDROOT
BRANCH   1   7
HETATM    7  C   UNL     1      66.003   6.972   5.660  1.00  0.00    -0.011 A 
HETATM    8  C   UNL     1      66.505   7.496   6.855  1.00  0.00     0.099 A 
HETATM    9  N   UNL     1      67.490   6.938   7.607  1.00  0.00    -0.374 N 
HETATM   10  C   UNL     1      68.023   5.790   7.147  1.00  0.00     0.087 A 
ATOM     11  HN  UNL     1      67.808   7.367   8.475  1.00  0.00     0.164 HD
HETATM   12  C   UNL     1      67.621   5.182   5.972  1.00  0.00     0.018 A 
HETATM   13  C   UNL     1      66.601   5.778   5.231  1.00  0.00     0.015 A 
ENDBRANCH   1   7
BRANCH   6  14
HETATM   14  C   UNL     1      61.692   9.558   2.693  1.00  0.00     0.202 C 
BRANCH  14  15
HETATM   15  O   UNL     1      61.216  10.694   3.404  1.00  0.00    -0.396 OA
HETATM   16  H   UNL     1      60.946  11.379   2.773  1.00  0.00     0.209 HD
ENDBRANCH  14  15
ENDBRANCH   6  14
TORSDOF 3
ENDMDL
MODEL 2
REMARK VINA RESULT:      -5.0      3.484      5.878
REMARK  3 active torsions:
REMARK  status: ('A' for Active; 'I' for Inactive)
REMARK    1  A    between atoms: C_1  and  C_4 
REMARK    2  A    between atoms: C_9  and  C_13 
REMARK    3  A    between atoms: O_11  and  C_13 
ROOT
HETATM    1  C   UNL     1      63.845   8.130   4.797  1.00  0.00    -0.025 A 
HETATM    2  C   UNL     1      63.327   7.096   5.598  1.00  0.00     0.013 A 
HETATM    3  C   UNL     1      65.163   8.541   5.064  1.00  0.00     0.013 A 
HETATM    4  C   UNL     1      64.087   6.497   6.610  1.00  0.00     0.010 A 
HETATM    5  C   UNL     1      65.923   7.953   6.082  1.00  0.00     0.010 A 
HETATM    6  C   UNL     1      65.392   6.922   6.863  1.00  0.00    -0.035 A 
ENDROOT
BRANCH   1   7
HETATM    7  C   UNL     1      63.042   8.753   3.719  1.00  0.00    -0.011 A 
HETATM    8  C   UNL     1      62.372   9.968   3.892  1.00  0.00     0.099 A 
HETATM    9  N   UNL     1      61.637  10.604   2.942  1.00  0.00    -0.374 N 
HETATM   10  C   UNL     1      61.548   9.999   1.742  1.00  0.00     0.087 A 
ATOM     11  HN  UNL     1      61.177  11.494   3.129  1.00  0.00     0.164 HD
HETATM   12  C   UNL     1      62.153   8.789   1.454  1.00  0.00     0.018 A 
HETATM   13  C   UNL     1      62.909   8.170   2.450  1.00  0.00     0.015 A 
ENDBRANCH   1   7
BRANCH   6  14
HETATM   14  C   UNL     1      66.214   6.299   7.960  1.00  0.00     0.202 C 
BRANCH  14  15
HETATM   15  O   UNL     1      67.295   7.149   8.320  1.00  0.00    -0.396 OA
HETATM   16  H   UNL     1      67.680   7.538   7.519  1.00  0.00     0.209 HD
ENDBRANCH  14  15
ENDBRANCH   6  14
TORSDOF 3
ENDMDL
MODEL 3
REMARK VINA RESULT:      -5.0      1.553      2.059
REMARK  3 active torsions:
REMARK  status: ('A' for Active; 'I' for Inactive)
REMARK    1  A    between atoms: C_1  and  C_4 
REMARK    2  A    between atoms: C_9  and  C_13 
REMARK    3  A    between atoms: O_11  and  C_13 
ROOT
HETATM    1  C   UNL     1      64.117   8.060   4.697  1.00  0.00    -0.025 A 
HETATM    2  C   UNL     1      63.367   9.248   4.760  1.00  0.00     0.013 A 
HETATM    3  C   UNL     1      63.959   7.269   3.545  1.00  0.00     0.013 A 
HETATM    4  C   UNL     1      62.508   9.633   3.723  1.00  0.00     0.010 A 
HETATM    5  C   UNL     1      63.092   7.644   2.511  1.00  0.00     0.010 A 
HETATM    6  C   UNL     1      62.360   8.832   2.589  1.00  0.00    -0.035 A 
ENDROOT
BRANCH   1   7
HETATM    7  C   UNL     1      65.034   7.663   5.790  1.00  0.00    -0.011 A 
HETATM    8  C   UNL     1      66.249   8.315   6.021  1.00  0.00     0.099 A 
HETATM    9  N   UNL     1      67.126   8.017   7.015  1.00  0.00    -0.374 N 
HETATM   10  C   UNL     1      66.790   7.000   7.832  1.00  0.00     0.087 A 
ATOM     11  HN  UNL     1      67.995   8.536   7.136  1.00  0.00     0.164 HD
HETATM   12  C   UNL     1      65.624   6.269   7.696  1.00  0.00     0.018 A 
HETATM   13  C   UNL     1      64.742   6.611   6.670  1.00  0.00     0.015 A 
ENDBRANCH   1   7
BRANCH   6  14
HETATM   14  C   UNL     1      61.426   9.225   1.476  1.00  0.00     0.202 C 
BRANCH  14  15
HETATM   15  O   UNL     1      60.123   8.707   1.710  1.00  0.00    -0.396 OA
HETATM   16  H   UNL     1      59.477   9.429   1.677  1.00  0.00     0.209 HD
ENDBRANCH  14  15
ENDBRANCH   6  14
TORSDOF 3
ENDMDL
MODEL 4
REMARK VINA RESULT:      -4.9      3.442      6.030
REMARK  3 active torsions:
REMARK  status: ('A' for Active; 'I' for Inactive)
REMARK    1  A    between atoms: C_1  and  C_4 
REMARK    2  A    between atoms: C_9  and  C_13 
REMARK    3  A    between atoms: O_11  and  C_13 
ROOT
HETATM    1  C   UNL     1      63.362   7.963   3.468  1.00  0.00    -0.025 A 
HETATM    2  C   UNL     1      64.297   6.916   3.370  1.00  0.00     0.013 A 
HETATM    3  C   UNL     1      63.605   8.943   4.447  1.00  0.00     0.013 A 
HETATM    4  C   UNL     1      65.423   6.854   4.201  1.00  0.00     0.010 A 
HETATM    5  C   UNL     1      64.722   8.878   5.289  1.00  0.00     0.010 A 
HETATM    6  C   UNL     1      65.644   7.834   5.171  1.00  0.00    -0.035 A 
ENDROOT
BRANCH   1   7
HETATM    7  C   UNL     1      62.179   8.032   2.579  1.00  0.00    -0.011 A 
HETATM    8  C   UNL     1      60.872   8.063   3.073  1.00  0.00     0.099 A 
HETATM    9  N   UNL     1      59.746   8.147   2.317  1.00  0.00    -0.374 N 
HETATM   10  C   UNL     1      59.917   8.194   0.982  1.00  0.00     0.087 A 
ATOM     11  HN  UNL     1      58.819   8.173   2.740  1.00  0.00     0.164 HD
HETATM   12  C   UNL     1      61.158   8.156   0.373  1.00  0.00     0.018 A 
HETATM   13  C   UNL     1      62.293   8.080   1.182  1.00  0.00     0.015 A 
ENDBRANCH   1   7
BRANCH   6  14
HETATM   14  C   UNL     1      66.840   7.769   6.083  1.00  0.00     0.202 C 
BRANCH  14  15
HETATM   15  O   UNL     1      66.858   8.885   6.963  1.00  0.00    -0.396 OA
HETATM   16  H   UNL     1      67.149   8.598   7.843  1.00  0.00     0.209 HD
ENDBRANCH  14  15
ENDBRANCH   6  14
TORSDOF 3
ENDMDL
MODEL 5
REMARK VINA RESULT:      -4.9      3.482      6.036
REMARK  3 active torsions:
REMARK  status: ('A' for Active; 'I' for Inactive)
REMARK    1  A    between atoms: C_1  and  C_4 
REMARK    2  A    between atoms: C_9  and  C_13 
REMARK    3  A    between atoms: O_11  and  C_13 
ROOT
HETATM    1  C   UNL     1      64.180   8.115   5.340  1.00  0.00    -0.025 A 
HETATM    2  C   UNL     1      65.573   8.258   5.482  1.00  0.00     0.013 A 
HETATM    3  C   UNL     1      63.597   6.969   5.912  1.00  0.00     0.013 A 
HETATM    4  C   UNL     1      66.344   7.310   6.166  1.00  0.00     0.010 A 
HETATM    5  C   UNL     1      64.367   6.013   6.585  1.00  0.00     0.010 A 
HETATM    6  C   UNL     1      65.749   6.176   6.721  1.00  0.00    -0.035 A 
ENDROOT
BRANCH   1   7
HETATM    7  C   UNL     1      63.365   9.125   4.628  1.00  0.00    -0.011 A 
HETATM    8  C   UNL     1      62.855   8.906   3.345  1.00  0.00     0.099 A 
HETATM    9  N   UNL     1      62.086   9.779   2.644  1.00  0.00    -0.374 N 
HETATM   10  C   UNL     1      61.805  10.953   3.242  1.00  0.00     0.087 A 
ATOM     11  HN  UNL     1      61.738   9.557   1.711  1.00  0.00     0.164 HD
HETATM   12  C   UNL     1      62.263  11.292   4.502  1.00  0.00     0.018 A 
HETATM   13  C   UNL     1      63.042  10.366   5.197  1.00  0.00     0.015 A 
ENDBRANCH   1   7
BRANCH   6  14
HETATM   14  C   UNL     1      66.570   5.140   7.442  1.00  0.00     0.202 C 
BRANCH  14  15
HETATM   15  O   UNL     1      66.104   4.973   8.775  1.00  0.00    -0.396 OA
HETATM   16  H   UNL     1      65.452   5.661   8.978  1.00  0.00     0.209 HD
ENDBRANCH  14  15
ENDBRANCH   6  14
TORSDOF 3
ENDMDL
MODEL 6
REMARK VINA RESULT:      -4.7      0.834      1.819
REMARK  3 active torsions:
REMARK  status: ('A' for Active; 'I' for Inactive)
REMARK    1  A    between atoms: C_1  and  C_4 
REMARK    2  A    between atoms: C_9  and  C_13 
REMARK    3  A    between atoms: O_11  and  C_13 
ROOT
HETATM    1  C   UNL     1      64.771   7.597   4.755  1.00  0.00    -0.025 A 
HETATM    2  C   UNL     1      64.268   8.834   5.197  1.00  0.00     0.013 A 
HETATM    3  C   UNL     1      64.216   7.071   3.574  1.00  0.00     0.013 A 
HETATM    4  C   UNL     1      63.267   9.517   4.493  1.00  0.00     0.010 A 
HETATM    5  C   UNL     1      63.207   7.744   2.874  1.00  0.00     0.010 A 
HETATM    6  C   UNL     1      62.725   8.976   3.326  1.00  0.00    -0.035 A 
ENDROOT
BRANCH   1   7
HETATM    7  C   UNL     1      65.838   6.884   5.494  1.00  0.00    -0.011 A 
HETATM    8  C   UNL     1      66.631   5.899   4.898  1.00  0.00     0.099 A 
HETATM    9  N   UNL     1      67.637   5.222   5.509  1.00  0.00    -0.374 N 
HETATM   10  C   UNL     1      67.875   5.528   6.800  1.00  0.00     0.087 A 
ATOM     11  HN  UNL     1      68.185   4.517   5.017  1.00  0.00     0.164 HD
HETATM   12  C   UNL     1      67.149   6.473   7.502  1.00  0.00     0.018 A 
HETATM   13  C   UNL     1      66.130   7.156   6.838  1.00  0.00     0.015 A 
ENDBRANCH   1   7
BRANCH   6  14
HETATM   14  C   UNL     1      61.636   9.690   2.571  1.00  0.00     0.202 C 
BRANCH  14  15
HETATM   15  O   UNL     1      61.313  10.921   3.205  1.00  0.00    -0.396 OA
HETATM   16  H   UNL     1      61.303  10.796   4.166  1.00  0.00     0.209 HD
ENDBRANCH  14  15
ENDBRANCH   6  14
TORSDOF 3
ENDMDL
MODEL 7
REMARK VINA RESULT:      -4.3      1.697      2.571
REMARK  3 active torsions:
REMARK  status: ('A' for Active; 'I' for Inactive)
REMARK    1  A    between atoms: C_1  and  C_4 
REMARK    2  A    between atoms: C_9  and  C_13 
REMARK    3  A    between atoms: O_11  and  C_13 
ROOT
HETATM    1  C   UNL     1      64.150   7.577   3.659  1.00  0.00    -0.025 A 
HETATM    2  C   UNL     1      63.311   8.683   3.885  1.00  0.00     0.013 A 
HETATM    3  C   UNL     1      63.757   6.676   2.653  1.00  0.00     0.013 A 
HETATM    4  C   UNL     1      62.142   8.885   3.140  1.00  0.00     0.010 A 
HETATM    5  C   UNL     1      62.583   6.868   1.914  1.00  0.00     0.010 A 
HETATM    6  C   UNL     1      61.765   7.977   2.149  1.00  0.00    -0.035 A 
ENDROOT
BRANCH   1   7
HETATM    7  C   UNL     1      65.392   7.373   4.439  1.00  0.00    -0.011 A 
HETATM    8  C   UNL     1      66.439   6.567   3.982  1.00  0.00     0.099 A 
HETATM    9  N   UNL     1      67.611   6.353   4.636  1.00  0.00    -0.374 N 
HETATM   10  C   UNL     1      67.761   6.968   5.825  1.00  0.00     0.087 A 
ATOM     11  HN  UNL     1      68.340   5.756   4.246  1.00  0.00     0.164 HD
HETATM   12  C   UNL     1      66.792   7.778   6.388  1.00  0.00     0.018 A 
HETATM   13  C   UNL     1      65.605   7.983   5.684  1.00  0.00     0.015 A 
ENDBRANCH   1   7
BRANCH   6  14
HETATM   14  C   UNL     1      60.502   8.172   1.355  1.00  0.00     0.202 C 
BRANCH  14  15
HETATM   15  O   UNL     1      59.372   8.222   2.216  1.00  0.00    -0.396 OA
HETATM   16  H   UNL     1      59.233   9.134   2.515  1.00  0.00     0.209 HD
ENDBRANCH  14  15
ENDBRANCH   6  14
TORSDOF 3
ENDMDL
MODEL 8
REMARK VINA RESULT:      -4.3      3.860      6.034
REMARK  3 active torsions:
REMARK  status: ('A' for Active; 'I' for Inactive)
REMARK    1  A    between atoms: C_1  and  C_4 
REMARK    2  A    between atoms: C_9  and  C_13 
REMARK    3  A    between atoms: O_11  and  C_13 
ROOT
HETATM    1  C   UNL     1      62.747   7.440   5.009  1.00  0.00    -0.025 A 
HETATM    2  C   UNL     1      63.191   6.600   6.046  1.00  0.00     0.013 A 
HETATM    3  C   UNL     1      63.680   8.354   4.488  1.00  0.00     0.013 A 
HETATM    4  C   UNL     1      64.502   6.662   6.535  1.00  0.00     0.010 A 
HETATM    5  C   UNL     1      64.989   8.429   4.982  1.00  0.00     0.010 A 
HETATM    6  C   UNL     1      65.413   7.580   6.009  1.00  0.00    -0.035 A 
ENDROOT
BRANCH   1   7
HETATM    7  C   UNL     1      61.364   7.362   4.486  1.00  0.00    -0.011 A 
HETATM    8  C   UNL     1      60.894   8.217   3.484  1.00  0.00     0.099 A 
HETATM    9  N   UNL     1      59.647   8.188   2.945  1.00  0.00    -0.374 N 
HETATM   10  C   UNL     1      58.800   7.260   3.431  1.00  0.00     0.087 A 
ATOM     11  HN  UNL     1      59.366   8.836   2.210  1.00  0.00     0.164 HD
HETATM   12  C   UNL     1      59.143   6.368   4.431  1.00  0.00     0.018 A 
HETATM   13  C   UNL     1      60.436   6.420   4.953  1.00  0.00     0.015 A 
ENDBRANCH   1   7
BRANCH   6  14
HETATM   14  C   UNL     1      66.819   7.670   6.538  1.00  0.00     0.202 C 
BRANCH  14  15
HETATM   15  O   UNL     1      66.987   8.850   7.313  1.00  0.00    -0.396 OA
HETATM   16  H   UNL     1      66.223   8.963   7.900  1.00  0.00     0.209 HD
ENDBRANCH  14  15
ENDBRANCH   6  14
TORSDOF 3
ENDMDL
MODEL 9
REMARK VINA RESULT:      -4.2      2.400      3.174
REMARK  3 active torsions:
REMARK  status: ('A' for Active; 'I' for Inactive)
REMARK    1  A    between atoms: C_1  and  C_4 
REMARK    2  A    between atoms: C_9  and  C_13 
REMARK    3  A    between atoms: O_11  and  C_13 
ROOT
HETATM    1  C   UNL     1      62.806   7.838   4.666  1.00  0.00    -0.025 A 
HETATM    2  C   UNL     1      63.081   9.012   5.390  1.00  0.00     0.013 A 
HETATM    3  C   UNL     1      62.173   7.993   3.419  1.00  0.00     0.013 A 
HETATM    4  C   UNL     1      62.750  10.279   4.893  1.00  0.00     0.010 A 
HETATM    5  C   UNL     1      61.829   9.257   2.924  1.00  0.00     0.010 A 
HETATM    6  C   UNL     1      62.117  10.413   3.656  1.00  0.00    -0.035 A 
ENDROOT
BRANCH   1   7
HETATM    7  C   UNL     1      63.170   6.501   5.188  1.00  0.00    -0.011 A 
HETATM    8  C   UNL     1      64.118   6.326   6.201  1.00  0.00     0.099 A 
HETATM    9  N   UNL     1      64.483   5.133   6.740  1.00  0.00    -0.374 N 
HETATM   10  C   UNL     1      63.882   4.035   6.242  1.00  0.00     0.087 A 
ATOM     11  HN  UNL     1      65.178   5.072   7.483  1.00  0.00     0.164 HD
HETATM   12  C   UNL     1      62.940   4.078   5.230  1.00  0.00     0.018 A 
HETATM   13  C   UNL     1      62.582   5.321   4.708  1.00  0.00     0.015 A 
ENDBRANCH   1   7
BRANCH   6  14
HETATM   14  C   UNL     1      61.738  11.767   3.118  1.00  0.00     0.202 C 
BRANCH  14  15
HETATM   15  O   UNL     1      62.168  11.909   1.771  1.00  0.00    -0.396 OA
HETATM   16  H   UNL     1      61.396  11.906   1.184  1.00  0.00     0.209 HD
ENDBRANCH  14  15
ENDBRANCH   6  14
TORSDOF 3
ENDMDL
