MODEL 1
REMARK VINA RESULT:      -4.6      0.000      0.000
REMARK  2 active torsions:
REMARK  status: ('A' for Active; 'I' for Inactive)
REMARK    1  A    between atoms: C_5  and  C_10 
REMARK    2  A    between atoms: C_10  and  O_11 
ROOT
HETATM    1  N   UNL     1      62.395  10.277   3.540  1.00  0.00    -0.352 N 
HETATM    2  C   UNL     1      62.555   9.095   2.847  1.00  0.00     0.052 A 
HETATM    3  C   UNL     1      63.161   8.192   3.667  1.00  0.00     0.033 A 
HETATM    4  C   UNL     1      63.405   8.823   4.918  1.00  0.00     0.048 A 
HETATM    5  C   UNL     1      62.934  10.122   4.799  1.00  0.00     0.036 A 
HETATM    6  S   UNL     1      63.404   6.661   2.898  1.00  0.00    -0.100 SA
HETATM    7  C   UNL     1      62.265   8.583   1.551  1.00  0.00     0.038 A 
HETATM    8  C   UNL     1      62.688   7.274   1.460  1.00  0.00     0.053 A 
HETATM    9  C   UNL     1      61.775  11.439   2.952  1.00  0.00     0.156 C 
ENDROOT
BRANCH   5  10
HETATM   10  C   UNL     1      62.966  11.206   5.819  1.00  0.00     0.221 C 
BRANCH  10  11
HETATM   11  O   UNL     1      64.314  11.350   6.235  1.00  0.00    -0.395 OA
HETATM   12  H   UNL     1      64.342  11.503   7.192  1.00  0.00     0.209 HD
ENDBRANCH  10  11
ENDBRANCH   5  10
TORSDOF 2
ENDMDL
MODEL 2
REMARK VINA RESULT:      -4.4      1.367      2.178
REMARK  2 active torsions:
REMARK  status: ('A' for Active; 'I' for Inactive)
REMARK    1  A    between atoms: C_5  and  C_10 
REMARK    2  A    between atoms: C_10  and  O_11 
ROOT
HETATM    1  N   UNL     1      63.330   9.075   4.617  1.00  0.00    -0.352 N 
HETATM    2  C   UNL     1      62.934   8.629   3.373  1.00  0.00     0.052 A 
HETATM    3  C   UNL     1      62.175   9.598   2.789  1.00  0.00     0.033 A 
HETATM    4  C   UNL     1      62.077  10.691   3.694  1.00  0.00     0.048 A 
HETATM    5  C   UNL     1      62.790  10.326   4.826  1.00  0.00     0.036 A 
HETATM    6  S   UNL     1      61.628   9.145   1.211  1.00  0.00    -0.100 SA
HETATM    7  C   UNL     1      63.101   7.470   2.564  1.00  0.00     0.038 A 
HETATM    8  C   UNL     1      62.430   7.632   1.371  1.00  0.00     0.053 A 
HETATM    9  C   UNL     1      64.156   8.283   5.495  1.00  0.00     0.156 C 
ENDROOT
BRANCH   5  10
HETATM   10  C   UNL     1      62.984  11.107   6.078  1.00  0.00     0.221 C 
BRANCH  10  11
HETATM   11  O   UNL     1      64.361  11.439   6.156  1.00  0.00    -0.395 OA
HETATM   12  H   UNL     1      64.795  11.218   5.317  1.00  0.00     0.209 HD
ENDBRANCH  10  11
ENDBRANCH   5  10
TORSDOF 2
ENDMDL
MODEL 3
REMARK VINA RESULT:      -4.3      1.303      1.523
REMARK  2 active torsions:
REMARK  status: ('A' for Active; 'I' for Inactive)
REMARK    1  A    between atoms: C_5  and  C_10 
REMARK    2  A    between atoms: C_10  and  O_11 
ROOT
HETATM    1  N   UNL     1      62.760   9.155   3.932  1.00  0.00    -0.352 N 
HETATM    2  C   UNL     1      63.380   7.997   3.512  1.00  0.00     0.052 A 
HETATM    3  C   UNL     1      64.460   7.772   4.312  1.00  0.00     0.033 A 
HETATM    4  C   UNL     1      64.534   8.825   5.264  1.00  0.00     0.048 A 
HETATM    5  C   UNL     1      63.475   9.676   4.988  1.00  0.00     0.036 A 
HETATM    6  S   UNL     1      65.314   6.330   3.878  1.00  0.00    -0.100 SA
HETATM    7  C   UNL     1      63.202   7.008   2.504  1.00  0.00     0.038 A 
HETATM    8  C   UNL     1      64.195   6.057   2.600  1.00  0.00     0.053 A 
HETATM    9  C   UNL     1      61.574   9.671   3.293  1.00  0.00     0.156 C 
ENDROOT
BRANCH   5  10
HETATM   10  C   UNL     1      63.112  10.943   5.681  1.00  0.00     0.221 C 
BRANCH  10  11
HETATM   11  O   UNL     1      64.279  11.410   6.339  1.00  0.00    -0.395 OA
HETATM   12  H   UNL     1      64.263  12.379   6.378  1.00  0.00     0.209 HD
ENDBRANCH  10  11
ENDBRANCH   5  10
TORSDOF 2
ENDMDL
MODEL 4
REMARK VINA RESULT:      -4.0      1.802      2.556
REMARK  2 active torsions:
REMARK  status: ('A' for Active; 'I' for Inactive)
REMARK    1  A    between atoms: C_5  and  C_10 
REMARK    2  A    between atoms: C_10  and  O_11 
ROOT
HETATM    1  N   UNL     1      62.798   8.838   3.037  1.00  0.00    -0.352 N 
HETATM    2  C   UNL     1      63.563   7.901   3.700  1.00  0.00     0.052 A 
HETATM    3  C   UNL     1      63.814   8.361   4.958  1.00  0.00     0.033 A 
HETATM    4  C   UNL     1      63.198   9.636   5.095  1.00  0.00     0.048 A 
HETATM    5  C   UNL     1      62.592   9.910   3.879  1.00  0.00     0.036 A 
HETATM    6  S   UNL     1      64.766   7.254   5.888  1.00  0.00    -0.100 SA
HETATM    7  C   UNL     1      64.139   6.627   3.434  1.00  0.00     0.038 A 
HETATM    8  C   UNL     1      64.822   6.181   4.545  1.00  0.00     0.053 A 
HETATM    9  C   UNL     1      62.353   8.649   1.678  1.00  0.00     0.156 C 
ENDROOT
BRANCH   5  10
HETATM   10  C   UNL     1      61.828  11.126   3.489  1.00  0.00     0.221 C 
BRANCH  10  11
HETATM   11  O   UNL     1      62.141  12.138   4.432  1.00  0.00    -0.395 OA
HETATM   12  H   UNL     1      62.515  11.733   5.230  1.00  0.00     0.209 HD
ENDBRANCH  10  11
ENDBRANCH   5  10
TORSDOF 2
ENDMDL
MODEL 5
REMARK VINA RESULT:      -3.9      1.804      2.863
REMARK  2 active torsions:
REMARK  status: ('A' for Active; 'I' for Inactive)
REMARK    1  A    between atoms: C_5  and  C_10 
REMARK    2  A    between atoms: C_10  and  O_11 
ROOT
HETATM    1  N   UNL     1      62.873   9.928   4.460  1.00  0.00    -0.352 N 
HETATM    2  C   UNL     1      63.317   8.623   4.418  1.00  0.00     0.052 A 
HETATM    3  C   UNL     1      63.017   8.104   3.195  1.00  0.00     0.033 A 
HETATM    4  C   UNL     1      62.352   9.107   2.438  1.00  0.00     0.048 A 
HETATM    5  C   UNL     1      62.263  10.221   3.260  1.00  0.00     0.036 A 
HETATM    6  S   UNL     1      63.539   6.462   3.028  1.00  0.00    -0.100 SA
HETATM    7  C   UNL     1      63.982   7.705   5.279  1.00  0.00     0.038 A 
HETATM    8  C   UNL     1      64.151   6.497   4.635  1.00  0.00     0.053 A 
HETATM    9  C   UNL     1      63.045  10.765   5.622  1.00  0.00     0.156 C 
ENDROOT
BRANCH   5  10
HETATM   10  C   UNL     1      61.638  11.537   2.955  1.00  0.00     0.221 C 
BRANCH  10  11
HETATM   11  O   UNL     1      62.164  11.973   1.712  1.00  0.00    -0.395 OA
HETATM   12  H   UNL     1      63.063  12.312   1.842  1.00  0.00     0.209 HD
ENDBRANCH  10  11
ENDBRANCH   5  10
TORSDOF 2
ENDMDL
MODEL 6
REMARK VINA RESULT:      -3.8      2.386      3.251
REMARK  2 active torsions:
REMARK  status: ('A' for Active; 'I' for Inactive)
REMARK    1  A    between atoms: C_5  and  C_10 
REMARK    2  A    between atoms: C_10  and  O_11 
ROOT
HETATM    1  N   UNL     1      63.599   7.494   3.549  1.00  0.00    -0.352 N 
HETATM    2  C   UNL     1      62.904   8.524   2.950  1.00  0.00     0.052 A 
HETATM    3  C   UNL     1      62.739   9.522   3.863  1.00  0.00     0.033 A 
HETATM    4  C   UNL     1      63.339   9.110   5.084  1.00  0.00     0.048 A 
HETATM    5  C   UNL     1      63.848   7.839   4.860  1.00  0.00     0.036 A 
HETATM    6  S   UNL     1      61.880  10.876   3.212  1.00  0.00    -0.100 SA
HETATM    7  C   UNL     1      62.333   8.814   1.678  1.00  0.00     0.038 A 
HETATM    8  C   UNL     1      61.744  10.060   1.704  1.00  0.00     0.053 A 
HETATM    9  C   UNL     1      63.945   6.284   2.845  1.00  0.00     0.156 C 
ENDROOT
BRANCH   5  10
HETATM   10  C   UNL     1      64.557   6.953   5.822  1.00  0.00     0.221 C 
BRANCH  10  11
HETATM   11  O   UNL     1      64.065   7.260   7.117  1.00  0.00    -0.395 OA
HETATM   12  H   UNL     1      63.673   6.465   7.511  1.00  0.00     0.209 HD
ENDBRANCH  10  11
ENDBRANCH   5  10
TORSDOF 2
ENDMDL
MODEL 7
REMARK VINA RESULT:      -3.8      1.811      2.504
REMARK  2 active torsions:
REMARK  status: ('A' for Active; 'I' for Inactive)
REMARK    1  A    between atoms: C_5  and  C_10 
REMARK    2  A    between atoms: C_10  and  O_11 
ROOT
HETATM    1  N   UNL     1      63.288   9.146   4.465  1.00  0.00    -0.352 N 
HETATM    2  C   UNL     1      62.696   9.070   3.221  1.00  0.00     0.052 A 
HETATM    3  C   UNL     1      63.006   7.864   2.669  1.00  0.00     0.033 A 
HETATM    4  C   UNL     1      63.830   7.155   3.585  1.00  0.00     0.048 A 
HETATM    5  C   UNL     1      64.001   7.987   4.682  1.00  0.00     0.036 A 
HETATM    6  S   UNL     1      62.304   7.656   1.101  1.00  0.00    -0.100 SA
HETATM    7  C   UNL     1      61.876   9.884   2.390  1.00  0.00     0.038 A 
HETATM    8  C   UNL     1      61.605   9.224   1.210  1.00  0.00     0.053 A 
HETATM    9  C   UNL     1      63.147  10.301   5.318  1.00  0.00     0.156 C 
ENDROOT
BRANCH   5  10
HETATM   10  C   UNL     1      64.795   7.729   5.914  1.00  0.00     0.221 C 
BRANCH  10  11
HETATM   11  O   UNL     1      63.887   7.299   6.915  1.00  0.00    -0.395 OA
HETATM   12  H   UNL     1      64.372   7.113   7.734  1.00  0.00     0.209 HD
ENDBRANCH  10  11
ENDBRANCH   5  10
TORSDOF 2
ENDMDL
MODEL 8
REMARK VINA RESULT:      -3.5      3.931      5.100
REMARK  2 active torsions:
REMARK  status: ('A' for Active; 'I' for Inactive)
REMARK    1  A    between atoms: C_5  and  C_10 
REMARK    2  A    between atoms: C_10  and  O_11 
ROOT
HETATM    1  N   UNL     1      64.206   6.903   6.173  1.00  0.00    -0.352 N 
HETATM    2  C   UNL     1      65.209   6.081   6.644  1.00  0.00     0.052 A 
HETATM    3  C   UNL     1      66.407   6.696   6.431  1.00  0.00     0.033 A 
HETATM    4  C   UNL     1      66.158   7.943   5.796  1.00  0.00     0.048 A 
HETATM    5  C   UNL     1      64.784   8.032   5.633  1.00  0.00     0.036 A 
HETATM    6  S   UNL     1      67.743   5.752   6.995  1.00  0.00    -0.100 SA
HETATM    7  C   UNL     1      65.326   4.809   7.271  1.00  0.00     0.038 A 
HETATM    8  C   UNL     1      66.654   4.521   7.504  1.00  0.00     0.053 A 
HETATM    9  C   UNL     1      62.812   6.544   6.254  1.00  0.00     0.156 C 
ENDROOT
BRANCH   5  10
HETATM   10  C   UNL     1      64.004   9.132   5.003  1.00  0.00     0.221 C 
BRANCH  10  11
HETATM   11  O   UNL     1      64.249  10.306   5.760  1.00  0.00    -0.395 OA
HETATM   12  H   UNL     1      64.453  10.064   6.677  1.00  0.00     0.209 HD
ENDBRANCH  10  11
ENDBRANCH   5  10
TORSDOF 2
ENDMDL
MODEL 9
REMARK VINA RESULT:      -3.5      2.810      3.830
REMARK  2 active torsions:
REMARK  status: ('A' for Active; 'I' for Inactive)
REMARK    1  A    between atoms: C_5  and  C_10 
REMARK    2  A    between atoms: C_10  and  O_11 
ROOT
HETATM    1  N   UNL     1      64.042   6.799   5.756  1.00  0.00    -0.352 N 
HETATM    2  C   UNL     1      63.014   7.321   4.999  1.00  0.00     0.052 A 
HETATM    3  C   UNL     1      63.379   8.564   4.575  1.00  0.00     0.033 A 
HETATM    4  C   UNL     1      64.675   8.844   5.087  1.00  0.00     0.048 A 
HETATM    5  C   UNL     1      65.050   7.735   5.831  1.00  0.00     0.036 A 
HETATM    6  S   UNL     1      62.159   9.314   3.603  1.00  0.00    -0.100 SA
HETATM    7  C   UNL     1      61.721   6.925   4.556  1.00  0.00     0.038 A 
HETATM    8  C   UNL     1      61.158   7.929   3.796  1.00  0.00     0.053 A 
HETATM    9  C   UNL     1      63.973   5.487   6.351  1.00  0.00     0.156 C 
ENDROOT
BRANCH   5  10
HETATM   10  C   UNL     1      66.310   7.526   6.594  1.00  0.00     0.221 C 
BRANCH  10  11
HETATM   11  O   UNL     1      66.817   8.809   6.925  1.00  0.00    -0.395 OA
HETATM   12  H   UNL     1      66.938   9.329   6.116  1.00  0.00     0.209 HD
ENDBRANCH  10  11
ENDBRANCH   5  10
TORSDOF 2
ENDMDL
