MODEL 1
REMARK VINA RESULT:      -5.3      0.000      0.000
REMARK  3 active torsions:
REMARK  status: ('A' for Active; 'I' for Inactive)
REMARK    1  A    between atoms: C_3  and  C_6 
REMARK    2  A    between atoms: C_6  and  C_10 
REMARK    3  A    between atoms: O_7  and  C_10 
ROOT
HETATM    1  O   UNL     1      61.604  10.460   1.890  1.00  0.00    -0.321 OA
HETATM    2  C   UNL     1      61.917  10.805   3.164  1.00  0.00     0.150 A 
HETATM    3  C   UNL     1      62.574   9.777   3.811  1.00  0.00    -0.021 A 
HETATM    4  C   UNL     1      62.665   8.719   2.854  1.00  0.00     0.006 A 
HETATM    5  C   UNL     1      62.061   9.194   1.696  1.00  0.00     0.085 A 
HETATM    6  C   UNL     1      63.188   7.412   2.846  1.00  0.00     0.015 A 
HETATM    7  C   UNL     1      61.948   8.463   0.515  1.00  0.00     0.038 A 
HETATM    8  C   UNL     1      63.084   6.648   1.675  1.00  0.00     0.001 A 
HETATM    9  C   UNL     1      62.478   7.168   0.527  1.00  0.00     0.003 A 
ENDROOT
BRANCH   3  10
HETATM   10  C   UNL     1      63.097   9.778   5.211  1.00  0.00     0.067 C 
BRANCH  10  11
HETATM   11  C   UNL     1      63.104  11.165   5.854  1.00  0.00     0.168 C 
BRANCH  11  12
HETATM   12  O   UNL     1      64.363  11.464   6.452  1.00  0.00    -0.401 OA
HETATM   13  H   UNL     1      64.219  11.892   7.310  1.00  0.00     0.209 HD
ENDBRANCH  11  12
ENDBRANCH  10  11
ENDBRANCH   3  10
TORSDOF 3
ENDMDL
MODEL 2
REMARK VINA RESULT:      -5.1      1.738      3.742
REMARK  3 active torsions:
REMARK  status: ('A' for Active; 'I' for Inactive)
REMARK    1  A    between atoms: C_3  and  C_6 
REMARK    2  A    between atoms: C_6  and  C_10 
REMARK    3  A    between atoms: O_7  and  C_10 
ROOT
HETATM    1  O   UNL     1      64.320   9.970   5.806  1.00  0.00    -0.321 OA
HETATM    2  C   UNL     1      63.221  10.551   5.263  1.00  0.00     0.150 A 
HETATM    3  C   UNL     1      62.720   9.793   4.223  1.00  0.00    -0.021 A 
HETATM    4  C   UNL     1      63.587   8.661   4.122  1.00  0.00     0.006 A 
HETATM    5  C   UNL     1      64.543   8.818   5.119  1.00  0.00     0.085 A 
HETATM    6  C   UNL     1      63.667   7.525   3.295  1.00  0.00     0.015 A 
HETATM    7  C   UNL     1      65.576   7.915   5.362  1.00  0.00     0.038 A 
HETATM    8  C   UNL     1      64.699   6.601   3.510  1.00  0.00     0.001 A 
HETATM    9  C   UNL     1      65.635   6.792   4.531  1.00  0.00     0.003 A 
ENDROOT
BRANCH   3  10
HETATM   10  C   UNL     1      61.514  10.085   3.391  1.00  0.00     0.067 C 
BRANCH  10  11
HETATM   11  C   UNL     1      61.854  10.557   1.976  1.00  0.00     0.168 C 
BRANCH  11  12
HETATM   12  O   UNL     1      62.098  11.960   1.932  1.00  0.00    -0.401 OA
HETATM   13  H   UNL     1      62.317  12.221   1.023  1.00  0.00     0.209 HD
ENDBRANCH  11  12
ENDBRANCH  10  11
ENDBRANCH   3  10
TORSDOF 3
ENDMDL
MODEL 3
REMARK VINA RESULT:      -5.0      1.704      2.328
REMARK  3 active torsions:
REMARK  status: ('A' for Active; 'I' for Inactive)
REMARK    1  A    between atoms: C_3  and  C_6 
REMARK    2  A    between atoms: C_6  and  C_10 
REMARK    3  A    between atoms: O_7  and  C_10 
ROOT
HETATM    1  O   UNL     1      62.217  11.055   4.370  1.00  0.00    -0.321 OA
HETATM    2  C   UNL     1      62.855  10.402   5.373  1.00  0.00     0.150 A 
HETATM    3  C   UNL     1      63.265   9.146   4.969  1.00  0.00    -0.021 A 
HETATM    4  C   UNL     1      62.837   9.023   3.610  1.00  0.00     0.006 A 
HETATM    5  C   UNL     1      62.208  10.222   3.294  1.00  0.00     0.085 A 
HETATM    6  C   UNL     1      62.911   8.027   2.618  1.00  0.00     0.015 A 
HETATM    7  C   UNL     1      61.652  10.510   2.050  1.00  0.00     0.038 A 
HETATM    8  C   UNL     1      62.355   8.284   1.357  1.00  0.00     0.001 A 
HETATM    9  C   UNL     1      61.739   9.508   1.078  1.00  0.00     0.003 A 
ENDROOT
BRANCH   3  10
HETATM   10  C   UNL     1      64.014   8.137   5.776  1.00  0.00     0.067 C 
BRANCH  10  11
HETATM   11  C   UNL     1      65.519   8.144   5.510  1.00  0.00     0.168 C 
BRANCH  11  12
HETATM   12  O   UNL     1      66.225   8.908   6.485  1.00  0.00    -0.401 OA
HETATM   13  H   UNL     1      65.712   8.933   7.308  1.00  0.00     0.209 HD
ENDBRANCH  11  12
ENDBRANCH  10  11
ENDBRANCH   3  10
TORSDOF 3
ENDMDL
MODEL 4
REMARK VINA RESULT:      -5.0      1.749      3.189
REMARK  3 active torsions:
REMARK  status: ('A' for Active; 'I' for Inactive)
REMARK    1  A    between atoms: C_3  and  C_6 
REMARK    2  A    between atoms: C_6  and  C_10 
REMARK    3  A    between atoms: O_7  and  C_10 
ROOT
HETATM    1  O   UNL     1      62.875   7.763   1.964  1.00  0.00    -0.321 OA
HETATM    2  C   UNL     1      63.332   7.102   3.057  1.00  0.00     0.150 A 
HETATM    3  C   UNL     1      63.276   7.901   4.182  1.00  0.00    -0.021 A 
HETATM    4  C   UNL     1      62.747   9.152   3.737  1.00  0.00     0.006 A 
HETATM    5  C   UNL     1      62.513   9.009   2.374  1.00  0.00     0.085 A 
HETATM    6  C   UNL     1      62.443  10.388   4.339  1.00  0.00     0.015 A 
HETATM    7  C   UNL     1      61.986  10.009   1.560  1.00  0.00     0.038 A 
HETATM    8  C   UNL     1      61.918  11.417   3.546  1.00  0.00     0.001 A 
HETATM    9  C   UNL     1      61.689  11.228   2.179  1.00  0.00     0.003 A 
ENDROOT
BRANCH   3  10
HETATM   10  C   UNL     1      63.670   7.530   5.574  1.00  0.00     0.067 C 
BRANCH  10  11
HETATM   11  C   UNL     1      65.164   7.705   5.849  1.00  0.00     0.168 C 
BRANCH  11  12
HETATM   12  O   UNL     1      65.523   9.080   5.958  1.00  0.00    -0.401 OA
HETATM   13  H   UNL     1      66.178   9.298   5.276  1.00  0.00     0.209 HD
ENDBRANCH  11  12
ENDBRANCH  10  11
ENDBRANCH   3  10
TORSDOF 3
ENDMDL
MODEL 5
REMARK VINA RESULT:      -4.8      1.884      4.856
REMARK  3 active torsions:
REMARK  status: ('A' for Active; 'I' for Inactive)
REMARK    1  A    between atoms: C_3  and  C_6 
REMARK    2  A    between atoms: C_6  and  C_10 
REMARK    3  A    between atoms: O_7  and  C_10 
ROOT
HETATM    1  O   UNL     1      63.402   7.570   3.560  1.00  0.00    -0.321 OA
HETATM    2  C   UNL     1      62.858   7.362   2.335  1.00  0.00     0.150 A 
HETATM    3  C   UNL     1      62.164   8.475   1.903  1.00  0.00    -0.021 A 
HETATM    4  C   UNL     1      62.292   9.438   2.952  1.00  0.00     0.006 A 
HETATM    5  C   UNL     1      63.065   8.833   3.937  1.00  0.00     0.085 A 
HETATM    6  C   UNL     1      61.836  10.751   3.175  1.00  0.00     0.015 A 
HETATM    7  C   UNL     1      63.430   9.447   5.133  1.00  0.00     0.038 A 
HETATM    8  C   UNL     1      62.180  11.394   4.372  1.00  0.00     0.001 A 
HETATM    9  C   UNL     1      62.969  10.752   5.333  1.00  0.00     0.003 A 
ENDROOT
BRANCH   3  10
HETATM   10  C   UNL     1      61.445   8.644   0.604  1.00  0.00     0.067 C 
BRANCH  10  11
HETATM   11  C   UNL     1      60.106   7.908   0.552  1.00  0.00     0.168 C 
BRANCH  11  12
HETATM   12  O   UNL     1      59.033   8.728   1.007  1.00  0.00    -0.401 OA
HETATM   13  H   UNL     1      59.111   9.611   0.610  1.00  0.00     0.209 HD
ENDBRANCH  11  12
ENDBRANCH  10  11
ENDBRANCH   3  10
TORSDOF 3
ENDMDL
MODEL 6
REMARK VINA RESULT:      -4.6      3.377      4.715
REMARK  3 active torsions:
REMARK  status: ('A' for Active; 'I' for Inactive)
REMARK    1  A    between atoms: C_3  and  C_6 
REMARK    2  A    between atoms: C_6  and  C_10 
REMARK    3  A    between atoms: O_7  and  C_10 
ROOT
HETATM    1  O   UNL     1      63.175   6.542   6.611  1.00  0.00    -0.321 OA
HETATM    2  C   UNL     1      62.571   7.639   6.089  1.00  0.00     0.150 A 
HETATM    3  C   UNL     1      63.484   8.450   5.443  1.00  0.00    -0.021 A 
HETATM    4  C   UNL     1      64.747   7.795   5.587  1.00  0.00     0.006 A 
HETATM    5  C   UNL     1      64.497   6.630   6.303  1.00  0.00     0.085 A 
HETATM    6  C   UNL     1      66.071   8.065   5.192  1.00  0.00     0.015 A 
HETATM    7  C   UNL     1      65.475   5.700   6.650  1.00  0.00     0.038 A 
HETATM    8  C   UNL     1      67.078   7.151   5.531  1.00  0.00     0.001 A 
HETATM    9  C   UNL     1      66.783   5.985   6.245  1.00  0.00     0.003 A 
ENDROOT
BRANCH   3  10
HETATM   10  C   UNL     1      63.206   9.732   4.728  1.00  0.00     0.067 C 
BRANCH  10  11
HETATM   11  C   UNL     1      63.060  10.930   5.667  1.00  0.00     0.168 C 
BRANCH  11  12
HETATM   12  O   UNL     1      64.315  11.332   6.209  1.00  0.00    -0.401 OA
HETATM   13  H   UNL     1      64.379  11.036   7.131  1.00  0.00     0.209 HD
ENDBRANCH  11  12
ENDBRANCH  10  11
ENDBRANCH   3  10
TORSDOF 3
ENDMDL
MODEL 7
REMARK VINA RESULT:      -4.4      2.900      4.083
REMARK  3 active torsions:
REMARK  status: ('A' for Active; 'I' for Inactive)
REMARK    1  A    between atoms: C_3  and  C_6 
REMARK    2  A    between atoms: C_6  and  C_10 
REMARK    3  A    between atoms: O_7  and  C_10 
ROOT
HETATM    1  O   UNL     1      64.103   7.113   3.314  1.00  0.00    -0.321 OA
HETATM    2  C   UNL     1      65.155   6.989   4.161  1.00  0.00     0.150 A 
HETATM    3  C   UNL     1      65.199   8.039   5.058  1.00  0.00    -0.021 A 
HETATM    4  C   UNL     1      64.086   8.872   4.726  1.00  0.00     0.006 A 
HETATM    5  C   UNL     1      63.448   8.255   3.657  1.00  0.00     0.085 A 
HETATM    6  C   UNL     1      63.554  10.082   5.212  1.00  0.00     0.015 A 
HETATM    7  C   UNL     1      62.302   8.750   3.037  1.00  0.00     0.038 A 
HETATM    8  C   UNL     1      62.406  10.609   4.606  1.00  0.00     0.001 A 
HETATM    9  C   UNL     1      61.789   9.951   3.538  1.00  0.00     0.003 A 
ENDROOT
BRANCH   3  10
HETATM   10  C   UNL     1      66.191   8.249   6.155  1.00  0.00     0.067 C 
BRANCH  10  11
HETATM   11  C   UNL     1      66.261   7.081   7.141  1.00  0.00     0.168 C 
BRANCH  11  12
HETATM   12  O   UNL     1      67.221   7.313   8.168  1.00  0.00    -0.401 OA
HETATM   13  H   UNL     1      67.885   7.947   7.853  1.00  0.00     0.209 HD
ENDBRANCH  11  12
ENDBRANCH  10  11
ENDBRANCH   3  10
TORSDOF 3
ENDMDL
MODEL 8
REMARK VINA RESULT:      -4.4      1.608      4.161
REMARK  3 active torsions:
REMARK  status: ('A' for Active; 'I' for Inactive)
REMARK    1  A    between atoms: C_3  and  C_6 
REMARK    2  A    between atoms: C_6  and  C_10 
REMARK    3  A    between atoms: O_7  and  C_10 
ROOT
HETATM    1  O   UNL     1      62.323  10.500   3.848  1.00  0.00    -0.321 OA
HETATM    2  C   UNL     1      61.655  10.392   2.672  1.00  0.00     0.150 A 
HETATM    3  C   UNL     1      61.918   9.182   2.060  1.00  0.00    -0.021 A 
HETATM    4  C   UNL     1      62.824   8.501   2.931  1.00  0.00     0.006 A 
HETATM    5  C   UNL     1      63.032   9.351   4.011  1.00  0.00     0.085 A 
HETATM    6  C   UNL     1      63.491   7.261   2.920  1.00  0.00     0.015 A 
HETATM    7  C   UNL     1      63.853   9.052   5.096  1.00  0.00     0.038 A 
HETATM    8  C   UNL     1      64.330   6.934   3.994  1.00  0.00     0.001 A 
HETATM    9  C   UNL     1      64.504   7.814   5.067  1.00  0.00     0.003 A 
ENDROOT
BRANCH   3  10
HETATM   10  C   UNL     1      61.358   8.683   0.768  1.00  0.00     0.067 C 
BRANCH  10  11
HETATM   11  C   UNL     1      60.067   7.882   0.936  1.00  0.00     0.168 C 
BRANCH  11  12
HETATM   12  O   UNL     1      58.920   8.727   0.956  1.00  0.00    -0.401 OA
HETATM   13  H   UNL     1      59.160   9.589   1.331  1.00  0.00     0.209 HD
ENDBRANCH  11  12
ENDBRANCH  10  11
ENDBRANCH   3  10
TORSDOF 3
ENDMDL
MODEL 9
REMARK VINA RESULT:      -3.9     11.412     12.446
REMARK  3 active torsions:
REMARK  status: ('A' for Active; 'I' for Inactive)
REMARK    1  A    between atoms: C_3  and  C_6 
REMARK    2  A    between atoms: C_6  and  C_10 
REMARK    3  A    between atoms: O_7  and  C_10 
ROOT
HETATM    1  O   UNL     1      55.908   2.168  11.541  1.00  0.00    -0.321 OA
HETATM    2  C   UNL     1      56.443   2.559  10.358  1.00  0.00     0.150 A 
HETATM    3  C   UNL     1      57.823   2.573  10.417  1.00  0.00    -0.021 A 
HETATM    4  C   UNL     1      58.154   2.162  11.745  1.00  0.00     0.006 A 
HETATM    5  C   UNL     1      56.945   1.921  12.386  1.00  0.00     0.085 A 
HETATM    6  C   UNL     1      59.344   1.973  12.473  1.00  0.00     0.015 A 
HETATM    7  C   UNL     1      56.831   1.491  13.707  1.00  0.00     0.038 A 
HETATM    8  C   UNL     1      59.263   1.546  13.806  1.00  0.00     0.001 A 
HETATM    9  C   UNL     1      58.025   1.305  14.410  1.00  0.00     0.003 A 
ENDROOT
BRANCH   3  10
HETATM   10  C   UNL     1      58.771   2.927   9.317  1.00  0.00     0.067 C 
BRANCH  10  11
HETATM   11  C   UNL     1      58.691   4.395   8.896  1.00  0.00     0.168 C 
BRANCH  11  12
HETATM   12  O   UNL     1      58.697   5.268  10.022  1.00  0.00    -0.401 OA
HETATM   13  H   UNL     1      58.510   4.760  10.827  1.00  0.00     0.209 HD
ENDBRANCH  11  12
ENDBRANCH  10  11
ENDBRANCH   3  10
TORSDOF 3
ENDMDL
