MODEL 1
REMARK VINA RESULT:      -4.9      0.000      0.000
REMARK  3 active torsions:
REMARK  status: ('A' for Active; 'I' for Inactive)
REMARK    1  A    between atoms: C_1  and  C_5 
REMARK    2  A    between atoms: N_12  and  C_14 
REMARK    3  A    between atoms: C_13  and  C_14 
ROOT
HETATM    1  C   UNL     1      64.766   7.640   5.129  1.00  0.00    -0.002 A 
HETATM    2  C   UNL     1      64.153   8.876   5.389  1.00  0.00     0.015 A 
HETATM    3  C   UNL     1      64.409   6.961   3.954  1.00  0.00     0.015 A 
HETATM    4  C   UNL     1      63.479   7.506   3.062  1.00  0.00     0.010 A 
HETATM    5  C   UNL     1      63.218   9.421   4.501  1.00  0.00     0.010 A 
HETATM    6  C   UNL     1      62.867   8.739   3.330  1.00  0.00    -0.033 A 
ENDROOT
BRANCH   1   7
HETATM    7  C   UNL     1      65.730   7.092   6.098  1.00  0.00     0.084 A 
HETATM    8  N   UNL     1      65.516   7.012   7.399  1.00  0.00    -0.359 N 
HETATM    9  C   UNL     1      66.605   6.444   8.029  1.00  0.00     0.096 A 
ATOM     10  HN  UNL     1      64.668   7.324   7.871  1.00  0.00     0.166 HD
HETATM   11  C   UNL     1      67.665   6.126   7.212  1.00  0.00     0.069 A 
HETATM   12  S   UNL     1      67.289   6.539   5.596  1.00  0.00    -0.082 SA
ENDBRANCH   1   7
BRANCH   6  13
HETATM   13  C   UNL     1      61.850   9.316   2.370  1.00  0.00     0.270 C 
BRANCH  13  14
HETATM   14  N   UNL     1      61.358  10.615   2.834  1.00  0.00    -0.075 N 
HETATM   15  C   UNL     1      61.762  11.684   1.934  1.00  0.00     0.267 C 
HETATM   16  H   UNL     1      61.738  10.800   3.763  1.00  0.00     0.277 HD
HETATM   17  H   UNL     1      60.339  10.582   2.860  1.00  0.00     0.277 HD
ENDBRANCH  13  14
ENDBRANCH   6  13
TORSDOF 3
ENDMDL
MODEL 2
REMARK VINA RESULT:      -4.8      1.382      2.103
REMARK  3 active torsions:
REMARK  status: ('A' for Active; 'I' for Inactive)
REMARK    1  A    between atoms: C_1  and  C_5 
REMARK    2  A    between atoms: N_12  and  C_14 
REMARK    3  A    between atoms: C_13  and  C_14 
ROOT
HETATM    1  C   UNL     1      64.069   8.031   4.696  1.00  0.00    -0.002 A 
HETATM    2  C   UNL     1      63.906   7.259   3.536  1.00  0.00     0.015 A 
HETATM    3  C   UNL     1      63.362   9.238   4.790  1.00  0.00     0.015 A 
HETATM    4  C   UNL     1      62.508   9.654   3.763  1.00  0.00     0.010 A 
HETATM    5  C   UNL     1      63.057   7.675   2.503  1.00  0.00     0.010 A 
HETATM    6  C   UNL     1      62.352   8.880   2.603  1.00  0.00    -0.033 A 
ENDROOT
BRANCH   1   7
HETATM    7  C   UNL     1      64.987   7.567   5.751  1.00  0.00     0.084 A 
HETATM    8  N   UNL     1      64.600   7.031   6.894  1.00  0.00    -0.359 N 
HETATM    9  C   UNL     1      65.697   6.694   7.661  1.00  0.00     0.096 A 
ATOM     10  HN  UNL     1      63.630   6.886   7.171  1.00  0.00     0.166 HD
HETATM   11  C   UNL     1      66.921   7.008   7.117  1.00  0.00     0.069 A 
HETATM   12  S   UNL     1      66.700   7.742   5.588  1.00  0.00    -0.082 SA
ENDBRANCH   1   7
BRANCH   6  13
HETATM   13  C   UNL     1      61.440   9.342   1.488  1.00  0.00     0.270 C 
BRANCH  13  14
HETATM   14  N   UNL     1      60.123   8.711   1.583  1.00  0.00    -0.075 N 
HETATM   15  C   UNL     1      59.826   7.925   0.395  1.00  0.00     0.267 C 
HETATM   16  H   UNL     1      59.413   9.438   1.688  1.00  0.00     0.277 HD
HETATM   17  H   UNL     1      60.121   8.088   2.391  1.00  0.00     0.277 HD
ENDBRANCH  13  14
ENDBRANCH   6  13
TORSDOF 3
ENDMDL
MODEL 3
REMARK VINA RESULT:      -4.4      1.839      2.332
REMARK  3 active torsions:
REMARK  status: ('A' for Active; 'I' for Inactive)
REMARK    1  A    between atoms: C_1  and  C_5 
REMARK    2  A    between atoms: N_12  and  C_14 
REMARK    3  A    between atoms: C_13  and  C_14 
ROOT
HETATM    1  C   UNL     1      64.809   7.141   4.259  1.00  0.00    -0.002 A 
HETATM    2  C   UNL     1      63.910   7.166   3.182  1.00  0.00     0.015 A 
HETATM    3  C   UNL     1      64.731   8.172   5.207  1.00  0.00     0.015 A 
HETATM    4  C   UNL     1      63.777   9.188   5.089  1.00  0.00     0.010 A 
HETATM    5  C   UNL     1      62.958   8.185   3.058  1.00  0.00     0.010 A 
HETATM    6  C   UNL     1      62.884   9.210   4.008  1.00  0.00    -0.033 A 
ENDROOT
BRANCH   1   7
HETATM    7  C   UNL     1      65.809   6.063   4.343  1.00  0.00     0.084 A 
HETATM    8  N   UNL     1      66.769   6.003   5.248  1.00  0.00    -0.359 N 
HETATM    9  C   UNL     1      67.532   4.869   5.064  1.00  0.00     0.096 A 
ATOM     10  HN  UNL     1      66.924   6.697   5.980  1.00  0.00     0.166 HD
HETATM   11  C   UNL     1      67.176   4.081   3.993  1.00  0.00     0.069 A 
HETATM   12  S   UNL     1      65.834   4.774   3.191  1.00  0.00    -0.082 SA
ENDBRANCH   1   7
BRANCH   6  13
HETATM   13  C   UNL     1      61.864  10.320   3.876  1.00  0.00     0.270 C 
BRANCH  13  14
HETATM   14  N   UNL     1      61.465  10.513   2.481  1.00  0.00    -0.075 N 
HETATM   15  C   UNL     1      61.754  11.866   2.032  1.00  0.00     0.267 C 
HETATM   16  H   UNL     1      60.463  10.341   2.396  1.00  0.00     0.277 HD
HETATM   17  H   UNL     1      61.993   9.860   1.902  1.00  0.00     0.277 HD
ENDBRANCH  13  14
ENDBRANCH   6  13
TORSDOF 3
ENDMDL
MODEL 4
REMARK VINA RESULT:      -4.3      2.422      6.193
REMARK  3 active torsions:
REMARK  status: ('A' for Active; 'I' for Inactive)
REMARK    1  A    between atoms: C_1  and  C_5 
REMARK    2  A    between atoms: N_12  and  C_14 
REMARK    3  A    between atoms: C_13  and  C_14 
ROOT
HETATM    1  C   UNL     1      65.031   7.928   5.517  1.00  0.00    -0.002 A 
HETATM    2  C   UNL     1      64.704   6.977   6.497  1.00  0.00     0.015 A 
HETATM    3  C   UNL     1      66.350   7.955   5.040  1.00  0.00     0.015 A 
HETATM    4  C   UNL     1      67.306   7.052   5.515  1.00  0.00     0.010 A 
HETATM    5  C   UNL     1      65.661   6.077   6.980  1.00  0.00     0.010 A 
HETATM    6  C   UNL     1      66.975   6.107   6.498  1.00  0.00    -0.033 A 
ENDROOT
BRANCH   1   7
HETATM    7  C   UNL     1      64.000   8.871   5.050  1.00  0.00     0.084 A 
HETATM    8  N   UNL     1      63.690  10.000   5.662  1.00  0.00    -0.359 N 
HETATM    9  C   UNL     1      62.694  10.660   4.971  1.00  0.00     0.096 A 
ATOM     10  HN  UNL     1      64.124  10.336   6.521  1.00  0.00     0.166 HD
HETATM   11  C   UNL     1      62.219  10.015   3.852  1.00  0.00     0.069 A 
HETATM   12  S   UNL     1      63.050   8.536   3.646  1.00  0.00    -0.082 SA
ENDBRANCH   1   7
BRANCH   6  13
HETATM   13  C   UNL     1      68.017   5.144   7.020  1.00  0.00     0.270 C 
BRANCH  13  14
HETATM   14  N   UNL     1      67.548   3.760   6.943  1.00  0.00    -0.075 N 
HETATM   15  C   UNL     1      67.767   3.201   5.618  1.00  0.00     0.267 C 
HETATM   16  H   UNL     1      66.549   3.736   7.153  1.00  0.00     0.277 HD
HETATM   17  H   UNL     1      68.071   3.204   7.619  1.00  0.00     0.277 HD
ENDBRANCH  13  14
ENDBRANCH   6  13
TORSDOF 3
ENDMDL
MODEL 5
REMARK VINA RESULT:      -4.2      2.568      6.256
REMARK  3 active torsions:
REMARK  status: ('A' for Active; 'I' for Inactive)
REMARK    1  A    between atoms: C_1  and  C_5 
REMARK    2  A    between atoms: N_12  and  C_14 
REMARK    3  A    between atoms: C_13  and  C_14 
ROOT
HETATM    1  C   UNL     1      62.882   8.040   3.307  1.00  0.00    -0.002 A 
HETATM    2  C   UNL     1      63.849   7.022   3.290  1.00  0.00     0.015 A 
HETATM    3  C   UNL     1      63.046   9.090   4.221  1.00  0.00     0.015 A 
HETATM    4  C   UNL     1      64.148   9.131   5.081  1.00  0.00     0.010 A 
HETATM    5  C   UNL     1      64.949   7.056   4.155  1.00  0.00     0.010 A 
HETATM    6  C   UNL     1      65.109   8.109   5.064  1.00  0.00    -0.033 A 
ENDROOT
BRANCH   1   7
HETATM    7  C   UNL     1      61.728   7.956   2.394  1.00  0.00     0.084 A 
HETATM    8  N   UNL     1      60.629   7.268   2.643  1.00  0.00    -0.359 N 
HETATM    9  C   UNL     1      59.735   7.399   1.599  1.00  0.00     0.096 A 
ATOM     10  HN  UNL     1      60.463   6.719   3.486  1.00  0.00     0.166 HD
HETATM   11  C   UNL     1      60.170   8.158   0.537  1.00  0.00     0.069 A 
HETATM   12  S   UNL     1      61.747   8.739   0.853  1.00  0.00    -0.082 SA
ENDBRANCH   1   7
BRANCH   6  13
HETATM   13  C   UNL     1      66.290   8.149   6.008  1.00  0.00     0.270 C 
BRANCH  13  14
HETATM   14  N   UNL     1      66.020   7.391   7.230  1.00  0.00    -0.075 N 
HETATM   15  C   UNL     1      67.100   6.462   7.526  1.00  0.00     0.267 C 
HETATM   16  H   UNL     1      65.153   6.865   7.110  1.00  0.00     0.277 HD
HETATM   17  H   UNL     1      65.938   8.049   8.006  1.00  0.00     0.277 HD
ENDBRANCH  13  14
ENDBRANCH   6  13
TORSDOF 3
ENDMDL
MODEL 6
REMARK VINA RESULT:      -4.1      2.305      6.303
REMARK  3 active torsions:
REMARK  status: ('A' for Active; 'I' for Inactive)
REMARK    1  A    between atoms: C_1  and  C_5 
REMARK    2  A    between atoms: N_12  and  C_14 
REMARK    3  A    between atoms: C_13  and  C_14 
ROOT
HETATM    1  C   UNL     1      64.316   7.644   3.942  1.00  0.00    -0.002 A 
HETATM    2  C   UNL     1      65.003   6.431   3.778  1.00  0.00     0.015 A 
HETATM    3  C   UNL     1      64.694   8.477   5.005  1.00  0.00     0.015 A 
HETATM    4  C   UNL     1      65.735   8.117   5.867  1.00  0.00     0.010 A 
HETATM    5  C   UNL     1      66.041   6.065   4.643  1.00  0.00     0.010 A 
HETATM    6  C   UNL     1      66.415   6.902   5.701  1.00  0.00    -0.033 A 
ENDROOT
BRANCH   1   7
HETATM    7  C   UNL     1      63.217   7.983   3.022  1.00  0.00     0.084 A 
HETATM    8  N   UNL     1      62.897   7.279   1.951  1.00  0.00    -0.359 N 
HETATM    9  C   UNL     1      61.819   7.852   1.306  1.00  0.00     0.096 A 
ATOM     10  HN  UNL     1      63.376   6.434   1.644  1.00  0.00     0.166 HD
HETATM   11  C   UNL     1      61.341   9.015   1.866  1.00  0.00     0.069 A 
HETATM   12  S   UNL     1      62.261   9.404   3.254  1.00  0.00    -0.082 SA
ENDBRANCH   1   7
BRANCH   6  13
HETATM   13  C   UNL     1      67.529   6.509   6.646  1.00  0.00     0.270 C 
BRANCH  13  14
HETATM   14  N   UNL     1      67.342   7.111   7.967  1.00  0.00    -0.075 N 
HETATM   15  C   UNL     1      67.662   6.168   9.028  1.00  0.00     0.267 C 
HETATM   16  H   UNL     1      66.369   7.404   8.064  1.00  0.00     0.277 HD
HETATM   17  H   UNL     1      67.969   7.912   8.048  1.00  0.00     0.277 HD
ENDBRANCH  13  14
ENDBRANCH   6  13
TORSDOF 3
ENDMDL
MODEL 7
REMARK VINA RESULT:      -3.9      3.036      6.495
REMARK  3 active torsions:
REMARK  status: ('A' for Active; 'I' for Inactive)
REMARK    1  A    between atoms: C_1  and  C_5 
REMARK    2  A    between atoms: N_12  and  C_14 
REMARK    3  A    between atoms: C_13  and  C_14 
ROOT
HETATM    1  C   UNL     1      61.836   7.706   2.727  1.00  0.00    -0.002 A 
HETATM    2  C   UNL     1      62.829   6.724   2.871  1.00  0.00     0.015 A 
HETATM    3  C   UNL     1      62.002   8.917   3.414  1.00  0.00     0.015 A 
HETATM    4  C   UNL     1      63.130   9.145   4.209  1.00  0.00     0.010 A 
HETATM    5  C   UNL     1      63.956   6.947   3.670  1.00  0.00     0.010 A 
HETATM    6  C   UNL     1      64.117   8.159   4.352  1.00  0.00    -0.033 A 
ENDROOT
BRANCH   1   7
HETATM    7  C   UNL     1      60.655   7.424   1.892  1.00  0.00     0.084 A 
HETATM    8  N   UNL     1      59.494   8.043   2.010  1.00  0.00    -0.359 N 
HETATM    9  C   UNL     1      58.597   7.558   1.079  1.00  0.00     0.096 A 
ATOM     10  HN  UNL     1      59.289   8.774   2.691  1.00  0.00     0.166 HD
HETATM   11  C   UNL     1      59.065   6.544   0.276  1.00  0.00     0.069 A 
HETATM   12  S   UNL     1      60.685   6.185   0.687  1.00  0.00    -0.082 SA
ENDBRANCH   1   7
BRANCH   6  13
HETATM   13  C   UNL     1      65.328   8.405   5.225  1.00  0.00     0.270 C 
BRANCH  13  14
HETATM   14  N   UNL     1      65.235   7.663   6.484  1.00  0.00    -0.075 N 
HETATM   15  C   UNL     1      66.551   7.432   7.059  1.00  0.00     0.267 C 
HETATM   16  H   UNL     1      64.787   6.763   6.306  1.00  0.00     0.277 HD
HETATM   17  H   UNL     1      64.686   8.214   7.143  1.00  0.00     0.277 HD
ENDBRANCH  13  14
ENDBRANCH   6  13
TORSDOF 3
ENDMDL
MODEL 8
REMARK VINA RESULT:      -3.9      2.214      2.539
REMARK  3 active torsions:
REMARK  status: ('A' for Active; 'I' for Inactive)
REMARK    1  A    between atoms: C_1  and  C_5 
REMARK    2  A    between atoms: N_12  and  C_14 
REMARK    3  A    between atoms: C_13  and  C_14 
ROOT
HETATM    1  C   UNL     1      63.679   7.539   5.047  1.00  0.00    -0.002 A 
HETATM    2  C   UNL     1      63.501   8.620   4.169  1.00  0.00     0.015 A 
HETATM    3  C   UNL     1      62.687   6.548   5.082  1.00  0.00     0.015 A 
HETATM    4  C   UNL     1      61.561   6.627   4.257  1.00  0.00     0.010 A 
HETATM    5  C   UNL     1      62.371   8.704   3.346  1.00  0.00     0.010 A 
HETATM    6  C   UNL     1      61.386   7.711   3.385  1.00  0.00    -0.033 A 
ENDROOT
BRANCH   1   7
HETATM    7  C   UNL     1      64.872   7.497   5.911  1.00  0.00     0.084 A 
HETATM    8  N   UNL     1      65.778   8.456   5.978  1.00  0.00    -0.359 N 
HETATM    9  C   UNL     1      66.764   8.120   6.883  1.00  0.00     0.096 A 
ATOM     10  HN  UNL     1      65.752   9.321   5.439  1.00  0.00     0.166 HD
HETATM   11  C   UNL     1      66.628   6.887   7.479  1.00  0.00     0.069 A 
HETATM   12  S   UNL     1      65.215   6.120   6.898  1.00  0.00    -0.082 SA
ENDBRANCH   1   7
BRANCH   6  13
HETATM   13  C   UNL     1      60.158   7.800   2.506  1.00  0.00     0.270 C 
BRANCH  13  14
HETATM   14  N   UNL     1      58.949   8.020   3.301  1.00  0.00    -0.075 N 
HETATM   15  C   UNL     1      57.829   7.248   2.785  1.00  0.00     0.267 C 
HETATM   16  H   UNL     1      58.710   9.012   3.275  1.00  0.00     0.277 HD
HETATM   17  H   UNL     1      59.134   7.719   4.258  1.00  0.00     0.277 HD
ENDBRANCH  13  14
ENDBRANCH   6  13
TORSDOF 3
ENDMDL
MODEL 9
REMARK VINA RESULT:      -3.8     12.132     14.132
REMARK  3 active torsions:
REMARK  status: ('A' for Active; 'I' for Inactive)
REMARK    1  A    between atoms: C_1  and  C_5 
REMARK    2  A    between atoms: N_12  and  C_14 
REMARK    3  A    between atoms: C_13  and  C_14 
ROOT
HETATM    1  C   UNL     1      58.181   0.308  13.574  1.00  0.00    -0.002 A 
HETATM    2  C   UNL     1      58.423  -1.063  13.757  1.00  0.00     0.015 A 
HETATM    3  C   UNL     1      59.236   1.107  13.110  1.00  0.00     0.015 A 
HETATM    4  C   UNL     1      60.488   0.552  12.824  1.00  0.00     0.010 A 
HETATM    5  C   UNL     1      59.676  -1.620  13.478  1.00  0.00     0.010 A 
HETATM    6  C   UNL     1      60.725  -0.818  13.013  1.00  0.00    -0.033 A 
ENDROOT
BRANCH   1   7
HETATM    7  C   UNL     1      56.854   0.858  13.899  1.00  0.00     0.084 A 
HETATM    8  N   UNL     1      56.560   2.146  13.895  1.00  0.00    -0.359 N 
HETATM    9  C   UNL     1      55.235   2.335  14.233  1.00  0.00     0.096 A 
ATOM     10  HN  UNL     1      57.217   2.894  13.674  1.00  0.00     0.166 HD
HETATM   11  C   UNL     1      54.529   1.192  14.530  1.00  0.00     0.069 A 
HETATM   12  S   UNL     1      55.549  -0.171  14.374  1.00  0.00    -0.082 SA
ENDBRANCH   1   7
BRANCH   6  13
HETATM   13  C   UNL     1      62.085  -1.410  12.717  1.00  0.00     0.270 C 
BRANCH  13  14
HETATM   14  N   UNL     1      63.154  -0.445  12.980  1.00  0.00    -0.075 N 
HETATM   15  C   UNL     1      64.162  -0.476  11.931  1.00  0.00     0.267 C 
HETATM   16  H   UNL     1      63.594  -0.673  13.872  1.00  0.00     0.277 HD
HETATM   17  H   UNL     1      62.745   0.489  13.007  1.00  0.00     0.277 HD
ENDBRANCH  13  14
ENDBRANCH   6  13
TORSDOF 3
ENDMDL
