MODEL 1
REMARK VINA RESULT:      -5.5      0.000      0.000
REMARK  4 active torsions:
REMARK  status: ('A' for Active; 'I' for Inactive)
REMARK    1  A    between atoms: N_1  and  C_2 
REMARK    2  A    between atoms: C_2  and  C_4 
REMARK    3  A    between atoms: N_6  and  C_13 
REMARK    4  A    between atoms: C_7  and  C_13 
ROOT
HETATM    1  C   UNL     1      63.730   8.724   4.454  1.00  0.00    -0.032 A 
HETATM    2  C   UNL     1      63.057   8.497   3.241  1.00  0.00     0.017 A 
HETATM    3  C   UNL     1      62.129   9.422   2.731  1.00  0.00    -0.032 A 
HETATM    4  C   UNL     1      62.490  10.799   4.699  1.00  0.00     0.001 A 
HETATM    5  C   UNL     1      63.433   9.885   5.182  1.00  0.00     0.009 A 
HETATM    6  C   UNL     1      61.850  10.573   3.480  1.00  0.00     0.009 A 
ENDROOT
BRANCH   1   7
HETATM    7  C   UNL     1      64.869   7.807   4.856  1.00  0.00     0.273 C 
BRANCH   7   8
HETATM    8  N   UNL     1      65.259   7.863   6.273  1.00  0.00    -0.063 N 
HETATM    9  C   UNL     1      64.946   6.618   7.009  1.00  0.00     0.261 C 
HETATM   10  C   UNL     1      65.889   5.435   6.716  1.00  0.00     0.195 C 
HETATM   11  O   UNL     1      67.264   5.793   6.898  1.00  0.00    -0.388 OA
HETATM   12  C   UNL     1      67.605   6.916   6.077  1.00  0.00     0.195 C 
HETATM   13  C   UNL     1      66.713   8.126   6.400  1.00  0.00     0.261 C 
HETATM   14  H   UNL     1      64.714   8.623   6.682  1.00  0.00     0.280 HD
ENDBRANCH   7   8
ENDBRANCH   1   7
BRANCH   3  15
HETATM   15  C   UNL     1      61.537   9.231   1.355  1.00  0.00     0.270 C 
BRANCH  15  16
HETATM   16  N   UNL     1      60.131   8.823   1.391  1.00  0.00    -0.075 N 
HETATM   17  C   UNL     1      59.864   7.828   0.360  1.00  0.00     0.267 C 
HETATM   18  H   UNL     1      59.541   9.639   1.231  1.00  0.00     0.277 HD
HETATM   19  H   UNL     1      59.929   8.416   2.303  1.00  0.00     0.277 HD
ENDBRANCH  15  16
ENDBRANCH   3  15
TORSDOF 4
ENDMDL
MODEL 2
REMARK VINA RESULT:      -4.9      2.705      6.313
REMARK  4 active torsions:
REMARK  status: ('A' for Active; 'I' for Inactive)
REMARK    1  A    between atoms: N_1  and  C_2 
REMARK    2  A    between atoms: C_2  and  C_4 
REMARK    3  A    between atoms: N_6  and  C_13 
REMARK    4  A    between atoms: C_7  and  C_13 
ROOT
HETATM    1  C   UNL     1      62.217   9.190   2.878  1.00  0.00    -0.032 A 
HETATM    2  C   UNL     1      63.249   8.446   3.478  1.00  0.00     0.017 A 
HETATM    3  C   UNL     1      63.853   8.861   4.678  1.00  0.00    -0.032 A 
HETATM    4  C   UNL     1      62.432  10.830   4.659  1.00  0.00     0.001 A 
HETATM    5  C   UNL     1      61.817  10.392   3.480  1.00  0.00     0.009 A 
HETATM    6  C   UNL     1      63.435  10.066   5.257  1.00  0.00     0.009 A 
ENDROOT
BRANCH   1   7
HETATM    7  C   UNL     1      61.457   8.599   1.707  1.00  0.00     0.273 C 
BRANCH   7   8
HETATM    8  N   UNL     1      60.014   8.414   1.916  1.00  0.00    -0.063 N 
HETATM    9  C   UNL     1      59.290   8.060   0.675  1.00  0.00     0.261 C 
HETATM   10  C   UNL     1      59.487   6.606   0.200  1.00  0.00     0.195 C 
HETATM   11  O   UNL     1      59.194   5.663   1.239  1.00  0.00    -0.388 OA
HETATM   12  C   UNL     1      59.997   5.922   2.395  1.00  0.00     0.195 C 
HETATM   13  C   UNL     1      59.767   7.349   2.919  1.00  0.00     0.261 C 
HETATM   14  H   UNL     1      59.662   9.313   2.246  1.00  0.00     0.280 HD
ENDBRANCH   7   8
ENDBRANCH   1   7
BRANCH   3  15
HETATM   15  C   UNL     1      64.846   7.967   5.382  1.00  0.00     0.270 C 
BRANCH  15  16
HETATM   16  N   UNL     1      64.304   7.363   6.601  1.00  0.00    -0.075 N 
HETATM   17  C   UNL     1      65.346   6.635   7.314  1.00  0.00     0.267 C 
HETATM   18  H   UNL     1      63.555   6.718   6.351  1.00  0.00     0.277 HD
HETATM   19  H   UNL     1      63.945   8.102   7.205  1.00  0.00     0.277 HD
ENDBRANCH  15  16
ENDBRANCH   3  15
TORSDOF 4
ENDMDL
MODEL 3
REMARK VINA RESULT:      -4.6      2.845      6.698
REMARK  4 active torsions:
REMARK  status: ('A' for Active; 'I' for Inactive)
REMARK    1  A    between atoms: N_1  and  C_2 
REMARK    2  A    between atoms: C_2  and  C_4 
REMARK    3  A    between atoms: N_6  and  C_13 
REMARK    4  A    between atoms: C_7  and  C_13 
ROOT
HETATM    1  C   UNL     1      65.567   7.366   4.860  1.00  0.00    -0.032 A 
HETATM    2  C   UNL     1      66.203   7.132   6.092  1.00  0.00     0.017 A 
HETATM    3  C   UNL     1      67.104   6.066   6.264  1.00  0.00    -0.032 A 
HETATM    4  C   UNL     1      66.689   5.406   3.964  1.00  0.00     0.001 A 
HETATM    5  C   UNL     1      65.817   6.488   3.797  1.00  0.00     0.009 A 
HETATM    6  C   UNL     1      67.334   5.203   5.185  1.00  0.00     0.009 A 
ENDROOT
BRANCH   1   7
HETATM    7  C   UNL     1      64.773   8.642   4.664  1.00  0.00     0.273 C 
BRANCH   7   8
HETATM    8  N   UNL     1      63.557   8.765   5.481  1.00  0.00    -0.063 N 
HETATM    9  C   UNL     1      62.897  10.082   5.343  1.00  0.00     0.261 C 
HETATM   10  C   UNL     1      62.125  10.288   4.025  1.00  0.00     0.195 C 
HETATM   11  O   UNL     1      61.188   9.231   3.786  1.00  0.00    -0.388 OA
HETATM   12  C   UNL     1      61.852   7.962   3.780  1.00  0.00     0.195 C 
HETATM   13  C   UNL     1      62.577   7.713   5.114  1.00  0.00     0.261 C 
HETATM   14  H   UNL     1      63.860   8.658   6.449  1.00  0.00     0.280 HD
ENDBRANCH   7   8
ENDBRANCH   1   7
BRANCH   3  15
HETATM   15  C   UNL     1      67.889   5.929   7.547  1.00  0.00     0.270 C 
BRANCH  15  16
HETATM   16  N   UNL     1      67.550   6.955   8.535  1.00  0.00    -0.075 N 
HETATM   17  C   UNL     1      66.596   6.432   9.505  1.00  0.00     0.267 C 
HETATM   18  H   UNL     1      67.139   7.757   8.058  1.00  0.00     0.277 HD
HETATM   19  H   UNL     1      68.399   7.235   9.025  1.00  0.00     0.277 HD
ENDBRANCH  15  16
ENDBRANCH   3  15
TORSDOF 4
ENDMDL
MODEL 4
REMARK VINA RESULT:      -4.3      1.779      2.641
REMARK  4 active torsions:
REMARK  status: ('A' for Active; 'I' for Inactive)
REMARK    1  A    between atoms: N_1  and  C_2 
REMARK    2  A    between atoms: C_2  and  C_4 
REMARK    3  A    between atoms: N_6  and  C_13 
REMARK    4  A    between atoms: C_7  and  C_13 
ROOT
HETATM    1  C   UNL     1      63.049   7.017   5.492  1.00  0.00    -0.032 A 
HETATM    2  C   UNL     1      63.268   7.827   4.363  1.00  0.00     0.017 A 
HETATM    3  C   UNL     1      62.238   8.108   3.449  1.00  0.00    -0.032 A 
HETATM    4  C   UNL     1      60.754   6.702   4.758  1.00  0.00     0.001 A 
HETATM    5  C   UNL     1      61.780   6.452   5.678  1.00  0.00     0.009 A 
HETATM    6  C   UNL     1      60.980   7.530   3.658  1.00  0.00     0.009 A 
ENDROOT
BRANCH   1   7
HETATM    7  C   UNL     1      64.125   6.914   6.554  1.00  0.00     0.273 C 
BRANCH   7   8
HETATM    8  N   UNL     1      65.493   6.709   6.054  1.00  0.00    -0.063 N 
HETATM    9  C   UNL     1      66.513   7.436   6.844  1.00  0.00     0.261 C 
HETATM   10  C   UNL     1      66.837   6.813   8.216  1.00  0.00     0.195 C 
HETATM   11  O   UNL     1      67.184   5.427   8.103  1.00  0.00    -0.388 OA
HETATM   12  C   UNL     1      66.133   4.696   7.461  1.00  0.00     0.195 C 
HETATM   13  C   UNL     1      65.838   5.267   6.064  1.00  0.00     0.261 C 
HETATM   14  H   UNL     1      65.501   7.079   5.104  1.00  0.00     0.280 HD
ENDBRANCH   7   8
ENDBRANCH   1   7
BRANCH   3  15
HETATM   15  C   UNL     1      62.457   9.104   2.334  1.00  0.00     0.270 C 
BRANCH  15  16
HETATM   16  N   UNL     1      61.331  10.024   2.164  1.00  0.00    -0.075 N 
HETATM   17  C   UNL     1      61.800  11.404   2.149  1.00  0.00     0.267 C 
HETATM   18  H   UNL     1      60.676   9.900   2.935  1.00  0.00     0.277 HD
HETATM   19  H   UNL     1      60.870   9.822   1.277  1.00  0.00     0.277 HD
ENDBRANCH  15  16
ENDBRANCH   3  15
TORSDOF 4
ENDMDL
MODEL 5
REMARK VINA RESULT:      -4.3      3.096      6.482
REMARK  4 active torsions:
REMARK  status: ('A' for Active; 'I' for Inactive)
REMARK    1  A    between atoms: N_1  and  C_2 
REMARK    2  A    between atoms: C_2  and  C_4 
REMARK    3  A    between atoms: N_6  and  C_13 
REMARK    4  A    between atoms: C_7  and  C_13 
ROOT
HETATM    1  C   UNL     1      62.016   8.974   3.088  1.00  0.00    -0.032 A 
HETATM    2  C   UNL     1      63.063   8.149   3.535  1.00  0.00     0.017 A 
HETATM    3  C   UNL     1      63.872   8.513   4.625  1.00  0.00    -0.032 A 
HETATM    4  C   UNL     1      62.626  10.590   4.796  1.00  0.00     0.001 A 
HETATM    5  C   UNL     1      61.809  10.203   3.728  1.00  0.00     0.009 A 
HETATM    6  C   UNL     1      63.643   9.747   5.246  1.00  0.00     0.009 A 
ENDROOT
BRANCH   1   7
HETATM    7  C   UNL     1      61.044   8.447   2.051  1.00  0.00     0.273 C 
BRANCH   7   8
HETATM    8  N   UNL     1      60.520   7.096   2.301  1.00  0.00    -0.063 N 
HETATM    9  C   UNL     1      59.728   7.003   3.548  1.00  0.00     0.261 C 
HETATM   10  C   UNL     1      58.317   7.619   3.469  1.00  0.00     0.195 C 
HETATM   11  O   UNL     1      57.571   7.100   2.361  1.00  0.00    -0.388 OA
HETATM   12  C   UNL     1      58.277   7.316   1.134  1.00  0.00     0.195 C 
HETATM   13  C   UNL     1      59.665   6.654   1.173  1.00  0.00     0.261 C 
HETATM   14  H   UNL     1      61.338   6.494   2.396  1.00  0.00     0.280 HD
ENDBRANCH   7   8
ENDBRANCH   1   7
BRANCH   3  15
HETATM   15  C   UNL     1      64.885   7.541   5.183  1.00  0.00     0.270 C 
BRANCH  15  16
HETATM   16  N   UNL     1      66.247   8.079   5.187  1.00  0.00    -0.075 N 
HETATM   17  C   UNL     1      66.758   8.162   6.550  1.00  0.00     0.267 C 
HETATM   18  H   UNL     1      66.242   9.011   4.773  1.00  0.00     0.277 HD
HETATM   19  H   UNL     1      66.849   7.459   4.646  1.00  0.00     0.277 HD
ENDBRANCH  15  16
ENDBRANCH   3  15
TORSDOF 4
ENDMDL
MODEL 6
REMARK VINA RESULT:      -4.2      2.828      6.778
REMARK  4 active torsions:
REMARK  status: ('A' for Active; 'I' for Inactive)
REMARK    1  A    between atoms: N_1  and  C_2 
REMARK    2  A    between atoms: C_2  and  C_4 
REMARK    3  A    between atoms: N_6  and  C_13 
REMARK    4  A    between atoms: C_7  and  C_13 
ROOT
HETATM    1  C   UNL     1      63.938   7.401   4.934  1.00  0.00    -0.032 A 
HETATM    2  C   UNL     1      65.198   7.489   5.552  1.00  0.00     0.017 A 
HETATM    3  C   UNL     1      65.674   6.472   6.399  1.00  0.00    -0.032 A 
HETATM    4  C   UNL     1      63.582   5.284   6.072  1.00  0.00     0.001 A 
HETATM    5  C   UNL     1      63.131   6.288   5.207  1.00  0.00     0.009 A 
HETATM    6  C   UNL     1      64.846   5.372   6.656  1.00  0.00     0.009 A 
ENDROOT
BRANCH   1   7
HETATM    7  C   UNL     1      63.558   8.413   3.871  1.00  0.00     0.273 C 
BRANCH   7   8
HETATM    8  N   UNL     1      62.118   8.549   3.610  1.00  0.00    -0.063 N 
HETATM    9  C   UNL     1      61.591   9.890   3.951  1.00  0.00     0.261 C 
HETATM   10  C   UNL     1      61.957  11.005   2.952  1.00  0.00     0.195 C 
HETATM   11  O   UNL     1      61.602  10.653   1.609  1.00  0.00    -0.388 OA
HETATM   12  C   UNL     1      62.226   9.422   1.229  1.00  0.00     0.195 C 
HETATM   13  C   UNL     1      61.822   8.283   2.182  1.00  0.00     0.261 C 
HETATM   14  H   UNL     1      61.660   7.863   4.211  1.00  0.00     0.280 HD
ENDBRANCH   7   8
ENDBRANCH   1   7
BRANCH   3  15
HETATM   15  C   UNL     1      67.089   6.516   6.925  1.00  0.00     0.270 C 
BRANCH  15  16
HETATM   16  N   UNL     1      67.226   7.346   8.123  1.00  0.00    -0.075 N 
HETATM   17  C   UNL     1      66.887   6.579   9.315  1.00  0.00     0.267 C 
HETATM   18  H   UNL     1      66.600   8.148   8.050  1.00  0.00     0.277 HD
HETATM   19  H   UNL     1      68.193   7.662   8.197  1.00  0.00     0.277 HD
ENDBRANCH  15  16
ENDBRANCH   3  15
TORSDOF 4
ENDMDL
MODEL 7
REMARK VINA RESULT:      -4.1      2.837      6.413
REMARK  4 active torsions:
REMARK  status: ('A' for Active; 'I' for Inactive)
REMARK    1  A    between atoms: N_1  and  C_2 
REMARK    2  A    between atoms: C_2  and  C_4 
REMARK    3  A    between atoms: N_6  and  C_13 
REMARK    4  A    between atoms: C_7  and  C_13 
ROOT
HETATM    1  C   UNL     1      63.417   6.772   6.213  1.00  0.00    -0.032 A 
HETATM    2  C   UNL     1      64.767   6.831   6.603  1.00  0.00     0.017 A 
HETATM    3  C   UNL     1      65.498   5.668   6.901  1.00  0.00    -0.032 A 
HETATM    4  C   UNL     1      63.497   4.359   6.483  1.00  0.00     0.001 A 
HETATM    5  C   UNL     1      62.787   5.521   6.160  1.00  0.00     0.009 A 
HETATM    6  C   UNL     1      64.843   4.431   6.842  1.00  0.00     0.009 A 
ENDROOT
BRANCH   1   7
HETATM    7  C   UNL     1      62.734   8.025   5.702  1.00  0.00     0.273 C 
BRANCH   7   8
HETATM    8  N   UNL     1      63.485   8.792   4.697  1.00  0.00    -0.063 N 
HETATM    9  C   UNL     1      62.768   8.917   3.408  1.00  0.00     0.261 C 
HETATM   10  C   UNL     1      61.597   9.918   3.411  1.00  0.00     0.195 C 
HETATM   11  O   UNL     1      62.001  11.208   3.887  1.00  0.00    -0.388 OA
HETATM   12  C   UNL     1      62.570  11.106   5.196  1.00  0.00     0.195 C 
HETATM   13  C   UNL     1      63.780  10.156   5.199  1.00  0.00     0.261 C 
HETATM   14  H   UNL     1      64.347   8.270   4.535  1.00  0.00     0.280 HD
ENDBRANCH   7   8
ENDBRANCH   1   7
BRANCH   3  15
HETATM   15  C   UNL     1      66.983   5.746   7.165  1.00  0.00     0.270 C 
BRANCH  15  16
HETATM   16  N   UNL     1      67.537   7.079   6.916  1.00  0.00    -0.075 N 
HETATM   17  C   UNL     1      68.074   7.162   5.563  1.00  0.00     0.267 C 
HETATM   18  H   UNL     1      68.283   7.263   7.586  1.00  0.00     0.277 HD
HETATM   19  H   UNL     1      66.794   7.770   7.019  1.00  0.00     0.277 HD
ENDBRANCH  15  16
ENDBRANCH   3  15
TORSDOF 4
ENDMDL
MODEL 8
REMARK VINA RESULT:      -4.1      2.907      6.790
REMARK  4 active torsions:
REMARK  status: ('A' for Active; 'I' for Inactive)
REMARK    1  A    between atoms: N_1  and  C_2 
REMARK    2  A    between atoms: C_2  and  C_4 
REMARK    3  A    between atoms: N_6  and  C_13 
REMARK    4  A    between atoms: C_7  and  C_13 
ROOT
HETATM    1  C   UNL     1      65.170   7.425   5.394  1.00  0.00    -0.032 A 
HETATM    2  C   UNL     1      65.268   6.813   6.656  1.00  0.00     0.017 A 
HETATM    3  C   UNL     1      66.513   6.463   7.209  1.00  0.00    -0.032 A 
HETATM    4  C   UNL     1      67.587   7.281   5.190  1.00  0.00     0.001 A 
HETATM    5  C   UNL     1      66.344   7.652   4.663  1.00  0.00     0.009 A 
HETATM    6  C   UNL     1      67.670   6.699   6.456  1.00  0.00     0.009 A 
ENDROOT
BRANCH   1   7
HETATM    7  C   UNL     1      63.833   7.973   4.935  1.00  0.00     0.273 C 
BRANCH   7   8
HETATM    8  N   UNL     1      62.974   7.025   4.211  1.00  0.00    -0.063 N 
HETATM    9  C   UNL     1      61.531   7.262   4.436  1.00  0.00     0.261 C 
HETATM   10  C   UNL     1      60.948   8.479   3.691  1.00  0.00     0.195 C 
HETATM   11  O   UNL     1      61.234   8.431   2.288  1.00  0.00    -0.388 OA
HETATM   12  C   UNL     1      62.646   8.341   2.066  1.00  0.00     0.195 C 
HETATM   13  C   UNL     1      63.235   7.097   2.753  1.00  0.00     0.261 C 
HETATM   14  H   UNL     1      63.208   6.102   4.577  1.00  0.00     0.280 HD
ENDBRANCH   7   8
ENDBRANCH   1   7
BRANCH   3  15
HETATM   15  C   UNL     1      66.602   5.952   8.627  1.00  0.00     0.270 C 
BRANCH  15  16
HETATM   16  N   UNL     1      66.399   4.505   8.724  1.00  0.00    -0.075 N 
HETATM   17  C   UNL     1      67.681   3.813   8.775  1.00  0.00     0.267 C 
HETATM   18  H   UNL     1      65.876   4.184   7.910  1.00  0.00     0.277 HD
HETATM   19  H   UNL     1      65.880   4.301   9.578  1.00  0.00     0.277 HD
ENDBRANCH  15  16
ENDBRANCH   3  15
TORSDOF 4
ENDMDL
MODEL 9
REMARK VINA RESULT:      -4.1     10.095     12.024
REMARK  4 active torsions:
REMARK  status: ('A' for Active; 'I' for Inactive)
REMARK    1  A    between atoms: N_1  and  C_2 
REMARK    2  A    between atoms: C_2  and  C_4 
REMARK    3  A    between atoms: N_6  and  C_13 
REMARK    4  A    between atoms: C_7  and  C_13 
ROOT
HETATM    1  C   UNL     1      58.350   1.908  11.628  1.00  0.00    -0.032 A 
HETATM    2  C   UNL     1      57.008   1.889  12.046  1.00  0.00     0.017 A 
HETATM    3  C   UNL     1      56.661   1.763  13.403  1.00  0.00    -0.032 A 
HETATM    4  C   UNL     1      59.023   1.601  13.942  1.00  0.00     0.001 A 
HETATM    5  C   UNL     1      59.356   1.757  12.592  1.00  0.00     0.009 A 
HETATM    6  C   UNL     1      57.687   1.613  14.345  1.00  0.00     0.009 A 
ENDROOT
BRANCH   1   7
HETATM    7  C   UNL     1      58.677   2.255  10.189  1.00  0.00     0.273 C 
BRANCH   7   8
HETATM    8  N   UNL     1      57.915   3.376   9.619  1.00  0.00    -0.063 N 
HETATM    9  C   UNL     1      58.767   4.534   9.265  1.00  0.00     0.261 C 
HETATM   10  C   UNL     1      59.610   4.355   7.987  1.00  0.00     0.195 C 
HETATM   11  O   UNL     1      58.804   3.965   6.869  1.00  0.00    -0.388 OA
HETATM   12  C   UNL     1      58.084   2.762   7.162  1.00  0.00     0.195 C 
HETATM   13  C   UNL     1      57.190   2.943   8.400  1.00  0.00     0.261 C 
HETATM   14  H   UNL     1      57.263   3.669  10.346  1.00  0.00     0.280 HD
ENDBRANCH   7   8
ENDBRANCH   1   7
BRANCH   3  15
HETATM   15  C   UNL     1      55.223   1.902  13.841  1.00  0.00     0.270 C 
BRANCH  15  16
HETATM   16  N   UNL     1      55.003   3.057  14.715  1.00  0.00    -0.075 N 
HETATM   17  C   UNL     1      54.531   4.198  13.941  1.00  0.00     0.267 C 
HETATM   18  H   UNL     1      55.880   3.301  15.174  1.00  0.00     0.277 HD
HETATM   19  H   UNL     1      54.298   2.815  15.410  1.00  0.00     0.277 HD
ENDBRANCH  15  16
ENDBRANCH   3  15
TORSDOF 4
ENDMDL
