MODEL 1
REMARK VINA RESULT:      -5.5      0.000      0.000
REMARK  2 active torsions:
REMARK  status: ('A' for Active; 'I' for Inactive)
REMARK    1  A    between atoms: C_1  and  C_2 
REMARK    2  A    between atoms: C_3  and  C_11 
ROOT
HETATM    1  C   UNL     1      65.212   6.774   6.835  1.00  0.00     0.040 A 
HETATM    2  C   UNL     1      63.778   8.118   4.785  1.00  0.00    -0.025 A 
HETATM    3  C   UNL     1      65.823   7.790   6.095  1.00  0.00     0.019 A 
HETATM    4  C   UNL     1      63.884   6.436   6.568  1.00  0.00     0.019 A 
HETATM    5  C   UNL     1      65.111   8.453   5.086  1.00  0.00     0.013 A 
HETATM    6  C   UNL     1      63.187   7.088   5.544  1.00  0.00     0.013 A 
ENDROOT
BRANCH   2   7
HETATM    7  C   UNL     1      63.012   8.836   3.740  1.00  0.00    -0.011 A 
HETATM    8  C   UNL     1      62.410  10.076   3.980  1.00  0.00     0.099 A 
HETATM    9  N   UNL     1      61.693  10.794   3.078  1.00  0.00    -0.374 N 
HETATM   10  C   UNL     1      61.573  10.263   1.847  1.00  0.00     0.087 A 
ATOM     11  HN  UNL     1      61.268  11.689   3.321  1.00  0.00     0.164 HD
HETATM   12  C   UNL     1      62.128   9.051   1.482  1.00  0.00     0.018 A 
HETATM   13  C   UNL     1      62.846   8.333   2.441  1.00  0.00     0.015 A 
ENDBRANCH   2   7
BRANCH   1  14
HETATM   14  C   UNL     1      65.987   6.122   7.917  1.00  0.00     0.209 C 
HETATM   15  O   UNL     1      65.810   4.965   8.255  1.00  0.00    -0.644 OA
HETATM   16  O   UNL     1      66.874   6.943   8.520  1.00  0.00    -0.644 OA
ENDBRANCH   1  14
TORSDOF 2
ENDMDL
MODEL 2
REMARK VINA RESULT:      -5.5      0.180      1.256
REMARK  2 active torsions:
REMARK  status: ('A' for Active; 'I' for Inactive)
REMARK    1  A    between atoms: C_1  and  C_2 
REMARK    2  A    between atoms: C_3  and  C_11 
ROOT
HETATM    1  C   UNL     1      65.124   6.745   6.828  1.00  0.00     0.040 A 
HETATM    2  C   UNL     1      63.699   8.195   4.844  1.00  0.00    -0.025 A 
HETATM    3  C   UNL     1      63.785   6.446   6.558  1.00  0.00     0.019 A 
HETATM    4  C   UNL     1      65.759   7.754   6.101  1.00  0.00     0.019 A 
HETATM    5  C   UNL     1      63.086   7.161   5.577  1.00  0.00     0.013 A 
HETATM    6  C   UNL     1      65.047   8.479   5.138  1.00  0.00     0.013 A 
ENDROOT
BRANCH   2   7
HETATM    7  C   UNL     1      62.973   8.933   3.785  1.00  0.00    -0.011 A 
HETATM    8  C   UNL     1      62.366  10.170   4.023  1.00  0.00     0.099 A 
HETATM    9  N   UNL     1      61.684  10.905   3.108  1.00  0.00    -0.374 N 
HETATM   10  C   UNL     1      61.605  10.395   1.865  1.00  0.00     0.087 A 
ATOM     11  HN  UNL     1      61.254  11.798   3.350  1.00  0.00     0.164 HD
HETATM   12  C   UNL     1      62.168   9.186   1.501  1.00  0.00     0.018 A 
HETATM   13  C   UNL     1      62.850   8.450   2.473  1.00  0.00     0.015 A 
ENDBRANCH   2   7
BRANCH   1  14
HETATM   14  C   UNL     1      65.838   5.942   7.848  1.00  0.00     0.209 C 
HETATM   15  O   UNL     1      65.661   4.745   7.992  1.00  0.00    -0.644 OA
HETATM   16  O   UNL     1      66.669   6.667   8.627  1.00  0.00    -0.644 OA
ENDBRANCH   1  14
TORSDOF 2
ENDMDL
MODEL 3
REMARK VINA RESULT:      -5.4      4.031      6.195
REMARK  2 active torsions:
REMARK  status: ('A' for Active; 'I' for Inactive)
REMARK    1  A    between atoms: C_1  and  C_2 
REMARK    2  A    between atoms: C_3  and  C_11 
ROOT
HETATM    1  C   UNL     1      62.528   8.985   2.883  1.00  0.00     0.040 A 
HETATM    2  C   UNL     1      64.236   8.008   4.931  1.00  0.00    -0.025 A 
HETATM    3  C   UNL     1      62.733   9.729   4.048  1.00  0.00     0.019 A 
HETATM    4  C   UNL     1      63.184   7.762   2.728  1.00  0.00     0.019 A 
HETATM    5  C   UNL     1      63.578   9.245   5.055  1.00  0.00     0.013 A 
HETATM    6  C   UNL     1      64.010   7.276   3.749  1.00  0.00     0.013 A 
ENDROOT
BRANCH   2   7
HETATM    7  C   UNL     1      65.154   7.507   5.980  1.00  0.00    -0.011 A 
HETATM    8  C   UNL     1      66.356   8.154   6.287  1.00  0.00     0.099 A 
HETATM    9  N   UNL     1      67.248   7.758   7.230  1.00  0.00    -0.374 N 
HETATM   10  C   UNL     1      66.930   6.655   7.933  1.00  0.00     0.087 A 
ATOM     11  HN  UNL     1      68.115   8.270   7.398  1.00  0.00     0.164 HD
HETATM   12  C   UNL     1      65.769   5.931   7.730  1.00  0.00     0.018 A 
HETATM   13  C   UNL     1      64.882   6.360   6.741  1.00  0.00     0.015 A 
ENDBRANCH   2   7
BRANCH   1  14
HETATM   14  C   UNL     1      61.655   9.548   1.826  1.00  0.00     0.209 C 
HETATM   15  O   UNL     1      60.936   8.859   1.124  1.00  0.00    -0.644 OA
HETATM   16  O   UNL     1      61.764  10.887   1.687  1.00  0.00    -0.644 OA
ENDBRANCH   1  14
TORSDOF 2
ENDMDL
MODEL 4
REMARK VINA RESULT:      -5.1      3.906      6.575
REMARK  2 active torsions:
REMARK  status: ('A' for Active; 'I' for Inactive)
REMARK    1  A    between atoms: C_1  and  C_2 
REMARK    2  A    between atoms: C_3  and  C_11 
ROOT
HETATM    1  C   UNL     1      63.271   8.609   4.933  1.00  0.00     0.040 A 
HETATM    2  C   UNL     1      64.993   6.995   6.512  1.00  0.00    -0.025 A 
HETATM    3  C   UNL     1      62.750   7.575   5.715  1.00  0.00     0.019 A 
HETATM    4  C   UNL     1      64.645   8.853   4.948  1.00  0.00     0.019 A 
HETATM    5  C   UNL     1      63.602   6.781   6.494  1.00  0.00     0.013 A 
HETATM    6  C   UNL     1      65.492   8.042   5.713  1.00  0.00     0.013 A 
ENDROOT
BRANCH   2   7
HETATM    7  C   UNL     1      65.894   6.179   7.359  1.00  0.00    -0.011 A 
HETATM    8  C   UNL     1      65.785   4.787   7.434  1.00  0.00     0.099 A 
HETATM    9  N   UNL     1      66.570   3.972   8.184  1.00  0.00    -0.374 N 
HETATM   10  C   UNL     1      67.541   4.566   8.901  1.00  0.00     0.087 A 
ATOM     11  HN  UNL     1      66.430   2.961   8.204  1.00  0.00     0.164 HD
HETATM   12  C   UNL     1      67.757   5.932   8.906  1.00  0.00     0.018 A 
HETATM   13  C   UNL     1      66.921   6.741   8.133  1.00  0.00     0.015 A 
ENDBRANCH   2   7
BRANCH   1  14
HETATM   14  C   UNL     1      62.332   9.448   4.151  1.00  0.00     0.209 C 
HETATM   15  O   UNL     1      62.165  10.635   4.368  1.00  0.00    -0.644 OA
HETATM   16  O   UNL     1      61.651   8.765   3.206  1.00  0.00    -0.644 OA
ENDBRANCH   1  14
TORSDOF 2
ENDMDL
MODEL 5
REMARK VINA RESULT:      -5.1      4.090      6.180
REMARK  2 active torsions:
REMARK  status: ('A' for Active; 'I' for Inactive)
REMARK    1  A    between atoms: C_1  and  C_2 
REMARK    2  A    between atoms: C_3  and  C_11 
ROOT
HETATM    1  C   UNL     1      62.970   9.005   3.714  1.00  0.00     0.040 A 
HETATM    2  C   UNL     1      65.004   7.438   4.927  1.00  0.00    -0.025 A 
HETATM    3  C   UNL     1      63.374   7.799   3.134  1.00  0.00     0.019 A 
HETATM    4  C   UNL     1      63.565   9.425   4.905  1.00  0.00     0.019 A 
HETATM    5  C   UNL     1      64.377   7.028   3.736  1.00  0.00     0.013 A 
HETATM    6  C   UNL     1      64.581   8.659   5.489  1.00  0.00     0.013 A 
ENDROOT
BRANCH   2   7
HETATM    7  C   UNL     1      66.043   6.611   5.584  1.00  0.00    -0.011 A 
HETATM    8  C   UNL     1      66.995   7.161   6.448  1.00  0.00     0.099 A 
HETATM    9  N   UNL     1      67.975   6.472   7.085  1.00  0.00    -0.374 N 
HETATM   10  C   UNL     1      68.014   5.144   6.870  1.00  0.00     0.087 A 
ATOM     11  HN  UNL     1      68.648   6.936   7.696  1.00  0.00     0.164 HD
HETATM   12  C   UNL     1      67.125   4.480   6.045  1.00  0.00     0.018 A 
HETATM   13  C   UNL     1      66.138   5.224   5.394  1.00  0.00     0.015 A 
ENDBRANCH   2   7
BRANCH   1  14
HETATM   14  C   UNL     1      61.882   9.773   3.065  1.00  0.00     0.209 C 
HETATM   15  O   UNL     1      61.411   9.471   1.982  1.00  0.00    -0.644 OA
HETATM   16  O   UNL     1      61.492  10.861   3.764  1.00  0.00    -0.644 OA
ENDBRANCH   1  14
TORSDOF 2
ENDMDL
MODEL 6
REMARK VINA RESULT:      -4.9      1.925      2.617
REMARK  2 active torsions:
REMARK  status: ('A' for Active; 'I' for Inactive)
REMARK    1  A    between atoms: C_1  and  C_2 
REMARK    2  A    between atoms: C_3  and  C_11 
ROOT
HETATM    1  C   UNL     1      65.231   7.968   5.160  1.00  0.00     0.040 A 
HETATM    2  C   UNL     1      63.116   7.867   3.266  1.00  0.00    -0.025 A 
HETATM    3  C   UNL     1      65.118   6.885   4.283  1.00  0.00     0.019 A 
HETATM    4  C   UNL     1      64.303   9.009   5.085  1.00  0.00     0.019 A 
HETATM    5  C   UNL     1      64.074   6.839   3.349  1.00  0.00     0.013 A 
HETATM    6  C   UNL     1      63.251   8.945   4.163  1.00  0.00     0.013 A 
ENDROOT
BRANCH   2   7
HETATM    7  C   UNL     1      62.030   7.838   2.260  1.00  0.00    -0.011 A 
HETATM    8  C   UNL     1      60.898   8.653   2.364  1.00  0.00     0.099 A 
HETATM    9  N   UNL     1      59.863   8.683   1.486  1.00  0.00    -0.374 N 
HETATM   10  C   UNL     1      59.953   7.865   0.421  1.00  0.00     0.087 A 
ATOM     11  HN  UNL     1      59.058   9.294   1.627  1.00  0.00     0.164 HD
HETATM   12  C   UNL     1      61.024   7.018   0.200  1.00  0.00     0.018 A 
HETATM   13  C   UNL     1      62.064   7.003   1.133  1.00  0.00     0.015 A 
ENDBRANCH   2   7
BRANCH   1  14
HETATM   14  C   UNL     1      66.369   7.996   6.108  1.00  0.00     0.209 C 
HETATM   15  O   UNL     1      66.249   7.748   7.295  1.00  0.00    -0.644 OA
HETATM   16  O   UNL     1      67.539   8.363   5.543  1.00  0.00    -0.644 OA
ENDBRANCH   1  14
TORSDOF 2
ENDMDL
MODEL 7
REMARK VINA RESULT:      -4.8      4.313      5.435
REMARK  2 active torsions:
REMARK  status: ('A' for Active; 'I' for Inactive)
REMARK    1  A    between atoms: C_1  and  C_2 
REMARK    2  A    between atoms: C_3  and  C_11 
ROOT
HETATM    1  C   UNL     1      63.401   9.351   4.639  1.00  0.00     0.040 A 
HETATM    2  C   UNL     1      64.650   6.990   3.673  1.00  0.00    -0.025 A 
HETATM    3  C   UNL     1      64.565   8.869   5.243  1.00  0.00     0.019 A 
HETATM    4  C   UNL     1      62.865   8.668   3.544  1.00  0.00     0.019 A 
HETATM    5  C   UNL     1      65.180   7.705   4.763  1.00  0.00     0.013 A 
HETATM    6  C   UNL     1      63.474   7.494   3.084  1.00  0.00     0.013 A 
ENDROOT
BRANCH   2   7
HETATM    7  C   UNL     1      65.314   5.777   3.142  1.00  0.00    -0.011 A 
HETATM    8  C   UNL     1      66.589   5.384   3.561  1.00  0.00     0.099 A 
HETATM    9  N   UNL     1      67.262   4.289   3.123  1.00  0.00    -0.374 N 
HETATM   10  C   UNL     1      66.631   3.517   2.219  1.00  0.00     0.087 A 
ATOM     11  HN  UNL     1      68.198   4.064   3.461  1.00  0.00     0.164 HD
HETATM   12  C   UNL     1      65.367   3.793   1.731  1.00  0.00     0.018 A 
HETATM   13  C   UNL     1      64.710   4.936   2.194  1.00  0.00     0.015 A 
ENDBRANCH   2   7
BRANCH   1  14
HETATM   14  C   UNL     1      62.801  10.604   5.154  1.00  0.00     0.209 C 
HETATM   15  O   UNL     1      63.095  11.084   6.235  1.00  0.00    -0.644 OA
HETATM   16  O   UNL     1      61.871  11.139   4.334  1.00  0.00    -0.644 OA
ENDBRANCH   1  14
TORSDOF 2
ENDMDL
MODEL 8
REMARK VINA RESULT:      -4.6      1.273      2.019
REMARK  2 active torsions:
REMARK  status: ('A' for Active; 'I' for Inactive)
REMARK    1  A    between atoms: C_1  and  C_2 
REMARK    2  A    between atoms: C_3  and  C_11 
ROOT
HETATM    1  C   UNL     1      65.708   6.951   6.774  1.00  0.00     0.040 A 
HETATM    2  C   UNL     1      63.877   7.693   4.734  1.00  0.00    -0.025 A 
HETATM    3  C   UNL     1      64.558   6.190   6.545  1.00  0.00     0.019 A 
HETATM    4  C   UNL     1      65.957   8.071   5.979  1.00  0.00     0.019 A 
HETATM    5  C   UNL     1      63.658   6.558   5.536  1.00  0.00     0.013 A 
HETATM    6  C   UNL     1      65.041   8.444   4.987  1.00  0.00     0.013 A 
ENDROOT
BRANCH   2   7
HETATM    7  C   UNL     1      62.944   8.068   3.646  1.00  0.00    -0.011 A 
HETATM    8  C   UNL     1      62.299   7.110   2.857  1.00  0.00     0.099 A 
HETATM    9  N   UNL     1      61.434   7.373   1.844  1.00  0.00    -0.374 N 
HETATM   10  C   UNL     1      61.172   8.670   1.599  1.00  0.00     0.087 A 
ATOM     11  HN  UNL     1      61.005   6.626   1.297  1.00  0.00     0.164 HD
HETATM   12  C   UNL     1      61.739   9.710   2.312  1.00  0.00     0.018 A 
HETATM   13  C   UNL     1      62.636   9.402   3.338  1.00  0.00     0.015 A 
ENDBRANCH   2   7
BRANCH   1  14
HETATM   14  C   UNL     1      66.652   6.508   7.826  1.00  0.00     0.209 C 
HETATM   15  O   UNL     1      67.795   6.160   7.587  1.00  0.00    -0.644 OA
HETATM   16  O   UNL     1      66.115   6.486   9.065  1.00  0.00    -0.644 OA
ENDBRANCH   1  14
TORSDOF 2
ENDMDL
MODEL 9
REMARK VINA RESULT:      -4.6      3.679      4.396
REMARK  2 active torsions:
REMARK  status: ('A' for Active; 'I' for Inactive)
REMARK    1  A    between atoms: C_1  and  C_2 
REMARK    2  A    between atoms: C_3  and  C_11 
ROOT
HETATM    1  C   UNL     1      63.307   8.370   4.614  1.00  0.00     0.040 A 
HETATM    2  C   UNL     1      60.703   7.761   3.655  1.00  0.00    -0.025 A 
HETATM    3  C   UNL     1      62.709   9.168   3.635  1.00  0.00     0.019 A 
HETATM    4  C   UNL     1      62.605   7.278   5.128  1.00  0.00     0.019 A 
HETATM    5  C   UNL     1      61.424   8.867   3.166  1.00  0.00     0.013 A 
HETATM    6  C   UNL     1      61.330   6.970   4.639  1.00  0.00     0.013 A 
ENDROOT
BRANCH   2   7
HETATM    7  C   UNL     1      59.332   7.457   3.185  1.00  0.00    -0.011 A 
HETATM    8  C   UNL     1      59.021   7.342   1.826  1.00  0.00     0.099 A 
HETATM    9  N   UNL     1      57.793   7.067   1.318  1.00  0.00    -0.374 N 
HETATM   10  C   UNL     1      56.802   6.876   2.208  1.00  0.00     0.087 A 
ATOM     11  HN  UNL     1      57.629   7.008   0.312  1.00  0.00     0.164 HD
HETATM   12  C   UNL     1      56.983   6.954   3.577  1.00  0.00     0.018 A 
HETATM   13  C   UNL     1      58.257   7.253   4.064  1.00  0.00     0.015 A 
ENDBRANCH   2   7
BRANCH   1  14
HETATM   14  C   UNL     1      64.653   8.743   5.109  1.00  0.00     0.209 C 
HETATM   15  O   UNL     1      65.644   8.063   4.911  1.00  0.00    -0.644 OA
HETATM   16  O   UNL     1      64.668   9.883   5.834  1.00  0.00    -0.644 OA
ENDBRANCH   1  14
TORSDOF 2
ENDMDL
