MODEL 1
REMARK VINA RESULT:      -5.4      0.000      0.000
REMARK  1 active torsions:
REMARK  status: ('A' for Active; 'I' for Inactive)
REMARK    1  A    between atoms: C_6  and  C_7 
ROOT
HETATM    1  N   UNL     1      62.830   6.955   1.281  1.00  0.00    -0.360 N 
HETATM    2  C   UNL     1      62.130   8.944   2.010  1.00  0.00    -0.007 A 
HETATM    3  C   UNL     1      62.893   7.824   2.352  1.00  0.00     0.044 A 
HETATM    4  C   UNL     1      62.039   7.476   0.292  1.00  0.00     0.091 A 
HETATM    5  C   UNL     1      61.594   8.708   0.714  1.00  0.00     0.031 A 
HETATM    6  C   UNL     1      62.703   9.929   4.157  1.00  0.00     0.041 A 
HETATM    7  C   UNL     1      62.033  10.012   2.925  1.00  0.00     0.032 A 
HETATM    8  C   UNL     1      63.561   7.722   3.582  1.00  0.00     0.031 A 
HETATM    9  C   UNL     1      63.452   8.792   4.476  1.00  0.00     0.021 A 
HETATM   10  C   UNL     1      63.514   5.684   1.203  1.00  0.00     0.155 C 
ENDROOT
BRANCH   6  11
HETATM   11  C   UNL     1      62.593  11.077   5.088  1.00  0.00     0.209 C 
HETATM   12  O   UNL     1      63.069  11.141   6.207  1.00  0.00    -0.644 OA
HETATM   13  O   UNL     1      61.883  12.100   4.576  1.00  0.00    -0.644 OA
ENDBRANCH   6  11
TORSDOF 1
ENDMDL
MODEL 2
REMARK VINA RESULT:      -4.9      2.543      3.628
REMARK  1 active torsions:
REMARK  status: ('A' for Active; 'I' for Inactive)
REMARK    1  A    between atoms: C_6  and  C_7 
ROOT
HETATM    1  N   UNL     1      62.009  10.309   2.087  1.00  0.00    -0.360 N 
HETATM    2  C   UNL     1      62.611   8.325   2.912  1.00  0.00    -0.007 A 
HETATM    3  C   UNL     1      62.428   9.671   3.238  1.00  0.00     0.044 A 
HETATM    4  C   UNL     1      61.943   9.418   1.048  1.00  0.00     0.091 A 
HETATM    5  C   UNL     1      62.308   8.181   1.530  1.00  0.00     0.031 A 
HETATM    6  C   UNL     1      63.246   7.903   5.219  1.00  0.00     0.041 A 
HETATM    7  C   UNL     1      63.025   7.427   3.917  1.00  0.00     0.032 A 
HETATM    8  C   UNL     1      62.654  10.164   4.532  1.00  0.00     0.031 A 
HETATM    9  C   UNL     1      63.065   9.257   5.515  1.00  0.00     0.021 A 
HETATM   10  C   UNL     1      61.668  11.711   1.992  1.00  0.00     0.155 C 
ENDROOT
BRANCH   6  11
HETATM   11  C   UNL     1      63.666   6.928   6.255  1.00  0.00     0.209 C 
HETATM   12  O   UNL     1      64.337   7.174   7.240  1.00  0.00    -0.644 OA
HETATM   13  O   UNL     1      63.228   5.679   6.006  1.00  0.00    -0.644 OA
ENDBRANCH   6  11
TORSDOF 1
ENDMDL
MODEL 3
REMARK VINA RESULT:      -4.8      2.350      3.249
REMARK  1 active torsions:
REMARK  status: ('A' for Active; 'I' for Inactive)
REMARK    1  A    between atoms: C_6  and  C_7 
ROOT
HETATM    1  N   UNL     1      62.132   9.049   1.730  1.00  0.00    -0.360 N 
HETATM    2  C   UNL     1      62.826   9.426   3.817  1.00  0.00    -0.007 A 
HETATM    3  C   UNL     1      62.854   8.500   2.772  1.00  0.00     0.044 A 
HETATM    4  C   UNL     1      61.636  10.273   2.090  1.00  0.00     0.091 A 
HETATM    5  C   UNL     1      62.052  10.535   3.376  1.00  0.00     0.031 A 
HETATM    6  C   UNL     1      64.196   7.911   5.133  1.00  0.00     0.041 A 
HETATM    7  C   UNL     1      63.507   9.129   5.015  1.00  0.00     0.032 A 
HETATM    8  C   UNL     1      63.529   7.274   2.877  1.00  0.00     0.031 A 
HETATM    9  C   UNL     1      64.199   6.997   4.075  1.00  0.00     0.021 A 
HETATM   10  C   UNL     1      61.943   8.431   0.437  1.00  0.00     0.155 C 
ENDROOT
BRANCH   6  11
HETATM   11  C   UNL     1      64.915   7.638   6.401  1.00  0.00     0.209 C 
HETATM   12  O   UNL     1      64.541   6.896   7.291  1.00  0.00    -0.644 OA
HETATM   13  O   UNL     1      66.075   8.314   6.501  1.00  0.00    -0.644 OA
ENDBRANCH   6  11
TORSDOF 1
ENDMDL
MODEL 4
REMARK VINA RESULT:      -4.8      1.807      3.124
REMARK  1 active torsions:
REMARK  status: ('A' for Active; 'I' for Inactive)
REMARK    1  A    between atoms: C_6  and  C_7 
ROOT
HETATM    1  N   UNL     1      65.017   5.879   3.364  1.00  0.00    -0.360 N 
HETATM    2  C   UNL     1      64.997   7.699   4.655  1.00  0.00    -0.007 A 
HETATM    3  C   UNL     1      64.319   7.042   3.626  1.00  0.00     0.044 A 
HETATM    4  C   UNL     1      66.118   5.795   4.174  1.00  0.00     0.091 A 
HETATM    5  C   UNL     1      66.130   6.906   4.986  1.00  0.00     0.031 A 
HETATM    6  C   UNL     1      63.313   9.449   4.581  1.00  0.00     0.041 A 
HETATM    7  C   UNL     1      64.487   8.920   5.141  1.00  0.00     0.032 A 
HETATM    8  C   UNL     1      63.150   7.561   3.049  1.00  0.00     0.031 A 
HETATM    9  C   UNL     1      62.660   8.775   3.545  1.00  0.00     0.021 A 
HETATM   10  C   UNL     1      64.634   4.883   2.389  1.00  0.00     0.155 C 
ENDROOT
BRANCH   6  11
HETATM   11  C   UNL     1      62.796  10.728   5.127  1.00  0.00     0.209 C 
HETATM   12  O   UNL     1      63.046  11.191   6.224  1.00  0.00    -0.644 OA
HETATM   13  O   UNL     1      61.980  11.371   4.271  1.00  0.00    -0.644 OA
ENDBRANCH   6  11
TORSDOF 1
ENDMDL
MODEL 5
REMARK VINA RESULT:      -4.6      2.524      3.737
REMARK  1 active torsions:
REMARK  status: ('A' for Active; 'I' for Inactive)
REMARK    1  A    between atoms: C_6  and  C_7 
ROOT
HETATM    1  N   UNL     1      62.953   6.007   5.664  1.00  0.00    -0.360 N 
HETATM    2  C   UNL     1      63.516   8.096   5.122  1.00  0.00    -0.007 A 
HETATM    3  C   UNL     1      62.523   7.125   4.977  1.00  0.00     0.044 A 
HETATM    4  C   UNL     1      64.186   6.233   6.215  1.00  0.00     0.091 A 
HETATM    5  C   UNL     1      64.559   7.519   5.898  1.00  0.00     0.031 A 
HETATM    6  C   UNL     1      62.153   9.617   3.806  1.00  0.00     0.041 A 
HETATM    7  C   UNL     1      63.329   9.361   4.528  1.00  0.00     0.032 A 
HETATM    8  C   UNL     1      61.346   7.361   4.250  1.00  0.00     0.031 A 
HETATM    9  C   UNL     1      61.179   8.623   3.668  1.00  0.00     0.021 A 
HETATM   10  C   UNL     1      62.203   4.778   5.801  1.00  0.00     0.155 C 
ENDROOT
BRANCH   6  11
HETATM   11  C   UNL     1      61.982  10.963   3.208  1.00  0.00     0.209 C 
HETATM   12  O   UNL     1      61.881  11.213   2.021  1.00  0.00    -0.644 OA
HETATM   13  O   UNL     1      61.949  11.945   4.129  1.00  0.00    -0.644 OA
ENDBRANCH   6  11
TORSDOF 1
ENDMDL
MODEL 6
REMARK VINA RESULT:      -4.5      1.564      1.862
REMARK  1 active torsions:
REMARK  status: ('A' for Active; 'I' for Inactive)
REMARK    1  A    between atoms: C_6  and  C_7 
ROOT
HETATM    1  N   UNL     1      60.769   6.954   1.610  1.00  0.00    -0.360 N 
HETATM    2  C   UNL     1      61.720   8.837   2.336  1.00  0.00    -0.007 A 
HETATM    3  C   UNL     1      61.409   7.523   2.694  1.00  0.00     0.044 A 
HETATM    4  C   UNL     1      60.648   7.867   0.597  1.00  0.00     0.091 A 
HETATM    5  C   UNL     1      61.230   9.041   1.016  1.00  0.00     0.031 A 
HETATM    6  C   UNL     1      62.753   9.134   4.515  1.00  0.00     0.041 A 
HETATM    7  C   UNL     1      62.403   9.655   3.259  1.00  0.00     0.032 A 
HETATM    8  C   UNL     1      61.744   6.990   3.948  1.00  0.00     0.031 A 
HETATM    9  C   UNL     1      62.420   7.818   4.851  1.00  0.00     0.021 A 
HETATM   10  C   UNL     1      60.308   5.585   1.545  1.00  0.00     0.155 C 
ENDROOT
BRANCH   6  11
HETATM   11  C   UNL     1      63.484  10.018   5.456  1.00  0.00     0.209 C 
HETATM   12  O   UNL     1      63.050  11.031   5.972  1.00  0.00    -0.644 OA
HETATM   13  O   UNL     1      64.737   9.593   5.706  1.00  0.00    -0.644 OA
ENDBRANCH   6  11
TORSDOF 1
ENDMDL
MODEL 7
REMARK VINA RESULT:      -4.4      2.360      3.558
REMARK  1 active torsions:
REMARK  status: ('A' for Active; 'I' for Inactive)
REMARK    1  A    between atoms: C_6  and  C_7 
ROOT
HETATM    1  N   UNL     1      62.199   7.850   1.996  1.00  0.00    -0.360 N 
HETATM    2  C   UNL     1      63.956   7.017   3.090  1.00  0.00    -0.007 A 
HETATM    3  C   UNL     1      63.036   8.068   3.073  1.00  0.00     0.044 A 
HETATM    4  C   UNL     1      62.574   6.716   1.326  1.00  0.00     0.091 A 
HETATM    5  C   UNL     1      63.657   6.177   1.982  1.00  0.00     0.031 A 
HETATM    6  C   UNL     1      64.955   7.989   5.081  1.00  0.00     0.041 A 
HETATM    7  C   UNL     1      64.930   6.976   4.109  1.00  0.00     0.032 A 
HETATM    8  C   UNL     1      63.053   9.093   4.031  1.00  0.00     0.031 A 
HETATM    9  C   UNL     1      64.028   9.034   5.034  1.00  0.00     0.021 A 
HETATM   10  C   UNL     1      61.076   8.686   1.636  1.00  0.00     0.155 C 
ENDROOT
BRANCH   6  11
HETATM   11  C   UNL     1      65.983   7.906   6.147  1.00  0.00     0.209 C 
HETATM   12  O   UNL     1      66.538   8.848   6.682  1.00  0.00    -0.644 OA
HETATM   13  O   UNL     1      66.276   6.638   6.494  1.00  0.00    -0.644 OA
ENDBRANCH   6  11
TORSDOF 1
ENDMDL
MODEL 8
REMARK VINA RESULT:      -4.4      3.118      3.829
REMARK  1 active torsions:
REMARK  status: ('A' for Active; 'I' for Inactive)
REMARK    1  A    between atoms: C_6  and  C_7 
ROOT
HETATM    1  N   UNL     1      61.074   7.544   4.115  1.00  0.00    -0.360 N 
HETATM    2  C   UNL     1      63.107   8.461   4.174  1.00  0.00    -0.007 A 
HETATM    3  C   UNL     1      62.281   7.514   4.785  1.00  0.00     0.044 A 
HETATM    4  C   UNL     1      61.105   8.487   3.123  1.00  0.00     0.091 A 
HETATM    5  C   UNL     1      62.351   9.070   3.134  1.00  0.00     0.031 A 
HETATM    6  C   UNL     1      64.874   7.851   5.727  1.00  0.00     0.041 A 
HETATM    7  C   UNL     1      64.422   8.633   4.651  1.00  0.00     0.032 A 
HETATM    8  C   UNL     1      62.714   6.732   5.867  1.00  0.00     0.031 A 
HETATM    9  C   UNL     1      64.023   6.917   6.326  1.00  0.00     0.021 A 
HETATM   10  C   UNL     1      59.944   6.689   4.404  1.00  0.00     0.155 C 
ENDROOT
BRANCH   6  11
HETATM   11  C   UNL     1      66.268   8.046   6.192  1.00  0.00     0.209 C 
HETATM   12  O   UNL     1      66.653   7.993   7.346  1.00  0.00    -0.644 OA
HETATM   13  O   UNL     1      67.124   8.306   5.186  1.00  0.00    -0.644 OA
ENDBRANCH   6  11
TORSDOF 1
ENDMDL
MODEL 9
REMARK VINA RESULT:      -4.4      6.578      7.901
REMARK  1 active torsions:
REMARK  status: ('A' for Active; 'I' for Inactive)
REMARK    1  A    between atoms: C_6  and  C_7 
ROOT
HETATM    1  N   UNL     1      67.893   2.668   7.975  1.00  0.00    -0.360 N 
HETATM    2  C   UNL     1      67.717   4.151   6.317  1.00  0.00    -0.007 A 
HETATM    3  C   UNL     1      67.658   4.002   7.705  1.00  0.00     0.044 A 
HETATM    4  C   UNL     1      68.074   1.973   6.809  1.00  0.00     0.091 A 
HETATM    5  C   UNL     1      67.974   2.866   5.766  1.00  0.00     0.031 A 
HETATM    6  C   UNL     1      67.286   6.526   6.603  1.00  0.00     0.041 A 
HETATM    7  C   UNL     1      67.528   5.432   5.757  1.00  0.00     0.032 A 
HETATM    8  C   UNL     1      67.407   5.084   8.563  1.00  0.00     0.031 A 
HETATM    9  C   UNL     1      67.223   6.346   7.988  1.00  0.00     0.021 A 
HETATM   10  C   UNL     1      67.958   2.089   9.298  1.00  0.00     0.155 C 
ENDROOT
BRANCH   6  11
HETATM   11  C   UNL     1      67.108   7.860   5.981  1.00  0.00     0.209 C 
HETATM   12  O   UNL     1      67.345   8.148   4.822  1.00  0.00    -0.644 OA
HETATM   13  O   UNL     1      66.644   8.783   6.845  1.00  0.00    -0.644 OA
ENDBRANCH   6  11
TORSDOF 1
ENDMDL
