MODEL 1
REMARK VINA RESULT:      -5.1      0.000      0.000
REMARK  3 active torsions:
REMARK  status: ('A' for Active; 'I' for Inactive)
REMARK    1  A    between atoms: C_3  and  C_4 
REMARK    2  A    between atoms: C_9  and  C_12 
REMARK    3  A    between atoms: O_10  and  C_12 
ROOT
HETATM    1  C   UNL     1      64.710   7.790   5.010  1.00  0.00    -0.009 A 
HETATM    2  C   UNL     1      64.271   7.188   3.817  1.00  0.00     0.014 A 
HETATM    3  C   UNL     1      64.121   9.018   5.362  1.00  0.00     0.014 A 
HETATM    4  C   UNL     1      63.142   9.618   4.566  1.00  0.00     0.010 A 
HETATM    5  C   UNL     1      63.290   7.785   3.015  1.00  0.00     0.010 A 
HETATM    6  C   UNL     1      62.720   9.010   3.380  1.00  0.00    -0.035 A 
ENDROOT
BRANCH   1   7
HETATM    7  C   UNL     1      65.760   7.163   5.842  1.00  0.00     0.042 A 
HETATM    8  N   UNL     1      65.583   7.248   7.187  1.00  0.00    -0.365 N 
HETATM    9  C   UNL     1      66.494   6.649   7.985  1.00  0.00     0.088 A 
ATOM     10  HN  UNL     1      64.787   7.750   7.581  1.00  0.00     0.165 HD
HETATM   11  C   UNL     1      67.597   5.960   7.516  1.00  0.00     0.017 A 
HETATM   12  C   UNL     1      67.785   5.892   6.144  1.00  0.00     0.004 A 
HETATM   13  C   UNL     1      66.863   6.501   5.297  1.00  0.00     0.030 A 
ENDBRANCH   1   7
BRANCH   6  14
HETATM   14  C   UNL     1      61.678   9.660   2.510  1.00  0.00     0.202 C 
BRANCH  14  15
HETATM   15  O   UNL     1      61.227  10.877   3.092  1.00  0.00    -0.396 OA
HETATM   16  H   UNL     1      61.903  11.210   3.703  1.00  0.00     0.209 HD
ENDBRANCH  14  15
ENDBRANCH   6  14
TORSDOF 3
ENDMDL
MODEL 2
REMARK VINA RESULT:      -5.1      0.152      1.293
REMARK  3 active torsions:
REMARK  status: ('A' for Active; 'I' for Inactive)
REMARK    1  A    between atoms: C_3  and  C_4 
REMARK    2  A    between atoms: C_9  and  C_12 
REMARK    3  A    between atoms: O_10  and  C_12 
ROOT
HETATM    1  C   UNL     1      64.811   7.723   4.992  1.00  0.00    -0.009 A 
HETATM    2  C   UNL     1      64.240   8.960   5.340  1.00  0.00     0.014 A 
HETATM    3  C   UNL     1      64.333   7.104   3.823  1.00  0.00     0.014 A 
HETATM    4  C   UNL     1      63.336   7.688   3.038  1.00  0.00     0.010 A 
HETATM    5  C   UNL     1      63.240   9.551   4.557  1.00  0.00     0.010 A 
HETATM    6  C   UNL     1      62.775   8.916   3.400  1.00  0.00    -0.035 A 
ENDROOT
BRANCH   1   7
HETATM    7  C   UNL     1      65.854   7.097   5.834  1.00  0.00     0.042 A 
HETATM    8  N   UNL     1      65.760   7.335   7.169  1.00  0.00    -0.365 N 
HETATM    9  C   UNL     1      66.664   6.745   7.982  1.00  0.00     0.088 A 
ATOM     10  HN  UNL     1      65.030   7.941   7.545  1.00  0.00     0.165 HD
HETATM   11  C   UNL     1      67.680   5.920   7.537  1.00  0.00     0.017 A 
HETATM   12  C   UNL     1      67.784   5.695   6.173  1.00  0.00     0.004 A 
HETATM   13  C   UNL     1      66.866   6.291   5.311  1.00  0.00     0.030 A 
ENDBRANCH   1   7
BRANCH   6  14
HETATM   14  C   UNL     1      61.688   9.542   2.567  1.00  0.00     0.202 C 
BRANCH  14  15
HETATM   15  O   UNL     1      61.185  10.713   3.197  1.00  0.00    -0.396 OA
HETATM   16  H   UNL     1      60.697  10.463   3.997  1.00  0.00     0.209 HD
ENDBRANCH  14  15
ENDBRANCH   6  14
TORSDOF 3
ENDMDL
MODEL 3
REMARK VINA RESULT:      -5.0      3.096      5.875
REMARK  3 active torsions:
REMARK  status: ('A' for Active; 'I' for Inactive)
REMARK    1  A    between atoms: C_3  and  C_4 
REMARK    2  A    between atoms: C_9  and  C_12 
REMARK    3  A    between atoms: O_10  and  C_12 
ROOT
HETATM    1  C   UNL     1      64.993   7.880   5.589  1.00  0.00    -0.009 A 
HETATM    2  C   UNL     1      64.675   6.895   6.542  1.00  0.00     0.014 A 
HETATM    3  C   UNL     1      66.348   8.020   5.242  1.00  0.00     0.014 A 
HETATM    4  C   UNL     1      67.340   7.220   5.814  1.00  0.00     0.010 A 
HETATM    5  C   UNL     1      65.664   6.089   7.119  1.00  0.00     0.010 A 
HETATM    6  C   UNL     1      67.009   6.248   6.764  1.00  0.00    -0.035 A 
ENDROOT
BRANCH   1   7
HETATM    7  C   UNL     1      63.944   8.739   4.998  1.00  0.00     0.042 A 
HETATM    8  N   UNL     1      63.737   9.932   5.615  1.00  0.00    -0.365 N 
HETATM    9  C   UNL     1      62.820  10.770   5.082  1.00  0.00     0.088 A 
ATOM     10  HN  UNL     1      64.257  10.187   6.455  1.00  0.00     0.165 HD
HETATM   11  C   UNL     1      62.077  10.483   3.951  1.00  0.00     0.017 A 
HETATM   12  C   UNL     1      62.277   9.257   3.336  1.00  0.00     0.004 A 
HETATM   13  C   UNL     1      63.215   8.373   3.865  1.00  0.00     0.030 A 
ENDBRANCH   1   7
BRANCH   6  14
HETATM   14  C   UNL     1      68.075   5.395   7.396  1.00  0.00     0.202 C 
BRANCH  14  15
HETATM   15  O   UNL     1      67.798   5.187   8.775  1.00  0.00    -0.396 OA
HETATM   16  H   UNL     1      67.578   4.254   8.922  1.00  0.00     0.209 HD
ENDBRANCH  14  15
ENDBRANCH   6  14
TORSDOF 3
ENDMDL
MODEL 4
REMARK VINA RESULT:      -4.8      3.007      5.933
REMARK  3 active torsions:
REMARK  status: ('A' for Active; 'I' for Inactive)
REMARK    1  A    between atoms: C_3  and  C_4 
REMARK    2  A    between atoms: C_9  and  C_12 
REMARK    3  A    between atoms: O_10  and  C_12 
ROOT
HETATM    1  C   UNL     1      63.938   7.878   4.693  1.00  0.00    -0.009 A 
HETATM    2  C   UNL     1      65.187   8.424   5.039  1.00  0.00     0.014 A 
HETATM    3  C   UNL     1      63.454   6.828   5.494  1.00  0.00     0.014 A 
HETATM    4  C   UNL     1      64.177   6.346   6.588  1.00  0.00     0.010 A 
HETATM    5  C   UNL     1      65.917   7.945   6.135  1.00  0.00     0.010 A 
HETATM    6  C   UNL     1      65.420   6.895   6.917  1.00  0.00    -0.035 A 
ENDROOT
BRANCH   1   7
HETATM    7  C   UNL     1      63.182   8.377   3.523  1.00  0.00     0.042 A 
HETATM    8  N   UNL     1      63.114   7.536   2.458  1.00  0.00    -0.365 N 
HETATM    9  C   UNL     1      62.394   7.932   1.384  1.00  0.00     0.088 A 
ATOM     10  HN  UNL     1      63.591   6.635   2.468  1.00  0.00     0.165 HD
HETATM   11  C   UNL     1      61.730   9.142   1.304  1.00  0.00     0.017 A 
HETATM   12  C   UNL     1      61.818  10.005   2.385  1.00  0.00     0.004 A 
HETATM   13  C   UNL     1      62.554   9.623   3.504  1.00  0.00     0.030 A 
ENDBRANCH   1   7
BRANCH   6  14
HETATM   14  C   UNL     1      66.211   6.368   8.084  1.00  0.00     0.202 C 
BRANCH  14  15
HETATM   15  O   UNL     1      67.328   7.206   8.351  1.00  0.00    -0.396 OA
HETATM   16  H   UNL     1      67.133   7.765   9.121  1.00  0.00     0.209 HD
ENDBRANCH  14  15
ENDBRANCH   6  14
TORSDOF 3
ENDMDL
MODEL 5
REMARK VINA RESULT:      -4.7      2.945      6.036
REMARK  3 active torsions:
REMARK  status: ('A' for Active; 'I' for Inactive)
REMARK    1  A    between atoms: C_3  and  C_4 
REMARK    2  A    between atoms: C_9  and  C_12 
REMARK    3  A    between atoms: O_10  and  C_12 
ROOT
HETATM    1  C   UNL     1      63.386   7.825   3.463  1.00  0.00    -0.009 A 
HETATM    2  C   UNL     1      63.593   8.826   4.429  1.00  0.00     0.014 A 
HETATM    3  C   UNL     1      64.367   6.824   3.359  1.00  0.00     0.014 A 
HETATM    4  C   UNL     1      65.500   6.817   4.177  1.00  0.00     0.010 A 
HETATM    5  C   UNL     1      64.726   8.826   5.252  1.00  0.00     0.010 A 
HETATM    6  C   UNL     1      65.695   7.822   5.129  1.00  0.00    -0.035 A 
ENDROOT
BRANCH   1   7
HETATM    7  C   UNL     1      62.195   7.843   2.585  1.00  0.00     0.042 A 
HETATM    8  N   UNL     1      61.055   7.332   3.119  1.00  0.00    -0.365 N 
HETATM    9  C   UNL     1      59.931   7.371   2.370  1.00  0.00     0.088 A 
ATOM     10  HN  UNL     1      61.048   6.931   4.057  1.00  0.00     0.165 HD
HETATM   11  C   UNL     1      59.874   7.893   1.091  1.00  0.00     0.017 A 
HETATM   12  C   UNL     1      61.043   8.396   0.541  1.00  0.00     0.004 A 
HETATM   13  C   UNL     1      62.217   8.368   1.291  1.00  0.00     0.030 A 
ENDBRANCH   1   7
BRANCH   6  14
HETATM   14  C   UNL     1      66.921   7.830   6.001  1.00  0.00     0.202 C 
BRANCH  14  15
HETATM   15  O   UNL     1      66.842   8.871   6.967  1.00  0.00    -0.396 OA
HETATM   16  H   UNL     1      66.742   9.723   6.514  1.00  0.00     0.209 HD
ENDBRANCH  14  15
ENDBRANCH   6  14
TORSDOF 3
ENDMDL
MODEL 6
REMARK VINA RESULT:      -4.6      3.014      5.801
REMARK  3 active torsions:
REMARK  status: ('A' for Active; 'I' for Inactive)
REMARK    1  A    between atoms: C_3  and  C_4 
REMARK    2  A    between atoms: C_9  and  C_12 
REMARK    3  A    between atoms: O_10  and  C_12 
ROOT
HETATM    1  C   UNL     1      63.963   7.787   4.729  1.00  0.00    -0.009 A 
HETATM    2  C   UNL     1      65.268   7.441   4.335  1.00  0.00     0.014 A 
HETATM    3  C   UNL     1      63.454   7.158   5.879  1.00  0.00     0.014 A 
HETATM    4  C   UNL     1      64.207   6.230   6.603  1.00  0.00     0.010 A 
HETATM    5  C   UNL     1      66.028   6.512   5.057  1.00  0.00     0.010 A 
HETATM    6  C   UNL     1      65.501   5.893   6.196  1.00  0.00    -0.035 A 
ENDROOT
BRANCH   1   7
HETATM    7  C   UNL     1      63.159   8.755   3.951  1.00  0.00     0.042 A 
HETATM    8  N   UNL     1      62.808   9.894   4.603  1.00  0.00    -0.365 N 
HETATM    9  C   UNL     1      62.113  10.828   3.916  1.00  0.00     0.088 A 
ATOM     10  HN  UNL     1      63.060  10.040   5.581  1.00  0.00     0.165 HD
HETATM   11  C   UNL     1      61.734  10.691   2.593  1.00  0.00     0.017 A 
HETATM   12  C   UNL     1      62.078   9.519   1.937  1.00  0.00     0.004 A 
HETATM   13  C   UNL     1      62.794   8.539   2.621  1.00  0.00     0.030 A 
ENDBRANCH   1   7
BRANCH   6  14
HETATM   14  C   UNL     1      66.311   4.881   6.962  1.00  0.00     0.202 C 
BRANCH  14  15
HETATM   15  O   UNL     1      65.790   4.712   8.274  1.00  0.00    -0.396 OA
HETATM   16  H   UNL     1      65.178   5.438   8.473  1.00  0.00     0.209 HD
ENDBRANCH  14  15
ENDBRANCH   6  14
TORSDOF 3
ENDMDL
MODEL 7
REMARK VINA RESULT:      -4.2      5.491      6.995
REMARK  3 active torsions:
REMARK  status: ('A' for Active; 'I' for Inactive)
REMARK    1  A    between atoms: C_3  and  C_4 
REMARK    2  A    between atoms: C_9  and  C_12 
REMARK    3  A    between atoms: O_10  and  C_12 
ROOT
HETATM    1  C   UNL     1      59.421   7.399   3.907  1.00  0.00    -0.009 A 
HETATM    2  C   UNL     1      58.044   7.677   3.960  1.00  0.00     0.014 A 
HETATM    3  C   UNL     1      59.927   6.486   4.850  1.00  0.00     0.014 A 
HETATM    4  C   UNL     1      59.101   5.879   5.800  1.00  0.00     0.010 A 
HETATM    5  C   UNL     1      57.211   7.072   4.910  1.00  0.00     0.010 A 
HETATM    6  C   UNL     1      57.735   6.170   5.844  1.00  0.00    -0.035 A 
ENDROOT
BRANCH   1   7
HETATM    7  C   UNL     1      60.297   8.057   2.912  1.00  0.00     0.042 A 
HETATM    8  N   UNL     1      61.023   9.112   3.367  1.00  0.00    -0.365 N 
HETATM    9  C   UNL     1      61.872   9.714   2.505  1.00  0.00     0.088 A 
ATOM     10  HN  UNL     1      60.930   9.439   4.328  1.00  0.00     0.165 HD
HETATM   11  C   UNL     1      62.040   9.325   1.189  1.00  0.00     0.017 A 
HETATM   12  C   UNL     1      61.284   8.261   0.723  1.00  0.00     0.004 A 
HETATM   13  C   UNL     1      60.401   7.622   1.590  1.00  0.00     0.030 A 
ENDBRANCH   1   7
BRANCH   6  14
HETATM   14  C   UNL     1      56.844   5.532   6.876  1.00  0.00     0.202 C 
BRANCH  14  15
HETATM   15  O   UNL     1      57.130   6.045   8.170  1.00  0.00    -0.396 OA
HETATM   16  H   UNL     1      57.430   5.323   8.744  1.00  0.00     0.209 HD
ENDBRANCH  14  15
ENDBRANCH   6  14
TORSDOF 3
ENDMDL
MODEL 8
REMARK VINA RESULT:      -4.1      2.259      2.579
REMARK  3 active torsions:
REMARK  status: ('A' for Active; 'I' for Inactive)
REMARK    1  A    between atoms: C_3  and  C_4 
REMARK    2  A    between atoms: C_9  and  C_12 
REMARK    3  A    between atoms: O_10  and  C_12 
ROOT
HETATM    1  C   UNL     1      62.850   7.490   5.013  1.00  0.00    -0.009 A 
HETATM    2  C   UNL     1      61.866   6.581   5.443  1.00  0.00     0.014 A 
HETATM    3  C   UNL     1      62.505   8.355   3.960  1.00  0.00     0.014 A 
HETATM    4  C   UNL     1      61.242   8.319   3.363  1.00  0.00     0.010 A 
HETATM    5  C   UNL     1      60.598   6.540   4.849  1.00  0.00     0.010 A 
HETATM    6  C   UNL     1      60.276   7.407   3.797  1.00  0.00    -0.035 A 
ENDROOT
BRANCH   1   7
HETATM    7  C   UNL     1      64.192   7.514   5.634  1.00  0.00     0.042 A 
HETATM    8  N   UNL     1      64.312   6.852   6.815  1.00  0.00    -0.365 N 
HETATM    9  C   UNL     1      65.532   6.808   7.395  1.00  0.00     0.088 A 
ATOM     10  HN  UNL     1      63.506   6.403   7.250  1.00  0.00     0.165 HD
HETATM   11  C   UNL     1      66.662   7.401   6.862  1.00  0.00     0.017 A 
HETATM   12  C   UNL     1      66.532   8.092   5.667  1.00  0.00     0.004 A 
HETATM   13  C   UNL     1      65.286   8.154   5.048  1.00  0.00     0.030 A 
ENDBRANCH   1   7
BRANCH   6  14
HETATM   14  C   UNL     1      58.921   7.352   3.147  1.00  0.00     0.202 C 
BRANCH  14  15
HETATM   15  O   UNL     1      58.863   8.234   2.034  1.00  0.00    -0.396 OA
HETATM   16  H   UNL     1      59.408   9.016   2.214  1.00  0.00     0.209 HD
ENDBRANCH  14  15
ENDBRANCH   6  14
TORSDOF 3
ENDMDL
MODEL 9
REMARK VINA RESULT:      -4.0      3.650      5.852
REMARK  3 active torsions:
REMARK  status: ('A' for Active; 'I' for Inactive)
REMARK    1  A    between atoms: C_3  and  C_4 
REMARK    2  A    between atoms: C_9  and  C_12 
REMARK    3  A    between atoms: O_10  and  C_12 
ROOT
HETATM    1  C   UNL     1      62.737   7.262   5.205  1.00  0.00    -0.009 A 
HETATM    2  C   UNL     1      63.372   6.554   6.241  1.00  0.00     0.014 A 
HETATM    3  C   UNL     1      63.510   8.206   4.506  1.00  0.00     0.014 A 
HETATM    4  C   UNL     1      64.852   8.434   4.822  1.00  0.00     0.010 A 
HETATM    5  C   UNL     1      64.718   6.778   6.562  1.00  0.00     0.010 A 
HETATM    6  C   UNL     1      65.469   7.726   5.858  1.00  0.00    -0.035 A 
ENDROOT
BRANCH   1   7
HETATM    7  C   UNL     1      61.311   7.033   4.885  1.00  0.00     0.042 A 
HETATM    8  N   UNL     1      60.813   7.751   3.843  1.00  0.00    -0.365 N 
HETATM    9  C   UNL     1      59.527   7.539   3.485  1.00  0.00     0.088 A 
ATOM     10  HN  UNL     1      61.393   8.428   3.348  1.00  0.00     0.165 HD
HETATM   11  C   UNL     1      58.687   6.642   4.119  1.00  0.00     0.017 A 
HETATM   12  C   UNL     1      59.192   5.926   5.193  1.00  0.00     0.004 A 
HETATM   13  C   UNL     1      60.515   6.125   5.585  1.00  0.00     0.030 A 
ENDBRANCH   1   7
BRANCH   6  14
HETATM   14  C   UNL     1      66.909   7.980   6.213  1.00  0.00     0.202 C 
BRANCH  14  15
HETATM   15  O   UNL     1      67.003   8.797   7.373  1.00  0.00    -0.396 OA
HETATM   16  H   UNL     1      66.708   9.696   7.158  1.00  0.00     0.209 HD
ENDBRANCH  14  15
ENDBRANCH   6  14
TORSDOF 3
ENDMDL
