MODEL 1
REMARK VINA RESULT:      -4.9      0.000      0.000
REMARK  1 active torsions:
REMARK  status: ('A' for Active; 'I' for Inactive)
REMARK    1  A    between atoms: C_8  and  N_10 
ROOT
HETATM    1  N   UNL     1      62.274   8.393   1.949  1.00  0.00    -0.360 N 
HETATM    2  C   UNL     1      62.411   9.314   2.967  1.00  0.00     0.044 A 
HETATM    3  C   UNL     1      63.237   8.730   3.930  1.00  0.00    -0.006 A 
HETATM    4  C   UNL     1      62.987   7.257   2.238  1.00  0.00     0.091 A 
HETATM    5  C   UNL     1      63.595   7.438   3.458  1.00  0.00     0.031 A 
HETATM    6  C   UNL     1      61.870  10.596   3.147  1.00  0.00     0.033 A 
HETATM    7  C   UNL     1      63.530   9.448   5.110  1.00  0.00     0.042 A 
HETATM    8  C   UNL     1      63.033  10.744   5.291  1.00  0.00     0.026 A 
HETATM    9  C   UNL     1      62.179  11.282   4.331  1.00  0.00     0.031 A 
HETATM   10  C   UNL     1      61.487   8.545   0.746  1.00  0.00     0.155 C 
ENDROOT
BRANCH   8  11
HETATM   11  N   UNL     1      63.197  11.389   6.527  1.00  0.00    -0.399 N 
HETATM   12  H   UNL     1      63.873  11.065   7.165  1.00  0.00     0.156 HD
HETATM   13  H   UNL     1      62.636  12.165   6.756  1.00  0.00     0.156 HD
ENDBRANCH   8  11
TORSDOF 1
ENDMDL
MODEL 2
REMARK VINA RESULT:      -4.8      0.671      2.151
REMARK  1 active torsions:
REMARK  status: ('A' for Active; 'I' for Inactive)
REMARK    1  A    between atoms: C_8  and  N_10 
ROOT
HETATM    1  N   UNL     1      62.482   8.226   1.840  1.00  0.00    -0.360 N 
HETATM    2  C   UNL     1      62.733   8.798   3.070  1.00  0.00     0.044 A 
HETATM    3  C   UNL     1      62.177  10.080   3.038  1.00  0.00    -0.006 A 
HETATM    4  C   UNL     1      61.787   9.099   1.042  1.00  0.00     0.091 A 
HETATM    5  C   UNL     1      61.582  10.254   1.759  1.00  0.00     0.031 A 
HETATM    6  C   UNL     1      63.414   8.325   4.200  1.00  0.00     0.033 A 
HETATM    7  C   UNL     1      62.308  10.913   4.170  1.00  0.00     0.042 A 
HETATM    8  C   UNL     1      62.949  10.446   5.323  1.00  0.00     0.026 A 
HETATM    9  C   UNL     1      63.529   9.178   5.308  1.00  0.00     0.031 A 
HETATM   10  C   UNL     1      62.892   6.911   1.400  1.00  0.00     0.155 C 
ENDROOT
BRANCH   8  11
HETATM   11  N   UNL     1      63.214  11.327   6.382  1.00  0.00    -0.399 N 
HETATM   12  H   UNL     1      62.473  11.801   6.824  1.00  0.00     0.156 HD
HETATM   13  H   UNL     1      64.140  11.472   6.683  1.00  0.00     0.156 HD
ENDBRANCH   8  11
TORSDOF 1
ENDMDL
MODEL 3
REMARK VINA RESULT:      -4.5      1.831      3.039
REMARK  1 active torsions:
REMARK  status: ('A' for Active; 'I' for Inactive)
REMARK    1  A    between atoms: C_8  and  N_10 
ROOT
HETATM    1  N   UNL     1      63.688   7.485   4.800  1.00  0.00    -0.360 N 
HETATM    2  C   UNL     1      63.113   8.654   4.346  1.00  0.00     0.044 A 
HETATM    3  C   UNL     1      62.821   8.459   2.993  1.00  0.00    -0.006 A 
HETATM    4  C   UNL     1      63.762   6.566   3.785  1.00  0.00     0.091 A 
HETATM    5  C   UNL     1      63.231   7.141   2.654  1.00  0.00     0.031 A 
HETATM    6  C   UNL     1      62.842   9.873   4.984  1.00  0.00     0.033 A 
HETATM    7  C   UNL     1      62.242   9.515   2.257  1.00  0.00     0.042 A 
HETATM    8  C   UNL     1      61.926  10.726   2.885  1.00  0.00     0.026 A 
HETATM    9  C   UNL     1      62.268  10.903   4.224  1.00  0.00     0.031 A 
HETATM   10  C   UNL     1      64.178   7.226   6.136  1.00  0.00     0.155 C 
ENDROOT
BRANCH   8  11
HETATM   11  N   UNL     1      61.499  11.820   2.118  1.00  0.00    -0.399 N 
HETATM   12  H   UNL     1      62.153  12.350   1.608  1.00  0.00     0.156 HD
HETATM   13  H   UNL     1      60.544  12.058   2.089  1.00  0.00     0.156 HD
ENDBRANCH   8  11
TORSDOF 1
ENDMDL
MODEL 4
REMARK VINA RESULT:      -4.3      1.495      2.813
REMARK  1 active torsions:
REMARK  status: ('A' for Active; 'I' for Inactive)
REMARK    1  A    between atoms: C_8  and  N_10 
ROOT
HETATM    1  N   UNL     1      62.263   9.192   1.742  1.00  0.00    -0.360 N 
HETATM    2  C   UNL     1      62.801   8.572   2.852  1.00  0.00     0.044 A 
HETATM    3  C   UNL     1      62.648   9.458   3.921  1.00  0.00    -0.006 A 
HETATM    4  C   UNL     1      61.777  10.430   2.079  1.00  0.00     0.091 A 
HETATM    5  C   UNL     1      61.999  10.620   3.422  1.00  0.00     0.031 A 
HETATM    6  C   UNL     1      63.428   7.328   3.016  1.00  0.00     0.033 A 
HETATM    7  C   UNL     1      63.138   9.089   5.193  1.00  0.00     0.042 A 
HETATM    8  C   UNL     1      63.732   7.837   5.387  1.00  0.00     0.026 A 
HETATM    9  C   UNL     1      63.906   6.993   4.291  1.00  0.00     0.031 A 
HETATM   10  C   UNL     1      62.218   8.666   0.396  1.00  0.00     0.155 C 
ENDROOT
BRANCH   8  11
HETATM   11  N   UNL     1      64.355   7.541   6.608  1.00  0.00    -0.399 N 
HETATM   12  H   UNL     1      65.310   7.741   6.735  1.00  0.00     0.156 HD
HETATM   13  H   UNL     1      63.836   7.133   7.340  1.00  0.00     0.156 HD
ENDBRANCH   8  11
TORSDOF 1
ENDMDL
MODEL 5
REMARK VINA RESULT:      -4.2      1.962      2.930
REMARK  1 active torsions:
REMARK  status: ('A' for Active; 'I' for Inactive)
REMARK    1  A    between atoms: C_8  and  N_10 
ROOT
HETATM    1  N   UNL     1      63.119   6.913   3.629  1.00  0.00    -0.360 N 
HETATM    2  C   UNL     1      62.723   8.079   3.008  1.00  0.00     0.044 A 
HETATM    3  C   UNL     1      62.648   9.058   4.002  1.00  0.00    -0.006 A 
HETATM    4  C   UNL     1      63.298   7.126   4.972  1.00  0.00     0.091 A 
HETATM    5  C   UNL     1      63.014   8.446   5.231  1.00  0.00     0.031 A 
HETATM    6  C   UNL     1      62.402   8.366   1.673  1.00  0.00     0.033 A 
HETATM    7  C   UNL     1      62.236  10.363   3.651  1.00  0.00     0.042 A 
HETATM    8  C   UNL     1      61.949  10.679   2.318  1.00  0.00     0.026 A 
HETATM    9  C   UNL     1      61.994   9.670   1.358  1.00  0.00     0.031 A 
HETATM   10  C   UNL     1      63.309   5.623   3.004  1.00  0.00     0.155 C 
ENDROOT
BRANCH   8  11
HETATM   11  N   UNL     1      61.392  11.927   2.001  1.00  0.00    -0.399 N 
HETATM   12  H   UNL     1      61.973  12.717   1.912  1.00  0.00     0.156 HD
HETATM   13  H   UNL     1      60.420  12.013   1.866  1.00  0.00     0.156 HD
ENDBRANCH   8  11
TORSDOF 1
ENDMDL
MODEL 6
REMARK VINA RESULT:      -3.9      6.520      7.882
REMARK  1 active torsions:
REMARK  status: ('A' for Active; 'I' for Inactive)
REMARK    1  A    between atoms: C_8  and  N_10 
ROOT
HETATM    1  N   UNL     1      67.739   3.189   7.962  1.00  0.00    -0.360 N 
HETATM    2  C   UNL     1      67.460   4.541   7.953  1.00  0.00     0.044 A 
HETATM    3  C   UNL     1      67.354   4.920   6.613  1.00  0.00    -0.006 A 
HETATM    4  C   UNL     1      67.807   2.710   6.679  1.00  0.00     0.091 A 
HETATM    5  C   UNL     1      67.571   3.759   5.822  1.00  0.00     0.031 A 
HETATM    6  C   UNL     1      67.313   5.472   8.991  1.00  0.00     0.033 A 
HETATM    7  C   UNL     1      67.095   6.273   6.302  1.00  0.00     0.042 A 
HETATM    8  C   UNL     1      66.906   7.211   7.323  1.00  0.00     0.026 A 
HETATM    9  C   UNL     1      67.059   6.808   8.649  1.00  0.00     0.031 A 
HETATM   10  C   UNL     1      67.959   2.361   9.126  1.00  0.00     0.155 C 
ENDROOT
BRANCH   8  11
HETATM   11  N   UNL     1      66.805   8.575   7.010  1.00  0.00    -0.399 N 
HETATM   12  H   UNL     1      67.398   9.226   7.450  1.00  0.00     0.156 HD
HETATM   13  H   UNL     1      66.142   8.881   6.349  1.00  0.00     0.156 HD
ENDBRANCH   8  11
TORSDOF 1
ENDMDL
MODEL 7
REMARK VINA RESULT:      -3.7      3.570      4.936
REMARK  1 active torsions:
REMARK  status: ('A' for Active; 'I' for Inactive)
REMARK    1  A    between atoms: C_8  and  N_10 
ROOT
HETATM    1  N   UNL     1      65.942   6.201   6.936  1.00  0.00    -0.360 N 
HETATM    2  C   UNL     1      64.891   6.881   6.357  1.00  0.00     0.044 A 
HETATM    3  C   UNL     1      65.443   7.967   5.673  1.00  0.00    -0.006 A 
HETATM    4  C   UNL     1      67.130   6.819   6.637  1.00  0.00     0.091 A 
HETATM    5  C   UNL     1      66.851   7.915   5.854  1.00  0.00     0.031 A 
HETATM    6  C   UNL     1      63.506   6.661   6.385  1.00  0.00     0.033 A 
HETATM    7  C   UNL     1      64.583   8.862   4.999  1.00  0.00     0.042 A 
HETATM    8  C   UNL     1      63.201   8.638   4.982  1.00  0.00     0.026 A 
HETATM    9  C   UNL     1      62.679   7.569   5.707  1.00  0.00     0.031 A 
HETATM   10  C   UNL     1      65.855   5.020   7.765  1.00  0.00     0.155 C 
ENDROOT
BRANCH   8  11
HETATM   11  N   UNL     1      62.343   9.610   4.447  1.00  0.00    -0.399 N 
HETATM   12  H   UNL     1      61.741  10.116   5.039  1.00  0.00     0.156 HD
HETATM   13  H   UNL     1      62.342   9.788   3.478  1.00  0.00     0.156 HD
ENDBRANCH   8  11
TORSDOF 1
ENDMDL
MODEL 8
REMARK VINA RESULT:      -3.7      2.360      3.586
REMARK  1 active torsions:
REMARK  status: ('A' for Active; 'I' for Inactive)
REMARK    1  A    between atoms: C_8  and  N_10 
ROOT
HETATM    1  N   UNL     1      62.776   7.834   3.038  1.00  0.00    -0.360 N 
HETATM    2  C   UNL     1      63.972   7.602   3.686  1.00  0.00     0.044 A 
HETATM    3  C   UNL     1      64.107   8.603   4.651  1.00  0.00    -0.006 A 
HETATM    4  C   UNL     1      62.157   8.939   3.565  1.00  0.00     0.091 A 
HETATM    5  C   UNL     1      62.958   9.434   4.567  1.00  0.00     0.031 A 
HETATM    6  C   UNL     1      64.960   6.624   3.502  1.00  0.00     0.033 A 
HETATM    7  C   UNL     1      65.267   8.627   5.456  1.00  0.00     0.042 A 
HETATM    8  C   UNL     1      66.247   7.637   5.316  1.00  0.00     0.026 A 
HETATM    9  C   UNL     1      66.101   6.677   4.317  1.00  0.00     0.031 A 
HETATM   10  C   UNL     1      62.223   7.068   1.944  1.00  0.00     0.155 C 
ENDROOT
BRANCH   8  11
HETATM   11  N   UNL     1      67.463   7.755   6.006  1.00  0.00    -0.399 N 
HETATM   12  H   UNL     1      67.477   8.118   6.921  1.00  0.00     0.156 HD
HETATM   13  H   UNL     1      68.303   7.476   5.574  1.00  0.00     0.156 HD
ENDBRANCH   8  11
TORSDOF 1
ENDMDL
MODEL 9
REMARK VINA RESULT:      -3.6      2.647      4.167
REMARK  1 active torsions:
REMARK  status: ('A' for Active; 'I' for Inactive)
REMARK    1  A    between atoms: C_8  and  N_10 
ROOT
HETATM    1  N   UNL     1      65.129   7.325   6.201  1.00  0.00    -0.360 N 
HETATM    2  C   UNL     1      64.097   7.865   5.462  1.00  0.00     0.044 A 
HETATM    3  C   UNL     1      63.061   6.928   5.473  1.00  0.00    -0.006 A 
HETATM    4  C   UNL     1      64.776   6.088   6.677  1.00  0.00     0.091 A 
HETATM    5  C   UNL     1      63.499   5.817   6.243  1.00  0.00     0.031 A 
HETATM    6  C   UNL     1      63.981   9.076   4.764  1.00  0.00     0.033 A 
HETATM    7  C   UNL     1      61.873   7.211   4.764  1.00  0.00     0.042 A 
HETATM    8  C   UNL     1      61.721   8.431   4.094  1.00  0.00     0.026 A 
HETATM    9  C   UNL     1      62.789   9.326   4.068  1.00  0.00     0.031 A 
HETATM   10  C   UNL     1      66.422   7.924   6.446  1.00  0.00     0.155 C 
ENDROOT
BRANCH   8  11
HETATM   11  N   UNL     1      60.609   8.639   3.266  1.00  0.00    -0.399 N 
HETATM   12  H   UNL     1      59.913   9.283   3.529  1.00  0.00     0.156 HD
HETATM   13  H   UNL     1      60.524   8.141   2.420  1.00  0.00     0.156 HD
ENDBRANCH   8  11
TORSDOF 1
ENDMDL
