MODEL 1
REMARK VINA RESULT:      -4.6      0.000      0.000
REMARK  2 active torsions:
REMARK  status: ('A' for Active; 'I' for Inactive)
REMARK    1  A    between atoms: C_9  and  C_12 
REMARK    2  A    between atoms: N_10  and  C_12 
ROOT
HETATM    1  N   UNL     1      62.032  10.297   2.098  1.00  0.00    -0.360 N 
HETATM    2  C   UNL     1      62.413   9.635   3.247  1.00  0.00     0.044 A 
HETATM    3  C   UNL     1      62.581   8.291   2.902  1.00  0.00    -0.007 A 
HETATM    4  C   UNL     1      61.980   9.426   1.042  1.00  0.00     0.091 A 
HETATM    5  C   UNL     1      62.314   8.176   1.511  1.00  0.00     0.031 A 
HETATM    6  C   UNL     1      62.616  10.099   4.554  1.00  0.00     0.031 A 
HETATM    7  C   UNL     1      62.949   7.371   3.905  1.00  0.00     0.022 A 
HETATM    8  C   UNL     1      62.989   9.167   5.529  1.00  0.00     0.011 A 
HETATM    9  C   UNL     1      63.143   7.807   5.228  1.00  0.00    -0.032 A 
HETATM   10  C   UNL     1      61.717  11.706   2.023  1.00  0.00     0.155 C 
ENDROOT
BRANCH   9  11
HETATM   11  C   UNL     1      63.530   6.816   6.305  1.00  0.00     0.270 C 
BRANCH  11  12
HETATM   12  N   UNL     1      64.768   7.211   6.978  1.00  0.00    -0.075 N 
HETATM   13  C   UNL     1      65.936   6.820   6.205  1.00  0.00     0.267 C 
HETATM   14  H   UNL     1      64.808   6.759   7.892  1.00  0.00     0.277 HD
HETATM   15  H   UNL     1      64.771   8.226   7.077  1.00  0.00     0.277 HD
ENDBRANCH  11  12
ENDBRANCH   9  11
TORSDOF 2
ENDMDL
MODEL 2
REMARK VINA RESULT:      -4.6      1.135      2.350
REMARK  2 active torsions:
REMARK  status: ('A' for Active; 'I' for Inactive)
REMARK    1  A    between atoms: C_9  and  C_12 
REMARK    2  A    between atoms: N_10  and  C_12 
ROOT
HETATM    1  N   UNL     1      61.966   9.488   2.559  1.00  0.00    -0.360 N 
HETATM    2  C   UNL     1      62.866   8.695   3.240  1.00  0.00     0.044 A 
HETATM    3  C   UNL     1      63.212   9.385   4.405  1.00  0.00    -0.007 A 
HETATM    4  C   UNL     1      61.713  10.634   3.264  1.00  0.00     0.091 A 
HETATM    5  C   UNL     1      62.473  10.599   4.411  1.00  0.00     0.031 A 
HETATM    6  C   UNL     1      63.410   7.441   2.929  1.00  0.00     0.031 A 
HETATM    7  C   UNL     1      64.151   8.810   5.286  1.00  0.00     0.022 A 
HETATM    8  C   UNL     1      64.332   6.887   3.824  1.00  0.00     0.011 A 
HETATM    9  C   UNL     1      64.723   7.559   4.990  1.00  0.00    -0.032 A 
HETATM   10  C   UNL     1      61.383   9.161   1.277  1.00  0.00     0.155 C 
ENDROOT
BRANCH   9  11
HETATM   11  C   UNL     1      65.736   6.947   5.932  1.00  0.00     0.270 C 
BRANCH  11  12
HETATM   12  N   UNL     1      65.268   6.981   7.319  1.00  0.00    -0.075 N 
HETATM   13  C   UNL     1      66.319   6.578   8.240  1.00  0.00     0.267 C 
HETATM   14  H   UNL     1      64.478   6.343   7.418  1.00  0.00     0.277 HD
HETATM   15  H   UNL     1      64.992   7.936   7.542  1.00  0.00     0.277 HD
ENDBRANCH  11  12
ENDBRANCH   9  11
TORSDOF 2
ENDMDL
MODEL 3
REMARK VINA RESULT:      -4.5      1.646      5.302
REMARK  2 active torsions:
REMARK  status: ('A' for Active; 'I' for Inactive)
REMARK    1  A    between atoms: C_9  and  C_12 
REMARK    2  A    between atoms: N_10  and  C_12 
ROOT
HETATM    1  N   UNL     1      66.373   6.560   4.647  1.00  0.00    -0.360 N 
HETATM    2  C   UNL     1      65.214   7.200   4.262  1.00  0.00     0.044 A 
HETATM    3  C   UNL     1      65.043   8.283   5.129  1.00  0.00    -0.007 A 
HETATM    4  C   UNL     1      66.950   7.213   5.704  1.00  0.00     0.091 A 
HETATM    5  C   UNL     1      66.146   8.284   6.025  1.00  0.00     0.031 A 
HETATM    6  C   UNL     1      64.301   6.918   3.236  1.00  0.00     0.031 A 
HETATM    7  C   UNL     1      63.908   9.106   4.978  1.00  0.00     0.022 A 
HETATM    8  C   UNL     1      63.187   7.755   3.102  1.00  0.00     0.011 A 
HETATM    9  C   UNL     1      62.968   8.835   3.967  1.00  0.00    -0.032 A 
HETATM   10  C   UNL     1      66.897   5.360   4.032  1.00  0.00     0.155 C 
ENDROOT
BRANCH   9  11
HETATM   11  C   UNL     1      61.746   9.714   3.812  1.00  0.00     0.270 C 
BRANCH  11  12
HETATM   12  N   UNL     1      61.509  10.060   2.409  1.00  0.00    -0.075 N 
HETATM   13  C   UNL     1      61.809  11.460   2.153  1.00  0.00     0.267 C 
HETATM   14  H   UNL     1      60.529   9.884   2.185  1.00  0.00     0.277 HD
HETATM   15  H   UNL     1      62.121   9.488   1.828  1.00  0.00     0.277 HD
ENDBRANCH  11  12
ENDBRANCH   9  11
TORSDOF 2
ENDMDL
MODEL 4
REMARK VINA RESULT:      -4.4      1.820      4.746
REMARK  2 active torsions:
REMARK  status: ('A' for Active; 'I' for Inactive)
REMARK    1  A    between atoms: C_9  and  C_12 
REMARK    2  A    between atoms: N_10  and  C_12 
ROOT
HETATM    1  N   UNL     1      65.513   5.947   3.925  1.00  0.00    -0.360 N 
HETATM    2  C   UNL     1      64.773   7.089   4.149  1.00  0.00     0.044 A 
HETATM    3  C   UNL     1      63.801   7.144   3.147  1.00  0.00    -0.007 A 
HETATM    4  C   UNL     1      65.026   5.270   2.839  1.00  0.00     0.091 A 
HETATM    5  C   UNL     1      63.966   5.989   2.335  1.00  0.00     0.031 A 
HETATM    6  C   UNL     1      64.880   8.078   5.136  1.00  0.00     0.031 A 
HETATM    7  C   UNL     1      62.911   8.238   3.118  1.00  0.00     0.022 A 
HETATM    8  C   UNL     1      63.979   9.149   5.091  1.00  0.00     0.011 A 
HETATM    9  C   UNL     1      63.006   9.252   4.088  1.00  0.00    -0.032 A 
HETATM   10  C   UNL     1      66.651   5.532   4.715  1.00  0.00     0.155 C 
ENDROOT
BRANCH   9  11
HETATM   11  C   UNL     1      62.056  10.429   4.051  1.00  0.00     0.270 C 
BRANCH  11  12
HETATM   12  N   UNL     1      61.386  10.537   2.754  1.00  0.00    -0.075 N 
HETATM   13  C   UNL     1      61.769  11.758   2.063  1.00  0.00     0.267 C 
HETATM   14  H   UNL     1      60.376  10.541   2.901  1.00  0.00     0.277 HD
HETATM   15  H   UNL     1      61.664   9.741   2.181  1.00  0.00     0.277 HD
ENDBRANCH  11  12
ENDBRANCH   9  11
TORSDOF 2
ENDMDL
MODEL 5
REMARK VINA RESULT:      -4.1      1.316      5.464
REMARK  2 active torsions:
REMARK  status: ('A' for Active; 'I' for Inactive)
REMARK    1  A    between atoms: C_9  and  C_12 
REMARK    2  A    between atoms: N_10  and  C_12 
ROOT
HETATM    1  N   UNL     1      65.611   6.118   6.722  1.00  0.00    -0.360 N 
HETATM    2  C   UNL     1      64.632   6.913   6.163  1.00  0.00     0.044 A 
HETATM    3  C   UNL     1      65.274   8.043   5.650  1.00  0.00    -0.007 A 
HETATM    4  C   UNL     1      66.843   6.692   6.557  1.00  0.00     0.091 A 
HETATM    5  C   UNL     1      66.665   7.887   5.898  1.00  0.00     0.031 A 
HETATM    6  C   UNL     1      63.244   6.740   6.071  1.00  0.00     0.031 A 
HETATM    7  C   UNL     1      64.498   9.050   5.038  1.00  0.00     0.022 A 
HETATM    8  C   UNL     1      62.498   7.749   5.451  1.00  0.00     0.011 A 
HETATM    9  C   UNL     1      63.102   8.908   4.946  1.00  0.00    -0.032 A 
HETATM   10  C   UNL     1      65.368   4.864   7.400  1.00  0.00     0.155 C 
ENDROOT
BRANCH   9  11
HETATM   11  C   UNL     1      62.271   9.992   4.296  1.00  0.00     0.270 C 
BRANCH  11  12
HETATM   12  N   UNL     1      61.250   9.428   3.412  1.00  0.00    -0.075 N 
HETATM   13  C   UNL     1      61.697   9.420   2.028  1.00  0.00     0.267 C 
HETATM   14  H   UNL     1      60.401   9.990   3.483  1.00  0.00     0.277 HD
HETATM   15  H   UNL     1      61.072   8.466   3.698  1.00  0.00     0.277 HD
ENDBRANCH  11  12
ENDBRANCH   9  11
TORSDOF 2
ENDMDL
MODEL 6
REMARK VINA RESULT:      -3.9      1.987      2.677
REMARK  2 active torsions:
REMARK  status: ('A' for Active; 'I' for Inactive)
REMARK    1  A    between atoms: C_9  and  C_12 
REMARK    2  A    between atoms: N_10  and  C_12 
ROOT
HETATM    1  N   UNL     1      62.423   8.061   3.138  1.00  0.00    -0.360 N 
HETATM    2  C   UNL     1      63.619   7.968   3.819  1.00  0.00     0.044 A 
HETATM    3  C   UNL     1      64.307   6.878   3.280  1.00  0.00    -0.007 A 
HETATM    4  C   UNL     1      62.346   7.089   2.176  1.00  0.00     0.091 A 
HETATM    5  C   UNL     1      63.499   6.340   2.242  1.00  0.00     0.031 A 
HETATM    6  C   UNL     1      64.148   8.739   4.863  1.00  0.00     0.031 A 
HETATM    7  C   UNL     1      65.565   6.533   3.816  1.00  0.00     0.022 A 
HETATM    8  C   UNL     1      65.402   8.382   5.371  1.00  0.00     0.011 A 
HETATM    9  C   UNL     1      66.113   7.281   4.874  1.00  0.00    -0.032 A 
HETATM   10  C   UNL     1      61.391   9.036   3.412  1.00  0.00     0.155 C 
ENDROOT
BRANCH   9  11
HETATM   11  C   UNL     1      67.459   6.905   5.452  1.00  0.00     0.270 C 
BRANCH  11  12
HETATM   12  N   UNL     1      67.566   7.294   6.859  1.00  0.00    -0.075 N 
HETATM   13  C   UNL     1      67.197   6.196   7.740  1.00  0.00     0.267 C 
HETATM   14  H   UNL     1      66.942   8.083   7.034  1.00  0.00     0.277 HD
HETATM   15  H   UNL     1      68.534   7.549   7.051  1.00  0.00     0.277 HD
ENDBRANCH  11  12
ENDBRANCH   9  11
TORSDOF 2
ENDMDL
MODEL 7
REMARK VINA RESULT:      -3.9      2.153      3.514
REMARK  2 active torsions:
REMARK  status: ('A' for Active; 'I' for Inactive)
REMARK    1  A    between atoms: C_9  and  C_12 
REMARK    2  A    between atoms: N_10  and  C_12 
ROOT
HETATM    1  N   UNL     1      61.777   7.506   4.643  1.00  0.00    -0.360 N 
HETATM    2  C   UNL     1      62.953   7.140   5.263  1.00  0.00     0.044 A 
HETATM    3  C   UNL     1      63.882   8.148   4.993  1.00  0.00    -0.007 A 
HETATM    4  C   UNL     1      61.924   8.715   4.017  1.00  0.00     0.091 A 
HETATM    5  C   UNL     1      63.219   9.136   4.215  1.00  0.00     0.031 A 
HETATM    6  C   UNL     1      63.280   6.012   6.029  1.00  0.00     0.031 A 
HETATM    7  C   UNL     1      65.195   8.017   5.491  1.00  0.00     0.022 A 
HETATM    8  C   UNL     1      64.587   5.910   6.518  1.00  0.00     0.011 A 
HETATM    9  C   UNL     1      65.554   6.887   6.248  1.00  0.00    -0.032 A 
HETATM   10  C   UNL     1      60.565   6.717   4.641  1.00  0.00     0.155 C 
ENDROOT
BRANCH   9  11
HETATM   11  C   UNL     1      66.966   6.744   6.774  1.00  0.00     0.270 C 
BRANCH  11  12
HETATM   12  N   UNL     1      67.147   7.476   8.029  1.00  0.00    -0.075 N 
HETATM   13  C   UNL     1      67.029   6.590   9.178  1.00  0.00     0.267 C 
HETATM   14  H   UNL     1      66.434   8.202   8.096  1.00  0.00     0.277 HD
HETATM   15  H   UNL     1      68.081   7.885   8.032  1.00  0.00     0.277 HD
ENDBRANCH  11  12
ENDBRANCH   9  11
TORSDOF 2
ENDMDL
MODEL 8
REMARK VINA RESULT:      -3.8      2.031      2.758
REMARK  2 active torsions:
REMARK  status: ('A' for Active; 'I' for Inactive)
REMARK    1  A    between atoms: C_9  and  C_12 
REMARK    2  A    between atoms: N_10  and  C_12 
ROOT
HETATM    1  N   UNL     1      59.840   7.237   1.898  1.00  0.00    -0.360 N 
HETATM    2  C   UNL     1      60.799   7.531   2.844  1.00  0.00     0.044 A 
HETATM    3  C   UNL     1      61.631   8.505   2.286  1.00  0.00    -0.007 A 
HETATM    4  C   UNL     1      60.021   8.006   0.780  1.00  0.00     0.091 A 
HETATM    5  C   UNL     1      61.125   8.801   0.992  1.00  0.00     0.031 A 
HETATM    6  C   UNL     1      61.011   7.022   4.133  1.00  0.00     0.031 A 
HETATM    7  C   UNL     1      62.728   8.977   3.036  1.00  0.00     0.022 A 
HETATM    8  C   UNL     1      62.101   7.513   4.860  1.00  0.00     0.011 A 
HETATM    9  C   UNL     1      62.973   8.471   4.326  1.00  0.00    -0.032 A 
HETATM   10  C   UNL     1      58.799   6.245   2.059  1.00  0.00     0.155 C 
ENDROOT
BRANCH   9  11
HETATM   11  C   UNL     1      64.155   8.972   5.126  1.00  0.00     0.270 C 
BRANCH  11  12
HETATM   12  N   UNL     1      64.625   7.963   6.078  1.00  0.00    -0.075 N 
HETATM   13  C   UNL     1      66.077   7.881   6.085  1.00  0.00     0.267 C 
HETATM   14  H   UNL     1      64.242   7.055   5.814  1.00  0.00     0.277 HD
HETATM   15  H   UNL     1      64.312   8.230   7.010  1.00  0.00     0.277 HD
ENDBRANCH  11  12
ENDBRANCH   9  11
TORSDOF 2
ENDMDL
MODEL 9
REMARK VINA RESULT:      -3.8      2.255      3.433
REMARK  2 active torsions:
REMARK  status: ('A' for Active; 'I' for Inactive)
REMARK    1  A    between atoms: C_9  and  C_12 
REMARK    2  A    between atoms: N_10  and  C_12 
ROOT
HETATM    1  N   UNL     1      61.539   7.408   4.472  1.00  0.00    -0.360 N 
HETATM    2  C   UNL     1      62.843   7.582   4.885  1.00  0.00     0.044 A 
HETATM    3  C   UNL     1      63.049   6.705   5.954  1.00  0.00    -0.007 A 
HETATM    4  C   UNL     1      60.927   6.438   5.222  1.00  0.00     0.091 A 
HETATM    5  C   UNL     1      61.839   5.987   6.149  1.00  0.00     0.031 A 
HETATM    6  C   UNL     1      63.852   8.436   4.419  1.00  0.00     0.031 A 
HETATM    7  C   UNL     1      64.306   6.693   6.594  1.00  0.00     0.022 A 
HETATM    8  C   UNL     1      65.093   8.398   5.066  1.00  0.00     0.011 A 
HETATM    9  C   UNL     1      65.331   7.551   6.156  1.00  0.00    -0.032 A 
HETATM   10  C   UNL     1      60.904   8.154   3.409  1.00  0.00     0.155 C 
ENDROOT
BRANCH   9  11
HETATM   11  C   UNL     1      66.676   7.542   6.850  1.00  0.00     0.270 C 
BRANCH  11  12
HETATM   12  N   UNL     1      66.894   6.292   7.580  1.00  0.00    -0.075 N 
HETATM   13  C   UNL     1      67.209   6.546   8.977  1.00  0.00     0.267 C 
HETATM   14  H   UNL     1      67.671   5.788   7.151  1.00  0.00     0.277 HD
HETATM   15  H   UNL     1      66.038   5.740   7.537  1.00  0.00     0.277 HD
ENDBRANCH  11  12
ENDBRANCH   9  11
TORSDOF 2
ENDMDL
