MODEL 1
REMARK VINA RESULT:      -6.2      0.000      0.000
REMARK  2 active torsions:
REMARK  status: ('A' for Active; 'I' for Inactive)
REMARK    1  A    between atoms: C_1  and  C_3 
REMARK    2  A    between atoms: C_2  and  C_5 
ROOT
HETATM    1  C   UNL     1      62.575   9.789   3.636  1.00  0.00     0.051 A 
HETATM    2  C   UNL     1      63.231   8.538   3.725  1.00  0.00    -0.008 A 
HETATM    3  C   UNL     1      61.821  10.134   2.493  1.00  0.00     0.019 A 
HETATM    4  C   UNL     1      63.076   7.672   2.612  1.00  0.00     0.013 A 
HETATM    5  C   UNL     1      61.690   9.249   1.428  1.00  0.00     0.001 A 
HETATM    6  C   UNL     1      62.313   8.013   1.492  1.00  0.00     0.001 A 
ENDROOT
BRANCH   2   7
HETATM    7  C   UNL     1      64.086   8.085   4.853  1.00  0.00    -0.009 A 
HETATM    8  C   UNL     1      63.575   7.305   5.900  1.00  0.00     0.099 A 
HETATM    9  N   UNL     1      64.289   6.787   6.931  1.00  0.00    -0.374 N 
HETATM   10  C   UNL     1      65.603   7.077   6.956  1.00  0.00     0.087 A 
ATOM     11  HN  UNL     1      63.854   6.207   7.648  1.00  0.00     0.164 HD
HETATM   12  C   UNL     1      66.226   7.850   5.994  1.00  0.00     0.018 A 
HETATM   13  C   UNL     1      65.464   8.337   4.930  1.00  0.00     0.015 A 
ENDBRANCH   2   7
BRANCH   1  14
HETATM   14  C   UNL     1      62.566  10.778   4.741  1.00  0.00     0.210 C 
HETATM   15  O   UNL     1      62.957  10.620   5.878  1.00  0.00    -0.644 OA
HETATM   16  O   UNL     1      62.048  11.957   4.336  1.00  0.00    -0.644 OA
ENDBRANCH   1  14
TORSDOF 2
ENDMDL
MODEL 2
REMARK VINA RESULT:      -5.8      2.353      4.661
REMARK  2 active torsions:
REMARK  status: ('A' for Active; 'I' for Inactive)
REMARK    1  A    between atoms: C_1  and  C_3 
REMARK    2  A    between atoms: C_2  and  C_5 
ROOT
HETATM    1  C   UNL     1      63.695   7.756   5.339  1.00  0.00     0.051 A 
HETATM    2  C   UNL     1      62.528   7.901   4.551  1.00  0.00    -0.008 A 
HETATM    3  C   UNL     1      63.819   6.699   6.265  1.00  0.00     0.019 A 
HETATM    4  C   UNL     1      61.518   6.925   4.747  1.00  0.00     0.013 A 
HETATM    5  C   UNL     1      62.805   5.760   6.420  1.00  0.00     0.001 A 
HETATM    6  C   UNL     1      61.655   5.870   5.654  1.00  0.00     0.001 A 
ENDROOT
BRANCH   2   7
HETATM    7  C   UNL     1      62.267   8.995   3.580  1.00  0.00    -0.009 A 
HETATM    8  C   UNL     1      61.932  10.291   4.000  1.00  0.00     0.099 A 
HETATM    9  N   UNL     1      61.747  11.367   3.194  1.00  0.00    -0.374 N 
HETATM   10  C   UNL     1      61.869  11.154   1.871  1.00  0.00     0.087 A 
ATOM     11  HN  UNL     1      61.526  12.289   3.571  1.00  0.00     0.164 HD
HETATM   12  C   UNL     1      62.177   9.921   1.327  1.00  0.00     0.018 A 
HETATM   13  C   UNL     1      62.395   8.845   2.190  1.00  0.00     0.015 A 
ENDBRANCH   2   7
BRANCH   1  14
HETATM   14  C   UNL     1      64.879   8.639   5.201  1.00  0.00     0.210 C 
HETATM   15  O   UNL     1      65.905   8.411   4.597  1.00  0.00    -0.644 OA
HETATM   16  O   UNL     1      64.694   9.806   5.853  1.00  0.00    -0.644 OA
ENDBRANCH   1  14
TORSDOF 2
ENDMDL
MODEL 3
REMARK VINA RESULT:      -5.5      2.495      4.954
REMARK  2 active torsions:
REMARK  status: ('A' for Active; 'I' for Inactive)
REMARK    1  A    between atoms: C_1  and  C_3 
REMARK    2  A    between atoms: C_2  and  C_5 
ROOT
HETATM    1  C   UNL     1      63.713   6.923   5.992  1.00  0.00     0.051 A 
HETATM    2  C   UNL     1      64.172   8.095   5.345  1.00  0.00    -0.008 A 
HETATM    3  C   UNL     1      64.617   6.041   6.623  1.00  0.00     0.019 A 
HETATM    4  C   UNL     1      65.572   8.321   5.381  1.00  0.00     0.013 A 
HETATM    5  C   UNL     1      65.982   6.306   6.639  1.00  0.00     0.001 A 
HETATM    6  C   UNL     1      66.459   7.452   6.023  1.00  0.00     0.001 A 
ENDROOT
BRANCH   2   7
HETATM    7  C   UNL     1      63.323   9.070   4.612  1.00  0.00    -0.009 A 
HETATM    8  C   UNL     1      62.977  10.312   5.165  1.00  0.00     0.099 A 
HETATM    9  N   UNL     1      62.271  11.292   4.547  1.00  0.00    -0.374 N 
HETATM   10  C   UNL     1      61.843  11.026   3.299  1.00  0.00     0.087 A 
ATOM     11  HN  UNL     1      62.074  12.182   5.004  1.00  0.00     0.164 HD
HETATM   12  C   UNL     1      62.100   9.834   2.647  1.00  0.00     0.018 A 
HETATM   13  C   UNL     1      62.860   8.864   3.303  1.00  0.00     0.015 A 
ENDBRANCH   2   7
BRANCH   1  14
HETATM   14  C   UNL     1      62.276   6.579   6.119  1.00  0.00     0.210 C 
HETATM   15  O   UNL     1      61.528   6.854   7.033  1.00  0.00    -0.644 OA
HETATM   16  O   UNL     1      61.845   5.885   5.045  1.00  0.00    -0.644 OA
ENDBRANCH   1  14
TORSDOF 2
ENDMDL
MODEL 4
REMARK VINA RESULT:      -5.5      1.932      2.230
REMARK  2 active torsions:
REMARK  status: ('A' for Active; 'I' for Inactive)
REMARK    1  A    between atoms: C_1  and  C_3 
REMARK    2  A    between atoms: C_2  and  C_5 
ROOT
HETATM    1  C   UNL     1      62.727   9.491   3.999  1.00  0.00     0.051 A 
HETATM    2  C   UNL     1      62.914   8.367   3.159  1.00  0.00    -0.008 A 
HETATM    3  C   UNL     1      62.157  10.683   3.502  1.00  0.00     0.019 A 
HETATM    4  C   UNL     1      62.489   8.517   1.814  1.00  0.00     0.013 A 
HETATM    5  C   UNL     1      61.749  10.782   2.177  1.00  0.00     0.001 A 
HETATM    6  C   UNL     1      61.909   9.695   1.333  1.00  0.00     0.001 A 
ENDROOT
BRANCH   2   7
HETATM    7  C   UNL     1      63.542   7.081   3.557  1.00  0.00    -0.009 A 
HETATM    8  C   UNL     1      62.778   5.931   3.806  1.00  0.00     0.099 A 
HETATM    9  N   UNL     1      63.264   4.700   4.103  1.00  0.00    -0.374 N 
HETATM   10  C   UNL     1      64.602   4.588   4.192  1.00  0.00     0.087 A 
ATOM     11  HN  UNL     1      62.648   3.900   4.251  1.00  0.00     0.164 HD
HETATM   12  C   UNL     1      65.466   5.648   3.988  1.00  0.00     0.018 A 
HETATM   13  C   UNL     1      64.929   6.892   3.650  1.00  0.00     0.015 A 
ENDBRANCH   2   7
BRANCH   1  14
HETATM   14  C   UNL     1      63.039   9.477   5.449  1.00  0.00     0.210 C 
HETATM   15  O   UNL     1      62.811   8.592   6.246  1.00  0.00    -0.644 OA
HETATM   16  O   UNL     1      63.648  10.621   5.827  1.00  0.00    -0.644 OA
ENDBRANCH   1  14
TORSDOF 2
ENDMDL
MODEL 5
REMARK VINA RESULT:      -5.4      2.186      4.511
REMARK  2 active torsions:
REMARK  status: ('A' for Active; 'I' for Inactive)
REMARK    1  A    between atoms: C_1  and  C_3 
REMARK    2  A    between atoms: C_2  and  C_5 
ROOT
HETATM    1  C   UNL     1      63.376   9.038   4.433  1.00  0.00     0.051 A 
HETATM    2  C   UNL     1      63.011   8.056   3.482  1.00  0.00    -0.008 A 
HETATM    3  C   UNL     1      64.584   8.936   5.156  1.00  0.00     0.019 A 
HETATM    4  C   UNL     1      63.928   6.988   3.305  1.00  0.00     0.013 A 
HETATM    5  C   UNL     1      65.456   7.873   4.945  1.00  0.00     0.001 A 
HETATM    6  C   UNL     1      65.130   6.901   4.013  1.00  0.00     0.001 A 
ENDROOT
BRANCH   2   7
HETATM    7  C   UNL     1      61.749   8.034   2.697  1.00  0.00    -0.009 A 
HETATM    8  C   UNL     1      60.523   7.679   3.279  1.00  0.00     0.099 A 
HETATM    9  N   UNL     1      59.313   7.700   2.664  1.00  0.00    -0.374 N 
HETATM   10  C   UNL     1      59.305   8.067   1.370  1.00  0.00     0.087 A 
ATOM     11  HN  UNL     1      58.456   7.449   3.157  1.00  0.00     0.164 HD
HETATM   12  C   UNL     1      60.446   8.421   0.675  1.00  0.00     0.018 A 
HETATM   13  C   UNL     1      61.667   8.422   1.351  1.00  0.00     0.015 A 
ENDBRANCH   2   7
BRANCH   1  14
HETATM   14  C   UNL     1      62.574  10.261   4.681  1.00  0.00     0.210 C 
HETATM   15  O   UNL     1      61.733  10.753   3.959  1.00  0.00    -0.644 OA
HETATM   16  O   UNL     1      62.884  10.814   5.873  1.00  0.00    -0.644 OA
ENDBRANCH   1  14
TORSDOF 2
ENDMDL
MODEL 6
REMARK VINA RESULT:      -5.2      1.872      2.149
REMARK  2 active torsions:
REMARK  status: ('A' for Active; 'I' for Inactive)
REMARK    1  A    between atoms: C_1  and  C_3 
REMARK    2  A    between atoms: C_2  and  C_5 
ROOT
HETATM    1  C   UNL     1      63.374   8.505   4.005  1.00  0.00     0.051 A 
HETATM    2  C   UNL     1      63.934   7.296   3.527  1.00  0.00    -0.008 A 
HETATM    3  C   UNL     1      62.426   9.219   3.241  1.00  0.00     0.019 A 
HETATM    4  C   UNL     1      63.478   6.857   2.257  1.00  0.00     0.013 A 
HETATM    5  C   UNL     1      62.003   8.746   2.003  1.00  0.00     0.001 A 
HETATM    6  C   UNL     1      62.525   7.560   1.514  1.00  0.00     0.001 A 
ENDROOT
BRANCH   2   7
HETATM    7  C   UNL     1      64.969   6.485   4.219  1.00  0.00    -0.009 A 
HETATM    8  C   UNL     1      64.630   5.402   5.044  1.00  0.00     0.099 A 
HETATM    9  N   UNL     1      65.503   4.563   5.657  1.00  0.00    -0.374 N 
HETATM   10  C   UNL     1      66.810   4.820   5.474  1.00  0.00     0.087 A 
ATOM     11  HN  UNL     1      65.184   3.780   6.227  1.00  0.00     0.164 HD
HETATM   12  C   UNL     1      67.277   5.867   4.701  1.00  0.00     0.018 A 
HETATM   13  C   UNL     1      66.348   6.688   4.057  1.00  0.00     0.015 A 
ENDBRANCH   2   7
BRANCH   1  14
HETATM   14  C   UNL     1      63.678   9.062   5.346  1.00  0.00     0.210 C 
HETATM   15  O   UNL     1      64.480   9.928   5.622  1.00  0.00    -0.644 OA
HETATM   16  O   UNL     1      62.923   8.475   6.298  1.00  0.00    -0.644 OA
ENDBRANCH   1  14
TORSDOF 2
ENDMDL
MODEL 7
REMARK VINA RESULT:      -5.2      2.237      2.917
REMARK  2 active torsions:
REMARK  status: ('A' for Active; 'I' for Inactive)
REMARK    1  A    between atoms: C_1  and  C_3 
REMARK    2  A    between atoms: C_2  and  C_5 
ROOT
HETATM    1  C   UNL     1      62.872   8.383   3.631  1.00  0.00     0.051 A 
HETATM    2  C   UNL     1      63.658   8.781   4.739  1.00  0.00    -0.008 A 
HETATM    3  C   UNL     1      61.927   9.261   3.058  1.00  0.00     0.019 A 
HETATM    4  C   UNL     1      63.441  10.099   5.217  1.00  0.00     0.013 A 
HETATM    5  C   UNL     1      61.752  10.548   3.556  1.00  0.00     0.001 A 
HETATM    6  C   UNL     1      62.516  10.970   4.633  1.00  0.00     0.001 A 
ENDROOT
BRANCH   2   7
HETATM    7  C   UNL     1      64.648   7.931   5.451  1.00  0.00    -0.009 A 
HETATM    8  C   UNL     1      64.255   6.985   6.409  1.00  0.00     0.099 A 
HETATM    9  N   UNL     1      65.075   6.119   7.056  1.00  0.00    -0.374 N 
HETATM   10  C   UNL     1      66.385   6.203   6.766  1.00  0.00     0.087 A 
ATOM     11  HN  UNL     1      64.715   5.439   7.727  1.00  0.00     0.164 HD
HETATM   12  C   UNL     1      66.904   7.104   5.855  1.00  0.00     0.018 A 
HETATM   13  C   UNL     1      66.025   7.956   5.184  1.00  0.00     0.015 A 
ENDBRANCH   2   7
BRANCH   1  14
HETATM   14  C   UNL     1      63.030   7.071   2.957  1.00  0.00     0.210 C 
HETATM   15  O   UNL     1      63.978   6.683   2.309  1.00  0.00    -0.644 OA
HETATM   16  O   UNL     1      61.945   6.291   3.148  1.00  0.00    -0.644 OA
ENDBRANCH   1  14
TORSDOF 2
ENDMDL
MODEL 8
REMARK VINA RESULT:      -5.0      2.941      4.225
REMARK  2 active torsions:
REMARK  status: ('A' for Active; 'I' for Inactive)
REMARK    1  A    between atoms: C_1  and  C_3 
REMARK    2  A    between atoms: C_2  and  C_5 
ROOT
HETATM    1  C   UNL     1      65.286   7.562   5.521  1.00  0.00     0.051 A 
HETATM    2  C   UNL     1      65.078   6.209   5.881  1.00  0.00    -0.008 A 
HETATM    3  C   UNL     1      64.308   8.281   4.801  1.00  0.00     0.019 A 
HETATM    4  C   UNL     1      63.840   5.641   5.483  1.00  0.00     0.013 A 
HETATM    5  C   UNL     1      63.106   7.684   4.437  1.00  0.00     0.001 A 
HETATM    6  C   UNL     1      62.869   6.364   4.785  1.00  0.00     0.001 A 
ENDROOT
BRANCH   2   7
HETATM    7  C   UNL     1      66.050   5.341   6.596  1.00  0.00    -0.009 A 
HETATM    8  C   UNL     1      65.993   5.158   7.986  1.00  0.00     0.099 A 
HETATM    9  N   UNL     1      66.788   4.333   8.714  1.00  0.00    -0.374 N 
HETATM   10  C   UNL     1      67.732   3.657   8.035  1.00  0.00     0.087 A 
ATOM     11  HN  UNL     1      66.675   4.232   9.723  1.00  0.00     0.164 HD
HETATM   12  C   UNL     1      67.905   3.763   6.668  1.00  0.00     0.018 A 
HETATM   13  C   UNL     1      67.046   4.595   5.948  1.00  0.00     0.015 A 
ENDBRANCH   2   7
BRANCH   1  14
HETATM   14  C   UNL     1      66.487   8.331   5.929  1.00  0.00     0.210 C 
HETATM   15  O   UNL     1      66.653   8.953   6.957  1.00  0.00    -0.644 OA
HETATM   16  O   UNL     1      67.449   8.269   4.985  1.00  0.00    -0.644 OA
ENDBRANCH   1  14
TORSDOF 2
ENDMDL
MODEL 9
REMARK VINA RESULT:      -4.8      2.479      3.085
REMARK  2 active torsions:
REMARK  status: ('A' for Active; 'I' for Inactive)
REMARK    1  A    between atoms: C_1  and  C_3 
REMARK    2  A    between atoms: C_2  and  C_5 
ROOT
HETATM    1  C   UNL     1      61.128   8.421   1.972  1.00  0.00     0.051 A 
HETATM    2  C   UNL     1      61.529   7.827   3.192  1.00  0.00    -0.008 A 
HETATM    3  C   UNL     1      59.876   8.119   1.394  1.00  0.00     0.019 A 
HETATM    4  C   UNL     1      60.601   6.932   3.785  1.00  0.00     0.013 A 
HETATM    5  C   UNL     1      58.994   7.241   2.015  1.00  0.00     0.001 A 
HETATM    6  C   UNL     1      59.355   6.652   3.217  1.00  0.00     0.001 A 
ENDROOT
BRANCH   2   7
HETATM    7  C   UNL     1      62.836   8.032   3.869  1.00  0.00    -0.009 A 
HETATM    8  C   UNL     1      63.036   9.069   4.792  1.00  0.00     0.099 A 
HETATM    9  N   UNL     1      64.165   9.291   5.510  1.00  0.00    -0.374 N 
HETATM   10  C   UNL     1      65.192   8.451   5.288  1.00  0.00     0.087 A 
ATOM     11  HN  UNL     1      64.232  10.055   6.183  1.00  0.00     0.164 HD
HETATM   12  C   UNL     1      65.131   7.400   4.391  1.00  0.00     0.018 A 
HETATM   13  C   UNL     1      63.940   7.183   3.696  1.00  0.00     0.015 A 
ENDBRANCH   2   7
BRANCH   1  14
HETATM   14  C   UNL     1      61.941   9.439   1.262  1.00  0.00     0.210 C 
HETATM   15  O   UNL     1      62.065  10.612   1.543  1.00  0.00    -0.644 OA
HETATM   16  O   UNL     1      62.578   8.900   0.202  1.00  0.00    -0.644 OA
ENDBRANCH   1  14
TORSDOF 2
ENDMDL
