MODEL 1
REMARK VINA RESULT:      -5.5      0.000      0.000
REMARK  3 active torsions:
REMARK  status: ('A' for Active; 'I' for Inactive)
REMARK    1  A    between atoms: C_1  and  C_2 
REMARK    2  A    between atoms: C_9  and  C_15 
REMARK    3  A    between atoms: O_12  and  C_15 
ROOT
HETATM    1  C   UNL     1      64.341   7.869   4.464  1.00  0.00    -0.023 A 
HETATM    2  C   UNL     1      64.184   9.028   5.249  1.00  0.00     0.021 A 
HETATM    3  C   UNL     1      63.204   9.997   4.969  1.00  0.00    -0.034 A 
HETATM    4  C   UNL     1      63.455   7.705   3.384  1.00  0.00     0.012 A 
HETATM    5  C   UNL     1      62.465   8.652   3.103  1.00  0.00     0.002 A 
HETATM    6  C   UNL     1      62.342   9.797   3.888  1.00  0.00     0.009 A 
ENDROOT
BRANCH   1   7
HETATM    7  C   UNL     1      65.398   6.881   4.759  1.00  0.00     0.005 A 
HETATM    8  C   UNL     1      65.419   6.087   5.896  1.00  0.00     0.102 A 
HETATM    9  N   UNL     1      66.374   5.175   6.192  1.00  0.00    -0.361 N 
HETATM   10  C   UNL     1      67.365   5.064   5.297  1.00  0.00     0.180 A 
ATOM     11  HN  UNL     1      66.341   4.609   7.039  1.00  0.00     0.166 HD
HETATM   12  N   UNL     1      67.473   5.760   4.160  1.00  0.00    -0.361 N 
HETATM   13  C   UNL     1      66.481   6.650   3.923  1.00  0.00     0.102 A 
ATOM     14  HN  UNL     1      68.252   5.630   3.515  1.00  0.00     0.166 HD
ENDBRANCH   1   7
BRANCH   3  15
HETATM   15  C   UNL     1      63.107  11.237   5.819  1.00  0.00     0.202 C 
BRANCH  15  16
HETATM   16  O   UNL     1      64.353  11.511   6.444  1.00  0.00    -0.396 OA
HETATM   17  H   UNL     1      65.070  11.404   5.798  1.00  0.00     0.209 HD
ENDBRANCH  15  16
ENDBRANCH   3  15
TORSDOF 3
ENDMDL
MODEL 2
REMARK VINA RESULT:      -5.4      2.169      2.496
REMARK  3 active torsions:
REMARK  status: ('A' for Active; 'I' for Inactive)
REMARK    1  A    between atoms: C_1  and  C_2 
REMARK    2  A    between atoms: C_9  and  C_15 
REMARK    3  A    between atoms: O_12  and  C_15 
ROOT
HETATM    1  C   UNL     1      64.278   7.970   4.928  1.00  0.00    -0.023 A 
HETATM    2  C   UNL     1      63.584   9.193   4.995  1.00  0.00     0.021 A 
HETATM    3  C   UNL     1      62.723   9.624   3.970  1.00  0.00    -0.034 A 
HETATM    4  C   UNL     1      64.061   7.174   3.788  1.00  0.00     0.012 A 
HETATM    5  C   UNL     1      63.195   7.583   2.768  1.00  0.00     0.002 A 
HETATM    6  C   UNL     1      62.533   8.805   2.855  1.00  0.00     0.009 A 
ENDROOT
BRANCH   1   7
HETATM    7  C   UNL     1      65.202   7.552   6.002  1.00  0.00     0.005 A 
HETATM    8  C   UNL     1      66.415   8.172   6.263  1.00  0.00     0.102 A 
HETATM    9  N   UNL     1      67.280   7.811   7.239  1.00  0.00    -0.361 N 
HETATM   10  C   UNL     1      66.905   6.764   7.986  1.00  0.00     0.180 A 
ATOM     11  HN  UNL     1      68.159   8.304   7.396  1.00  0.00     0.166 HD
HETATM   12  N   UNL     1      65.768   6.074   7.850  1.00  0.00    -0.361 N 
HETATM   13  C   UNL     1      64.946   6.492   6.860  1.00  0.00     0.102 A 
ATOM     14  HN  UNL     1      65.536   5.284   8.452  1.00  0.00     0.166 HD
ENDBRANCH   1   7
BRANCH   3  15
HETATM   15  C   UNL     1      62.037  10.961   4.077  1.00  0.00     0.202 C 
BRANCH  15  16
HETATM   16  O   UNL     1      61.327  11.254   2.882  1.00  0.00    -0.396 OA
HETATM   17  H   UNL     1      60.376  11.286   3.070  1.00  0.00     0.209 HD
ENDBRANCH  15  16
ENDBRANCH   3  15
TORSDOF 3
ENDMDL
MODEL 3
REMARK VINA RESULT:      -5.4      2.356      2.573
REMARK  3 active torsions:
REMARK  status: ('A' for Active; 'I' for Inactive)
REMARK    1  A    between atoms: C_1  and  C_2 
REMARK    2  A    between atoms: C_9  and  C_15 
REMARK    3  A    between atoms: O_12  and  C_15 
ROOT
HETATM    1  C   UNL     1      63.474   8.160   3.984  1.00  0.00    -0.023 A 
HETATM    2  C   UNL     1      62.936   9.462   3.987  1.00  0.00     0.021 A 
HETATM    3  C   UNL     1      62.219   9.979   2.893  1.00  0.00    -0.034 A 
HETATM    4  C   UNL     1      63.247   7.378   2.838  1.00  0.00     0.012 A 
HETATM    5  C   UNL     1      62.522   7.873   1.749  1.00  0.00     0.002 A 
HETATM    6  C   UNL     1      62.014   9.170   1.774  1.00  0.00     0.009 A 
ENDROOT
BRANCH   1   7
HETATM    7  C   UNL     1      64.252   7.650   5.132  1.00  0.00     0.005 A 
HETATM    8  C   UNL     1      63.957   6.471   5.801  1.00  0.00     0.102 A 
HETATM    9  N   UNL     1      64.652   5.980   6.855  1.00  0.00    -0.361 N 
HETATM   10  C   UNL     1      65.691   6.722   7.259  1.00  0.00     0.180 A 
ATOM     11  HN  UNL     1      64.400   5.103   7.310  1.00  0.00     0.166 HD
HETATM   12  N   UNL     1      66.090   7.873   6.709  1.00  0.00    -0.361 N 
HETATM   13  C   UNL     1      65.358   8.304   5.656  1.00  0.00     0.102 A 
ATOM     14  HN  UNL     1      66.894   8.394   7.060  1.00  0.00     0.166 HD
ENDBRANCH   1   7
BRANCH   3  15
HETATM   15  C   UNL     1      61.700  11.393   2.935  1.00  0.00     0.202 C 
BRANCH  15  16
HETATM   16  O   UNL     1      62.108  12.108   1.778  1.00  0.00    -0.396 OA
HETATM   17  H   UNL     1      61.458  11.975   1.070  1.00  0.00     0.209 HD
ENDBRANCH  15  16
ENDBRANCH   3  15
TORSDOF 3
ENDMDL
MODEL 4
REMARK VINA RESULT:      -5.2      1.262      1.431
REMARK  3 active torsions:
REMARK  status: ('A' for Active; 'I' for Inactive)
REMARK    1  A    between atoms: C_1  and  C_2 
REMARK    2  A    between atoms: C_9  and  C_15 
REMARK    3  A    between atoms: O_12  and  C_15 
ROOT
HETATM    1  C   UNL     1      63.621   8.231   3.944  1.00  0.00    -0.023 A 
HETATM    2  C   UNL     1      63.680   9.173   4.989  1.00  0.00     0.021 A 
HETATM    3  C   UNL     1      62.912  10.352   4.979  1.00  0.00    -0.034 A 
HETATM    4  C   UNL     1      62.739   8.507   2.884  1.00  0.00     0.012 A 
HETATM    5  C   UNL     1      61.958   9.667   2.869  1.00  0.00     0.002 A 
HETATM    6  C   UNL     1      62.047  10.589   3.910  1.00  0.00     0.009 A 
ENDROOT
BRANCH   1   7
HETATM    7  C   UNL     1      64.460   7.015   3.960  1.00  0.00     0.005 A 
HETATM    8  C   UNL     1      63.999   5.753   3.614  1.00  0.00     0.102 A 
HETATM    9  N   UNL     1      64.745   4.624   3.619  1.00  0.00    -0.361 N 
HETATM   10  C   UNL     1      66.019   4.773   4.003  1.00  0.00     0.180 A 
ATOM     11  HN  UNL     1      64.361   3.718   3.349  1.00  0.00     0.166 HD
HETATM   12  N   UNL     1      66.598   5.925   4.361  1.00  0.00    -0.361 N 
HETATM   13  C   UNL     1      65.798   7.016   4.326  1.00  0.00     0.102 A 
ATOM     14  HN  UNL     1      67.577   5.977   4.643  1.00  0.00     0.166 HD
ENDBRANCH   1   7
BRANCH   3  15
HETATM   15  C   UNL     1      63.045  11.344   6.105  1.00  0.00     0.202 C 
BRANCH  15  16
HETATM   16  O   UNL     1      64.410  11.527   6.451  1.00  0.00    -0.396 OA
HETATM   17  H   UNL     1      64.518  11.422   7.410  1.00  0.00     0.209 HD
ENDBRANCH  15  16
ENDBRANCH   3  15
TORSDOF 3
ENDMDL
MODEL 5
REMARK VINA RESULT:      -4.9      3.504      5.413
REMARK  3 active torsions:
REMARK  status: ('A' for Active; 'I' for Inactive)
REMARK    1  A    between atoms: C_1  and  C_2 
REMARK    2  A    between atoms: C_9  and  C_15 
REMARK    3  A    between atoms: O_12  and  C_15 
ROOT
HETATM    1  C   UNL     1      63.865   8.186   5.301  1.00  0.00    -0.023 A 
HETATM    2  C   UNL     1      65.271   8.124   5.233  1.00  0.00     0.021 A 
HETATM    3  C   UNL     1      66.002   7.068   5.806  1.00  0.00    -0.034 A 
HETATM    4  C   UNL     1      63.210   7.129   5.956  1.00  0.00     0.012 A 
HETATM    5  C   UNL     1      63.924   6.064   6.517  1.00  0.00     0.002 A 
HETATM    6  C   UNL     1      65.315   6.036   6.447  1.00  0.00     0.009 A 
ENDROOT
BRANCH   1   7
HETATM    7  C   UNL     1      63.120   9.321   4.720  1.00  0.00     0.005 A 
HETATM    8  C   UNL     1      62.409   9.251   3.531  1.00  0.00     0.102 A 
HETATM    9  N   UNL     1      61.717  10.273   2.975  1.00  0.00    -0.361 N 
HETATM   10  C   UNL     1      61.753  11.430   3.650  1.00  0.00     0.180 A 
ATOM     11  HN  UNL     1      61.203  10.170   2.101  1.00  0.00     0.166 HD
HETATM   12  N   UNL     1      62.393  11.642   4.805  1.00  0.00    -0.361 N 
HETATM   13  C   UNL     1      63.058  10.576   5.309  1.00  0.00     0.102 A 
ATOM     14  HN  UNL     1      62.382  12.547   5.275  1.00  0.00     0.166 HD
ENDBRANCH   1   7
BRANCH   3  15
HETATM   15  C   UNL     1      67.508   7.073   5.738  1.00  0.00     0.202 C 
BRANCH  15  16
HETATM   16  O   UNL     1      68.064   6.620   6.964  1.00  0.00    -0.396 OA
HETATM   17  H   UNL     1      67.506   6.916   7.701  1.00  0.00     0.209 HD
ENDBRANCH  15  16
ENDBRANCH   3  15
TORSDOF 3
ENDMDL
MODEL 6
REMARK VINA RESULT:      -4.6      3.317      5.241
REMARK  3 active torsions:
REMARK  status: ('A' for Active; 'I' for Inactive)
REMARK    1  A    between atoms: C_1  and  C_2 
REMARK    2  A    between atoms: C_9  and  C_15 
REMARK    3  A    between atoms: O_12  and  C_15 
ROOT
HETATM    1  C   UNL     1      65.440   7.716   5.328  1.00  0.00    -0.023 A 
HETATM    2  C   UNL     1      65.364   7.213   6.642  1.00  0.00     0.021 A 
HETATM    3  C   UNL     1      66.453   6.577   7.265  1.00  0.00    -0.034 A 
HETATM    4  C   UNL     1      66.669   7.572   4.660  1.00  0.00     0.012 A 
HETATM    5  C   UNL     1      67.765   6.956   5.273  1.00  0.00     0.002 A 
HETATM    6  C   UNL     1      67.657   6.456   6.568  1.00  0.00     0.009 A 
ENDROOT
BRANCH   1   7
HETATM    7  C   UNL     1      64.274   8.352   4.682  1.00  0.00     0.005 A 
HETATM    8  C   UNL     1      63.661   9.503   5.156  1.00  0.00     0.102 A 
HETATM    9  N   UNL     1      62.592  10.106   4.585  1.00  0.00    -0.361 N 
HETATM   10  C   UNL     1      62.112   9.513   3.484  1.00  0.00     0.180 A 
ATOM     11  HN  UNL     1      62.180  10.957   4.968  1.00  0.00     0.166 HD
HETATM   12  N   UNL     1      62.601   8.406   2.916  1.00  0.00    -0.361 N 
HETATM   13  C   UNL     1      63.674   7.858   3.533  1.00  0.00     0.102 A 
ATOM     14  HN  UNL     1      62.193   8.000   2.074  1.00  0.00     0.166 HD
ENDBRANCH   1   7
BRANCH   3  15
HETATM   15  C   UNL     1      66.303   6.024   8.658  1.00  0.00     0.202 C 
BRANCH  15  16
HETATM   16  O   UNL     1      66.296   4.603   8.632  1.00  0.00    -0.396 OA
HETATM   17  H   UNL     1      67.097   4.268   9.067  1.00  0.00     0.209 HD
ENDBRANCH  15  16
ENDBRANCH   3  15
TORSDOF 3
ENDMDL
MODEL 7
REMARK VINA RESULT:      -4.5      2.166      2.511
REMARK  3 active torsions:
REMARK  status: ('A' for Active; 'I' for Inactive)
REMARK    1  A    between atoms: C_1  and  C_2 
REMARK    2  A    between atoms: C_9  and  C_15 
REMARK    3  A    between atoms: O_12  and  C_15 
ROOT
HETATM    1  C   UNL     1      64.395   7.069   5.083  1.00  0.00    -0.023 A 
HETATM    2  C   UNL     1      63.676   8.280   5.116  1.00  0.00     0.021 A 
HETATM    3  C   UNL     1      62.979   8.767   3.996  1.00  0.00    -0.034 A 
HETATM    4  C   UNL     1      64.375   6.346   3.877  1.00  0.00     0.012 A 
HETATM    5  C   UNL     1      63.673   6.811   2.760  1.00  0.00     0.002 A 
HETATM    6  C   UNL     1      62.982   8.020   2.817  1.00  0.00     0.009 A 
ENDROOT
BRANCH   1   7
HETATM    7  C   UNL     1      65.146   6.592   6.262  1.00  0.00     0.005 A 
HETATM    8  C   UNL     1      64.995   5.328   6.815  1.00  0.00     0.102 A 
HETATM    9  N   UNL     1      65.669   4.865   7.894  1.00  0.00    -0.361 N 
HETATM   10  C   UNL     1      66.533   5.725   8.449  1.00  0.00     0.180 A 
ATOM     11  HN  UNL     1      65.528   3.924   8.260  1.00  0.00     0.166 HD
HETATM   12  N   UNL     1      66.782   6.968   8.024  1.00  0.00    -0.361 N 
HETATM   13  C   UNL     1      66.080   7.365   6.937  1.00  0.00     0.102 A 
ATOM     14  HN  UNL     1      67.456   7.577   8.488  1.00  0.00     0.166 HD
ENDBRANCH   1   7
BRANCH   3  15
HETATM   15  C   UNL     1      62.259  10.088   4.075  1.00  0.00     0.202 C 
BRANCH  15  16
HETATM   16  O   UNL     1      60.856   9.900   3.951  1.00  0.00    -0.396 OA
HETATM   17  H   UNL     1      60.574  10.150   3.057  1.00  0.00     0.209 HD
ENDBRANCH  15  16
ENDBRANCH   3  15
TORSDOF 3
ENDMDL
MODEL 8
REMARK VINA RESULT:      -4.5      3.795      4.595
REMARK  3 active torsions:
REMARK  status: ('A' for Active; 'I' for Inactive)
REMARK    1  A    between atoms: C_1  and  C_2 
REMARK    2  A    between atoms: C_9  and  C_15 
REMARK    3  A    between atoms: O_12  and  C_15 
ROOT
HETATM    1  C   UNL     1      61.502   7.643   3.107  1.00  0.00    -0.023 A 
HETATM    2  C   UNL     1      61.496   9.052   3.078  1.00  0.00     0.021 A 
HETATM    3  C   UNL     1      61.855   9.780   1.930  1.00  0.00    -0.034 A 
HETATM    4  C   UNL     1      61.868   6.983   1.921  1.00  0.00     0.012 A 
HETATM    5  C   UNL     1      62.213   7.694   0.766  1.00  0.00     0.002 A 
HETATM    6  C   UNL     1      62.211   9.087   0.772  1.00  0.00     0.009 A 
ENDROOT
BRANCH   1   7
HETATM    7  C   UNL     1      61.152   6.900   4.334  1.00  0.00     0.005 A 
HETATM    8  C   UNL     1      59.902   6.347   4.572  1.00  0.00     0.102 A 
HETATM    9  N   UNL     1      59.553   5.662   5.686  1.00  0.00    -0.361 N 
HETATM   10  C   UNL     1      60.513   5.535   6.612  1.00  0.00     0.180 A 
ATOM     11  HN  UNL     1      58.621   5.268   5.812  1.00  0.00     0.166 HD
HETATM   12  N   UNL     1      61.759   6.012   6.516  1.00  0.00    -0.361 N 
HETATM   13  C   UNL     1      62.043   6.681   5.375  1.00  0.00     0.102 A 
ATOM     14  HN  UNL     1      62.449   5.882   7.256  1.00  0.00     0.166 HD
ENDBRANCH   1   7
BRANCH   3  15
HETATM   15  C   UNL     1      61.868  11.286   1.969  1.00  0.00     0.202 C 
BRANCH  15  16
HETATM   16  O   UNL     1      61.559  11.754   3.274  1.00  0.00    -0.396 OA
HETATM   17  H   UNL     1      61.602  12.724   3.288  1.00  0.00     0.209 HD
ENDBRANCH  15  16
ENDBRANCH   3  15
TORSDOF 3
ENDMDL
MODEL 9
REMARK VINA RESULT:      -4.4     12.775     14.008
REMARK  3 active torsions:
REMARK  status: ('A' for Active; 'I' for Inactive)
REMARK    1  A    between atoms: C_1  and  C_2 
REMARK    2  A    between atoms: C_9  and  C_15 
REMARK    3  A    between atoms: O_12  and  C_15 
ROOT
HETATM    1  C   UNL     1      56.626   1.922  13.388  1.00  0.00    -0.023 A 
HETATM    2  C   UNL     1      56.903   2.462  12.117  1.00  0.00     0.021 A 
HETATM    3  C   UNL     1      58.211   2.552  11.610  1.00  0.00    -0.034 A 
HETATM    4  C   UNL     1      57.722   1.452  14.134  1.00  0.00     0.012 A 
HETATM    5  C   UNL     1      59.027   1.520  13.636  1.00  0.00     0.002 A 
HETATM    6  C   UNL     1      59.272   2.073  12.380  1.00  0.00     0.009 A 
ENDROOT
BRANCH   1   7
HETATM    7  C   UNL     1      55.247   1.867  13.914  1.00  0.00     0.005 A 
HETATM    8  C   UNL     1      54.399   2.963  13.976  1.00  0.00     0.102 A 
HETATM    9  N   UNL     1      53.133   2.942  14.453  1.00  0.00    -0.361 N 
HETATM   10  C   UNL     1      52.702   1.754  14.899  1.00  0.00     0.180 A 
ATOM     11  HN  UNL     1      52.545   3.775  14.471  1.00  0.00     0.166 HD
HETATM   12  N   UNL     1      53.406   0.617  14.899  1.00  0.00    -0.361 N 
HETATM   13  C   UNL     1      54.662   0.707  14.402  1.00  0.00     0.102 A 
ATOM     14  HN  UNL     1      53.023  -0.260  15.250  1.00  0.00     0.166 HD
ENDBRANCH   1   7
BRANCH   3  15
HETATM   15  C   UNL     1      58.453   3.175  10.259  1.00  0.00     0.202 C 
BRANCH  15  16
HETATM   16  O   UNL     1      58.604   4.583  10.380  1.00  0.00    -0.396 OA
HETATM   17  H   UNL     1      58.016   5.027   9.748  1.00  0.00     0.209 HD
ENDBRANCH  15  16
ENDBRANCH   3  15
TORSDOF 3
ENDMDL
