MODEL 1
REMARK VINA RESULT:      -5.0      0.000      0.000
REMARK  2 active torsions:
REMARK  status: ('A' for Active; 'I' for Inactive)
REMARK    1  A    between atoms: C_1  and  C_2 
REMARK    2  A    between atoms: C_9  and  N_10 
ROOT
HETATM    1  C   UNL     1      63.097   9.095   4.255  1.00  0.00    -0.021 A 
HETATM    2  C   UNL     1      62.840   8.648   2.943  1.00  0.00     0.041 A 
HETATM    3  C   UNL     1      62.116   9.414   2.021  1.00  0.00     0.026 A 
HETATM    4  C   UNL     1      62.628  10.374   4.601  1.00  0.00     0.012 A 
HETATM    5  C   UNL     1      61.945  11.170   3.677  1.00  0.00     0.003 A 
HETATM    6  C   UNL     1      61.713  10.698   2.386  1.00  0.00     0.029 A 
ENDROOT
BRANCH   1   7
HETATM    7  C   UNL     1      63.839   8.259   5.219  1.00  0.00     0.005 A 
HETATM    8  C   UNL     1      63.295   7.154   5.858  1.00  0.00     0.102 A 
HETATM    9  N   UNL     1      63.943   6.375   6.754  1.00  0.00    -0.361 N 
HETATM   10  C   UNL     1      65.211   6.722   7.012  1.00  0.00     0.180 A 
ATOM     11  HN  UNL     1      63.497   5.576   7.204  1.00  0.00     0.166 HD
HETATM   12  N   UNL     1      65.866   7.754   6.466  1.00  0.00    -0.361 N 
HETATM   13  C   UNL     1      65.157   8.497   5.585  1.00  0.00     0.102 A 
ATOM     14  HN  UNL     1      66.836   7.967   6.701  1.00  0.00     0.166 HD
ENDBRANCH   1   7
BRANCH   3  15
HETATM   15  N   UNL     1      62.008   8.995   0.690  1.00  0.00    -0.399 N 
HETATM   16  H   UNL     1      61.328   9.397   0.101  1.00  0.00     0.156 HD
HETATM   17  H   UNL     1      62.611   8.300   0.342  1.00  0.00     0.156 HD
ENDBRANCH   3  15
TORSDOF 2
ENDMDL
MODEL 2
REMARK VINA RESULT:      -5.0      1.192      2.299
REMARK  2 active torsions:
REMARK  status: ('A' for Active; 'I' for Inactive)
REMARK    1  A    between atoms: C_1  and  C_2 
REMARK    2  A    between atoms: C_9  and  N_10 
ROOT
HETATM    1  C   UNL     1      63.083   8.254   3.473  1.00  0.00    -0.021 A 
HETATM    2  C   UNL     1      62.593   9.576   3.429  1.00  0.00     0.041 A 
HETATM    3  C   UNL     1      61.998  10.115   2.282  1.00  0.00     0.026 A 
HETATM    4  C   UNL     1      62.917   7.470   2.318  1.00  0.00     0.012 A 
HETATM    5  C   UNL     1      62.282   7.979   1.182  1.00  0.00     0.003 A 
HETATM    6  C   UNL     1      61.806   9.289   1.176  1.00  0.00     0.029 A 
ENDROOT
BRANCH   1   7
HETATM    7  C   UNL     1      63.731   7.716   4.685  1.00  0.00     0.005 A 
HETATM    8  C   UNL     1      64.804   8.325   5.319  1.00  0.00     0.102 A 
HETATM    9  N   UNL     1      65.428   7.852   6.423  1.00  0.00    -0.361 N 
HETATM   10  C   UNL     1      64.937   6.710   6.919  1.00  0.00     0.180 A 
ATOM     11  HN  UNL     1      66.219   8.334   6.849  1.00  0.00     0.166 HD
HETATM   12  N   UNL     1      63.906   6.018   6.418  1.00  0.00    -0.361 N 
HETATM   13  C   UNL     1      63.333   6.542   5.310  1.00  0.00     0.102 A 
ATOM     14  HN  UNL     1      63.574   5.152   6.844  1.00  0.00     0.166 HD
ENDBRANCH   1   7
BRANCH   3  15
HETATM   15  N   UNL     1      61.398  11.378   2.328  1.00  0.00    -0.399 N 
HETATM   16  H   UNL     1      61.675  12.030   3.013  1.00  0.00     0.156 HD
HETATM   17  H   UNL     1      60.700  11.616   1.677  1.00  0.00     0.156 HD
ENDBRANCH   3  15
TORSDOF 2
ENDMDL
MODEL 3
REMARK VINA RESULT:      -4.7      2.418      3.241
REMARK  2 active torsions:
REMARK  status: ('A' for Active; 'I' for Inactive)
REMARK    1  A    between atoms: C_1  and  C_2 
REMARK    2  A    between atoms: C_9  and  N_10 
ROOT
HETATM    1  C   UNL     1      63.221   8.708   3.896  1.00  0.00    -0.021 A 
HETATM    2  C   UNL     1      63.511   9.440   5.066  1.00  0.00     0.041 A 
HETATM    3  C   UNL     1      63.032  10.740   5.273  1.00  0.00     0.026 A 
HETATM    4  C   UNL     1      62.389   9.322   2.945  1.00  0.00     0.012 A 
HETATM    5  C   UNL     1      61.864  10.600   3.159  1.00  0.00     0.003 A 
HETATM    6  C   UNL     1      62.168  11.293   4.329  1.00  0.00     0.029 A 
ENDROOT
BRANCH   1   7
HETATM    7  C   UNL     1      63.760   7.350   3.688  1.00  0.00     0.005 A 
HETATM    8  C   UNL     1      63.575   6.618   2.523  1.00  0.00     0.102 A 
HETATM    9  N   UNL     1      64.045   5.368   2.306  1.00  0.00    -0.361 N 
HETATM   10  C   UNL     1      64.747   4.831   3.311  1.00  0.00     0.180 A 
ATOM     11  HN  UNL     1      63.876   4.868   1.433  1.00  0.00     0.166 HD
HETATM   12  N   UNL     1      65.010   5.420   4.485  1.00  0.00    -0.361 N 
HETATM   13  C   UNL     1      64.504   6.666   4.640  1.00  0.00     0.102 A 
ATOM     14  HN  UNL     1      65.555   4.960   5.214  1.00  0.00     0.166 HD
ENDBRANCH   1   7
BRANCH   3  15
HETATM   15  N   UNL     1      63.224  11.372   6.506  1.00  0.00    -0.399 N 
HETATM   16  H   UNL     1      64.069  11.844   6.691  1.00  0.00     0.156 HD
HETATM   17  H   UNL     1      62.516  11.346   7.189  1.00  0.00     0.156 HD
ENDBRANCH   3  15
TORSDOF 2
ENDMDL
MODEL 4
REMARK VINA RESULT:      -4.7      1.569      5.237
REMARK  2 active torsions:
REMARK  status: ('A' for Active; 'I' for Inactive)
REMARK    1  A    between atoms: C_1  and  C_2 
REMARK    2  A    between atoms: C_9  and  N_10 
ROOT
HETATM    1  C   UNL     1      64.097   8.221   5.339  1.00  0.00    -0.021 A 
HETATM    2  C   UNL     1      65.482   8.405   5.529  1.00  0.00     0.041 A 
HETATM    3  C   UNL     1      66.260   7.508   6.272  1.00  0.00     0.026 A 
HETATM    4  C   UNL     1      63.520   7.068   5.897  1.00  0.00     0.012 A 
HETATM    5  C   UNL     1      64.292   6.139   6.601  1.00  0.00     0.003 A 
HETATM    6  C   UNL     1      65.660   6.351   6.766  1.00  0.00     0.029 A 
ENDROOT
BRANCH   1   7
HETATM    7  C   UNL     1      63.291   9.194   4.574  1.00  0.00     0.005 A 
HETATM    8  C   UNL     1      62.825   8.965   3.287  1.00  0.00     0.102 A 
HETATM    9  N   UNL     1      62.096   9.839   2.556  1.00  0.00    -0.361 N 
HETATM   10  C   UNL     1      61.814  11.001   3.157  1.00  0.00     0.180 A 
ATOM     11  HN  UNL     1      61.783   9.626   1.609  1.00  0.00     0.166 HD
HETATM   12  N   UNL     1      62.190  11.355   4.393  1.00  0.00    -0.361 N 
HETATM   13  C   UNL     1      62.923  10.438   5.066  1.00  0.00     0.102 A 
ATOM     14  HN  UNL     1      61.940  12.257   4.799  1.00  0.00     0.166 HD
ENDBRANCH   1   7
BRANCH   3  15
HETATM   15  N   UNL     1      67.651   7.653   6.315  1.00  0.00    -0.399 N 
HETATM   16  H   UNL     1      68.120   8.126   5.589  1.00  0.00     0.156 HD
HETATM   17  H   UNL     1      68.161   7.283   7.071  1.00  0.00     0.156 HD
ENDBRANCH   3  15
TORSDOF 2
ENDMDL
MODEL 5
REMARK VINA RESULT:      -4.7      1.227      5.266
REMARK  2 active torsions:
REMARK  status: ('A' for Active; 'I' for Inactive)
REMARK    1  A    between atoms: C_1  and  C_2 
REMARK    2  A    between atoms: C_9  and  N_10 
ROOT
HETATM    1  C   UNL     1      63.738   8.145   4.859  1.00  0.00    -0.021 A 
HETATM    2  C   UNL     1      65.052   8.493   5.234  1.00  0.00     0.041 A 
HETATM    3  C   UNL     1      65.752   7.800   6.230  1.00  0.00     0.026 A 
HETATM    4  C   UNL     1      63.158   7.038   5.501  1.00  0.00     0.012 A 
HETATM    5  C   UNL     1      63.863   6.308   6.463  1.00  0.00     0.003 A 
HETATM    6  C   UNL     1      65.162   6.677   6.806  1.00  0.00     0.029 A 
ENDROOT
BRANCH   1   7
HETATM    7  C   UNL     1      63.008   8.907   3.825  1.00  0.00     0.005 A 
HETATM    8  C   UNL     1      62.415  10.140   4.053  1.00  0.00     0.102 A 
HETATM    9  N   UNL     1      61.730  10.857   3.133  1.00  0.00    -0.361 N 
HETATM   10  C   UNL     1      61.648  10.307   1.915  1.00  0.00     0.180 A 
ATOM     11  HN  UNL     1      61.305  11.758   3.351  1.00  0.00     0.166 HD
HETATM   12  N   UNL     1      62.175   9.131   1.551  1.00  0.00    -0.361 N 
HETATM   13  C   UNL     1      62.840   8.462   2.521  1.00  0.00     0.102 A 
ATOM     14  HN  UNL     1      62.082   8.764   0.603  1.00  0.00     0.166 HD
ENDBRANCH   1   7
BRANCH   3  15
HETATM   15  N   UNL     1      67.101   8.087   6.469  1.00  0.00    -0.399 N 
HETATM   16  H   UNL     1      67.348   8.836   7.059  1.00  0.00     0.156 HD
HETATM   17  H   UNL     1      67.803   7.541   6.048  1.00  0.00     0.156 HD
ENDBRANCH   3  15
TORSDOF 2
ENDMDL
MODEL 6
REMARK VINA RESULT:      -4.7      2.374      3.004
REMARK  2 active torsions:
REMARK  status: ('A' for Active; 'I' for Inactive)
REMARK    1  A    between atoms: C_1  and  C_2 
REMARK    2  A    between atoms: C_9  and  N_10 
ROOT
HETATM    1  C   UNL     1      64.342   8.108   4.460  1.00  0.00    -0.021 A 
HETATM    2  C   UNL     1      64.262   9.246   5.289  1.00  0.00     0.041 A 
HETATM    3  C   UNL     1      63.293  10.240   5.102  1.00  0.00     0.026 A 
HETATM    4  C   UNL     1      63.376   7.982   3.447  1.00  0.00     0.012 A 
HETATM    5  C   UNL     1      62.374   8.942   3.278  1.00  0.00     0.003 A 
HETATM    6  C   UNL     1      62.323  10.053   4.119  1.00  0.00     0.029 A 
ENDROOT
BRANCH   1   7
HETATM    7  C   UNL     1      65.389   7.086   4.659  1.00  0.00     0.005 A 
HETATM    8  C   UNL     1      65.128   5.786   5.070  1.00  0.00     0.102 A 
HETATM    9  N   UNL     1      66.064   4.831   5.272  1.00  0.00    -0.361 N 
HETATM   10  C   UNL     1      67.330   5.202   5.039  1.00  0.00     0.180 A 
ATOM     11  HN  UNL     1      65.823   3.890   5.582  1.00  0.00     0.166 HD
HETATM   12  N   UNL     1      67.727   6.415   4.634  1.00  0.00    -0.361 N 
HETATM   13  C   UNL     1      66.741   7.325   4.458  1.00  0.00     0.102 A 
ATOM     14  HN  UNL     1      68.709   6.638   4.469  1.00  0.00     0.166 HD
ENDBRANCH   1   7
BRANCH   3  15
HETATM   15  N   UNL     1      63.162  11.277   6.032  1.00  0.00    -0.399 N 
HETATM   16  H   UNL     1      62.470  11.967   5.907  1.00  0.00     0.156 HD
HETATM   17  H   UNL     1      63.760  11.317   6.813  1.00  0.00     0.156 HD
ENDBRANCH   3  15
TORSDOF 2
ENDMDL
MODEL 7
REMARK VINA RESULT:      -4.6      2.159      5.525
REMARK  2 active torsions:
REMARK  status: ('A' for Active; 'I' for Inactive)
REMARK    1  A    between atoms: C_1  and  C_2 
REMARK    2  A    between atoms: C_9  and  N_10 
ROOT
HETATM    1  C   UNL     1      65.299   7.622   5.013  1.00  0.00    -0.021 A 
HETATM    2  C   UNL     1      65.713   7.711   6.358  1.00  0.00     0.041 A 
HETATM    3  C   UNL     1      66.810   6.995   6.853  1.00  0.00     0.026 A 
HETATM    4  C   UNL     1      66.062   6.805   4.160  1.00  0.00     0.012 A 
HETATM    5  C   UNL     1      67.188   6.122   4.628  1.00  0.00     0.003 A 
HETATM    6  C   UNL     1      67.570   6.237   5.964  1.00  0.00     0.029 A 
ENDROOT
BRANCH   1   7
HETATM    7  C   UNL     1      64.123   8.365   4.521  1.00  0.00     0.005 A 
HETATM    8  C   UNL     1      63.398   8.000   3.395  1.00  0.00     0.102 A 
HETATM    9  N   UNL     1      62.323   8.666   2.912  1.00  0.00    -0.361 N 
HETATM   10  C   UNL     1      61.955   9.751   3.605  1.00  0.00     0.180 A 
ATOM     11  HN  UNL     1      61.827   8.362   2.074  1.00  0.00     0.166 HD
HETATM   12  N   UNL     1      62.554  10.215   4.709  1.00  0.00    -0.361 N 
HETATM   13  C   UNL     1      63.626   9.507   5.134  1.00  0.00     0.102 A 
ATOM     14  HN  UNL     1      62.224  11.048   5.197  1.00  0.00     0.166 HD
ENDBRANCH   1   7
BRANCH   3  15
HETATM   15  N   UNL     1      67.270   7.223   8.154  1.00  0.00    -0.399 N 
HETATM   16  H   UNL     1      66.654   7.568   8.841  1.00  0.00     0.156 HD
HETATM   17  H   UNL     1      68.208   7.038   8.384  1.00  0.00     0.156 HD
ENDBRANCH   3  15
TORSDOF 2
ENDMDL
MODEL 8
REMARK VINA RESULT:      -4.4      1.798      5.095
REMARK  2 active torsions:
REMARK  status: ('A' for Active; 'I' for Inactive)
REMARK    1  A    between atoms: C_1  and  C_2 
REMARK    2  A    between atoms: C_9  and  N_10 
ROOT
HETATM    1  C   UNL     1      63.793   8.226   5.213  1.00  0.00    -0.021 A 
HETATM    2  C   UNL     1      63.096   7.039   5.521  1.00  0.00     0.041 A 
HETATM    3  C   UNL     1      63.741   5.902   6.024  1.00  0.00     0.026 A 
HETATM    4  C   UNL     1      65.176   8.242   5.467  1.00  0.00     0.012 A 
HETATM    5  C   UNL     1      65.825   7.131   6.013  1.00  0.00     0.003 A 
HETATM    6  C   UNL     1      65.103   5.976   6.310  1.00  0.00     0.029 A 
ENDROOT
BRANCH   1   7
HETATM    7  C   UNL     1      63.097   9.403   4.658  1.00  0.00     0.005 A 
HETATM    8  C   UNL     1      63.025  10.629   5.303  1.00  0.00     0.102 A 
HETATM    9  N   UNL     1      62.385  11.723   4.828  1.00  0.00    -0.361 N 
HETATM   10  C   UNL     1      61.795  11.576   3.635  1.00  0.00     0.180 A 
ATOM     11  HN  UNL     1      62.354  12.602   5.345  1.00  0.00     0.166 HD
HETATM   12  N   UNL     1      61.789  10.458   2.898  1.00  0.00    -0.361 N 
HETATM   13  C   UNL     1      62.441   9.400   3.435  1.00  0.00     0.102 A 
ATOM     14  HN  UNL     1      61.324  10.407   1.991  1.00  0.00     0.166 HD
ENDBRANCH   1   7
BRANCH   3  15
HETATM   15  N   UNL     1      62.991   4.800   6.449  1.00  0.00    -0.399 N 
HETATM   16  H   UNL     1      62.262   4.453   5.886  1.00  0.00     0.156 HD
HETATM   17  H   UNL     1      63.194   4.370   7.311  1.00  0.00     0.156 HD
ENDBRANCH   3  15
TORSDOF 2
ENDMDL
MODEL 9
REMARK VINA RESULT:      -4.4      2.152      3.254
REMARK  2 active torsions:
REMARK  status: ('A' for Active; 'I' for Inactive)
REMARK    1  A    between atoms: C_1  and  C_2 
REMARK    2  A    between atoms: C_9  and  N_10 
ROOT
HETATM    1  C   UNL     1      64.850   7.105   5.374  1.00  0.00    -0.021 A 
HETATM    2  C   UNL     1      64.116   8.308   5.321  1.00  0.00     0.041 A 
HETATM    3  C   UNL     1      63.411   8.703   4.178  1.00  0.00     0.026 A 
HETATM    4  C   UNL     1      64.818   6.283   4.235  1.00  0.00     0.012 A 
HETATM    5  C   UNL     1      64.080   6.642   3.103  1.00  0.00     0.003 A 
HETATM    6  C   UNL     1      63.362   7.836   3.088  1.00  0.00     0.029 A 
ENDROOT
BRANCH   1   7
HETATM    7  C   UNL     1      65.609   6.721   6.581  1.00  0.00     0.005 A 
HETATM    8  C   UNL     1      65.416   5.530   7.265  1.00  0.00     0.102 A 
HETATM    9  N   UNL     1      66.085   5.154   8.380  1.00  0.00    -0.361 N 
HETATM   10  C   UNL     1      67.004   6.022   8.822  1.00  0.00     0.180 A 
ATOM     11  HN  UNL     1      65.902   4.269   8.851  1.00  0.00     0.166 HD
HETATM   12  N   UNL     1      67.301   7.201   8.262  1.00  0.00    -0.361 N 
HETATM   13  C   UNL     1      66.590   7.518   7.155  1.00  0.00     0.102 A 
ATOM     14  HN  UNL     1      68.016   7.820   8.644  1.00  0.00     0.166 HD
ENDBRANCH   1   7
BRANCH   3  15
HETATM   15  N   UNL     1      62.582   9.830   4.218  1.00  0.00    -0.399 N 
HETATM   16  H   UNL     1      62.478  10.394   3.417  1.00  0.00     0.156 HD
HETATM   17  H   UNL     1      62.103  10.060   5.046  1.00  0.00     0.156 HD
ENDBRANCH   3  15
TORSDOF 2
ENDMDL
