MODEL 1
REMARK VINA RESULT:      -6.0      0.000      0.000
REMARK  2 active torsions:
REMARK  status: ('A' for Active; 'I' for Inactive)
REMARK    1  A    between atoms: C_1  and  C_2 
REMARK    2  A    between atoms: C_4  and  C_7 
ROOT
HETATM    1  C   UNL     1      63.091   9.677   4.496  1.00  0.00     0.041 A 
HETATM    2  C   UNL     1      64.110   9.056   5.234  1.00  0.00     0.032 A 
HETATM    3  C   UNL     1      64.641   7.813   4.848  1.00  0.00    -0.009 A 
HETATM    4  C   UNL     1      62.603   9.075   3.332  1.00  0.00     0.018 A 
HETATM    5  C   UNL     1      64.108   7.218   3.688  1.00  0.00     0.014 A 
HETATM    6  C   UNL     1      63.106   7.840   2.936  1.00  0.00     0.002 A 
ENDROOT
BRANCH   3   7
HETATM    7  C   UNL     1      65.707   7.138   5.620  1.00  0.00     0.042 A 
HETATM    8  N   UNL     1      65.651   7.306   6.968  1.00  0.00    -0.365 N 
HETATM    9  C   UNL     1      66.609   6.725   7.721  1.00  0.00     0.088 A 
ATOM     10  HN  UNL     1      64.906   7.856   7.397  1.00  0.00     0.165 HD
HETATM   11  C   UNL     1      67.642   5.966   7.202  1.00  0.00     0.017 A 
HETATM   12  C   UNL     1      67.691   5.788   5.827  1.00  0.00     0.004 A 
HETATM   13  C   UNL     1      66.716   6.377   5.026  1.00  0.00     0.030 A 
ENDBRANCH   3   7
BRANCH   1  14
HETATM   14  C   UNL     1      62.591  10.990   4.970  1.00  0.00     0.209 C 
HETATM   15  O   UNL     1      61.870  11.705   4.296  1.00  0.00    -0.644 OA
HETATM   16  O   UNL     1      63.047  11.340   6.191  1.00  0.00    -0.644 OA
ENDBRANCH   1  14
TORSDOF 2
ENDMDL
MODEL 2
REMARK VINA RESULT:      -5.8      3.080      5.604
REMARK  2 active torsions:
REMARK  status: ('A' for Active; 'I' for Inactive)
REMARK    1  A    between atoms: C_1  and  C_2 
REMARK    2  A    between atoms: C_4  and  C_7 
ROOT
HETATM    1  C   UNL     1      66.479   6.533   7.261  1.00  0.00     0.041 A 
HETATM    2  C   UNL     1      65.384   7.257   6.764  1.00  0.00     0.032 A 
HETATM    3  C   UNL     1      65.433   7.889   5.509  1.00  0.00    -0.009 A 
HETATM    4  C   UNL     1      67.639   6.401   6.492  1.00  0.00     0.018 A 
HETATM    5  C   UNL     1      66.627   7.764   4.772  1.00  0.00     0.014 A 
HETATM    6  C   UNL     1      67.715   7.027   5.252  1.00  0.00     0.002 A 
ENDROOT
BRANCH   3   7
HETATM    7  C   UNL     1      64.294   8.666   4.975  1.00  0.00     0.042 A 
HETATM    8  N   UNL     1      63.981   9.796   5.663  1.00  0.00    -0.365 N 
HETATM    9  C   UNL     1      62.938  10.536   5.228  1.00  0.00     0.088 A 
ATOM     10  HN  UNL     1      64.518  10.076   6.483  1.00  0.00     0.165 HD
HETATM   11  C   UNL     1      62.173  10.214   4.121  1.00  0.00     0.017 A 
HETATM   12  C   UNL     1      62.501   9.066   3.416  1.00  0.00     0.004 A 
HETATM   13  C   UNL     1      63.572   8.283   3.843  1.00  0.00     0.030 A 
ENDBRANCH   3   7
BRANCH   1  14
HETATM   14  C   UNL     1      66.342   5.892   8.591  1.00  0.00     0.209 C 
HETATM   15  O   UNL     1      66.397   6.518   9.635  1.00  0.00    -0.644 OA
HETATM   16  O   UNL     1      66.201   4.551   8.539  1.00  0.00    -0.644 OA
ENDBRANCH   1  14
TORSDOF 2
ENDMDL
MODEL 3
REMARK VINA RESULT:      -5.6      2.388      3.210
REMARK  2 active torsions:
REMARK  status: ('A' for Active; 'I' for Inactive)
REMARK    1  A    between atoms: C_1  and  C_2 
REMARK    2  A    between atoms: C_4  and  C_7 
ROOT
HETATM    1  C   UNL     1      62.202   9.485   2.586  1.00  0.00     0.041 A 
HETATM    2  C   UNL     1      62.967   8.610   3.373  1.00  0.00     0.032 A 
HETATM    3  C   UNL     1      63.400   8.972   4.660  1.00  0.00    -0.009 A 
HETATM    4  C   UNL     1      61.828  10.735   3.090  1.00  0.00     0.018 A 
HETATM    5  C   UNL     1      63.034  10.249   5.127  1.00  0.00     0.014 A 
HETATM    6  C   UNL     1      62.255  11.120   4.357  1.00  0.00     0.002 A 
ENDROOT
BRANCH   3   7
HETATM    7  C   UNL     1      64.216   8.068   5.499  1.00  0.00     0.042 A 
HETATM    8  N   UNL     1      65.442   8.541   5.850  1.00  0.00    -0.365 N 
HETATM    9  C   UNL     1      66.236   7.749   6.602  1.00  0.00     0.088 A 
ATOM     10  HN  UNL     1      65.752   9.466   5.552  1.00  0.00     0.165 HD
HETATM   11  C   UNL     1      65.874   6.488   7.041  1.00  0.00     0.017 A 
HETATM   12  C   UNL     1      64.620   6.013   6.690  1.00  0.00     0.004 A 
HETATM   13  C   UNL     1      63.779   6.808   5.913  1.00  0.00     0.030 A 
ENDBRANCH   3   7
BRANCH   1  14
HETATM   14  C   UNL     1      61.782   9.023   1.241  1.00  0.00     0.209 C 
HETATM   15  O   UNL     1      62.544   8.971   0.292  1.00  0.00    -0.644 OA
HETATM   16  O   UNL     1      60.471   8.713   1.156  1.00  0.00    -0.644 OA
ENDBRANCH   1  14
TORSDOF 2
ENDMDL
MODEL 4
REMARK VINA RESULT:      -5.6      1.834      2.363
REMARK  2 active torsions:
REMARK  status: ('A' for Active; 'I' for Inactive)
REMARK    1  A    between atoms: C_1  and  C_2 
REMARK    2  A    between atoms: C_4  and  C_7 
ROOT
HETATM    1  C   UNL     1      62.174   9.925   2.451  1.00  0.00     0.041 A 
HETATM    2  C   UNL     1      62.854   9.181   3.428  1.00  0.00     0.032 A 
HETATM    3  C   UNL     1      63.205   7.837   3.212  1.00  0.00    -0.009 A 
HETATM    4  C   UNL     1      61.859   9.342   1.220  1.00  0.00     0.018 A 
HETATM    5  C   UNL     1      62.846   7.270   1.973  1.00  0.00     0.014 A 
HETATM    6  C   UNL     1      62.187   8.010   0.987  1.00  0.00     0.002 A 
ENDROOT
BRANCH   3   7
HETATM    7  C   UNL     1      63.911   7.033   4.233  1.00  0.00     0.042 A 
HETATM    8  N   UNL     1      63.466   7.186   5.509  1.00  0.00    -0.365 N 
HETATM    9  C   UNL     1      64.085   6.488   6.485  1.00  0.00     0.088 A 
ATOM     10  HN  UNL     1      62.687   7.810   5.722  1.00  0.00     0.165 HD
HETATM   11  C   UNL     1      65.143   5.625   6.263  1.00  0.00     0.017 A 
HETATM   12  C   UNL     1      65.587   5.463   4.959  1.00  0.00     0.004 A 
HETATM   13  C   UNL     1      64.967   6.172   3.932  1.00  0.00     0.030 A 
ENDBRANCH   3   7
BRANCH   1  14
HETATM   14  C   UNL     1      61.846  11.338   2.758  1.00  0.00     0.209 C 
HETATM   15  O   UNL     1      61.765  12.199   1.900  1.00  0.00    -0.644 OA
HETATM   16  O   UNL     1      61.694  11.589   4.076  1.00  0.00    -0.644 OA
ENDBRANCH   1  14
TORSDOF 2
ENDMDL
MODEL 5
REMARK VINA RESULT:      -5.4      3.216      5.930
REMARK  2 active torsions:
REMARK  status: ('A' for Active; 'I' for Inactive)
REMARK    1  A    between atoms: C_1  and  C_2 
REMARK    2  A    between atoms: C_4  and  C_7 
ROOT
HETATM    1  C   UNL     1      63.880   9.039   4.917  1.00  0.00     0.041 A 
HETATM    2  C   UNL     1      63.131   8.407   3.913  1.00  0.00     0.032 A 
HETATM    3  C   UNL     1      62.023   9.038   3.319  1.00  0.00    -0.009 A 
HETATM    4  C   UNL     1      63.551  10.335   5.327  1.00  0.00     0.018 A 
HETATM    5  C   UNL     1      61.699  10.330   3.775  1.00  0.00     0.014 A 
HETATM    6  C   UNL     1      62.452  10.975   4.761  1.00  0.00     0.002 A 
ENDROOT
BRANCH   3   7
HETATM    7  C   UNL     1      61.215   8.383   2.268  1.00  0.00     0.042 A 
HETATM    8  N   UNL     1      59.871   8.391   2.472  1.00  0.00    -0.365 N 
HETATM    9  C   UNL     1      59.085   7.793   1.550  1.00  0.00     0.088 A 
ATOM     10  HN  UNL     1      59.468   8.836   3.297  1.00  0.00     0.165 HD
HETATM   11  C   UNL     1      59.568   7.176   0.410  1.00  0.00     0.017 A 
HETATM   12  C   UNL     1      60.938   7.179   0.200  1.00  0.00     0.004 A 
HETATM   13  C   UNL     1      61.773   7.788   1.135  1.00  0.00     0.030 A 
ENDBRANCH   3   7
BRANCH   1  14
HETATM   14  C   UNL     1      65.036   8.305   5.487  1.00  0.00     0.209 C 
HETATM   15  O   UNL     1      65.194   7.105   5.343  1.00  0.00    -0.644 OA
HETATM   16  O   UNL     1      65.867   9.079   6.217  1.00  0.00    -0.644 OA
ENDBRANCH   1  14
TORSDOF 2
ENDMDL
MODEL 6
REMARK VINA RESULT:      -5.3      3.687      4.409
REMARK  2 active torsions:
REMARK  status: ('A' for Active; 'I' for Inactive)
REMARK    1  A    between atoms: C_1  and  C_2 
REMARK    2  A    between atoms: C_4  and  C_7 
ROOT
HETATM    1  C   UNL     1      61.813  10.000   2.475  1.00  0.00     0.041 A 
HETATM    2  C   UNL     1      61.485   9.154   3.545  1.00  0.00     0.032 A 
HETATM    3  C   UNL     1      61.450   7.757   3.390  1.00  0.00    -0.009 A 
HETATM    4  C   UNL     1      62.145   9.458   1.229  1.00  0.00     0.018 A 
HETATM    5  C   UNL     1      61.759   7.243   2.116  1.00  0.00     0.014 A 
HETATM    6  C   UNL     1      62.107   8.079   1.050  1.00  0.00     0.002 A 
ENDROOT
BRANCH   3   7
HETATM    7  C   UNL     1      61.094   6.850   4.504  1.00  0.00     0.042 A 
HETATM    8  N   UNL     1      62.090   6.597   5.394  1.00  0.00    -0.365 N 
HETATM    9  C   UNL     1      61.825   5.762   6.422  1.00  0.00     0.088 A 
ATOM     10  HN  UNL     1      63.010   7.025   5.288  1.00  0.00     0.165 HD
HETATM   11  C   UNL     1      60.600   5.154   6.624  1.00  0.00     0.017 A 
HETATM   12  C   UNL     1      59.583   5.422   5.720  1.00  0.00     0.004 A 
HETATM   13  C   UNL     1      59.828   6.279   4.649  1.00  0.00     0.030 A 
ENDBRANCH   3   7
BRANCH   1  14
HETATM   14  C   UNL     1      61.832  11.462   2.725  1.00  0.00     0.209 C 
HETATM   15  O   UNL     1      61.869  12.285   1.828  1.00  0.00    -0.644 OA
HETATM   16  O   UNL     1      61.854  11.791   4.034  1.00  0.00    -0.644 OA
ENDBRANCH   1  14
TORSDOF 2
ENDMDL
MODEL 7
REMARK VINA RESULT:      -5.0      1.887      2.509
REMARK  2 active torsions:
REMARK  status: ('A' for Active; 'I' for Inactive)
REMARK    1  A    between atoms: C_1  and  C_2 
REMARK    2  A    between atoms: C_4  and  C_7 
ROOT
HETATM    1  C   UNL     1      61.959   8.989   3.229  1.00  0.00     0.041 A 
HETATM    2  C   UNL     1      63.106   8.785   4.012  1.00  0.00     0.032 A 
HETATM    3  C   UNL     1      63.168   7.752   4.964  1.00  0.00    -0.009 A 
HETATM    4  C   UNL     1      60.858   8.137   3.363  1.00  0.00     0.018 A 
HETATM    5  C   UNL     1      62.032   6.930   5.097  1.00  0.00     0.014 A 
HETATM    6  C   UNL     1      60.893   7.114   4.306  1.00  0.00     0.002 A 
ENDROOT
BRANCH   3   7
HETATM    7  C   UNL     1      64.364   7.529   5.806  1.00  0.00     0.042 A 
HETATM    8  N   UNL     1      65.338   8.471   5.701  1.00  0.00    -0.365 N 
HETATM    9  C   UNL     1      66.460   8.309   6.436  1.00  0.00     0.088 A 
ATOM     10  HN  UNL     1      65.226   9.276   5.085  1.00  0.00     0.165 HD
HETATM   11  C   UNL     1      66.673   7.244   7.292  1.00  0.00     0.017 A 
HETATM   12  C   UNL     1      65.672   6.291   7.405  1.00  0.00     0.004 A 
HETATM   13  C   UNL     1      64.505   6.432   6.657  1.00  0.00     0.030 A 
ENDBRANCH   3   7
BRANCH   1  14
HETATM   14  C   UNL     1      61.978  10.098   2.245  1.00  0.00     0.209 C 
HETATM   15  O   UNL     1      61.792  11.262   2.557  1.00  0.00    -0.644 OA
HETATM   16  O   UNL     1      62.169   9.695   0.972  1.00  0.00    -0.644 OA
ENDBRANCH   1  14
TORSDOF 2
ENDMDL
MODEL 8
REMARK VINA RESULT:      -4.5      4.091      6.635
REMARK  2 active torsions:
REMARK  status: ('A' for Active; 'I' for Inactive)
REMARK    1  A    between atoms: C_1  and  C_2 
REMARK    2  A    between atoms: C_4  and  C_7 
ROOT
HETATM    1  C   UNL     1      62.846   7.775   5.381  1.00  0.00     0.041 A 
HETATM    2  C   UNL     1      61.665   7.349   4.755  1.00  0.00     0.032 A 
HETATM    3  C   UNL     1      61.002   8.157   3.814  1.00  0.00    -0.009 A 
HETATM    4  C   UNL     1      63.407   9.013   5.052  1.00  0.00     0.018 A 
HETATM    5  C   UNL     1      61.576   9.411   3.527  1.00  0.00     0.014 A 
HETATM    6  C   UNL     1      62.764   9.834   4.131  1.00  0.00     0.002 A 
ENDROOT
BRANCH   3   7
HETATM    7  C   UNL     1      59.750   7.730   3.153  1.00  0.00     0.042 A 
HETATM    8  N   UNL     1      59.666   8.005   1.824  1.00  0.00    -0.365 N 
HETATM    9  C   UNL     1      58.537   7.651   1.172  1.00  0.00     0.088 A 
ATOM     10  HN  UNL     1      60.434   8.464   1.334  1.00  0.00     0.165 HD
HETATM   11  C   UNL     1      57.463   7.023   1.777  1.00  0.00     0.017 A 
HETATM   12  C   UNL     1      57.557   6.736   3.131  1.00  0.00     0.004 A 
HETATM   13  C   UNL     1      58.709   7.090   3.828  1.00  0.00     0.030 A 
ENDBRANCH   3   7
BRANCH   1  14
HETATM   14  C   UNL     1      63.484   6.859   6.358  1.00  0.00     0.209 C 
HETATM   15  O   UNL     1      64.328   7.227   7.155  1.00  0.00    -0.644 OA
HETATM   16  O   UNL     1      63.079   5.576   6.247  1.00  0.00    -0.644 OA
ENDBRANCH   1  14
TORSDOF 2
ENDMDL
MODEL 9
REMARK VINA RESULT:      -4.5      5.048      5.748
REMARK  2 active torsions:
REMARK  status: ('A' for Active; 'I' for Inactive)
REMARK    1  A    between atoms: C_1  and  C_2 
REMARK    2  A    between atoms: C_4  and  C_7 
ROOT
HETATM    1  C   UNL     1      59.551   5.376   7.927  1.00  0.00     0.041 A 
HETATM    2  C   UNL     1      60.359   6.274   7.213  1.00  0.00     0.032 A 
HETATM    3  C   UNL     1      61.514   5.842   6.537  1.00  0.00    -0.009 A 
HETATM    4  C   UNL     1      59.871   4.014   7.953  1.00  0.00     0.018 A 
HETATM    5  C   UNL     1      61.825   4.471   6.608  1.00  0.00     0.014 A 
HETATM    6  C   UNL     1      61.015   3.566   7.301  1.00  0.00     0.002 A 
ENDROOT
BRANCH   3   7
HETATM    7  C   UNL     1      62.383   6.776   5.789  1.00  0.00     0.042 A 
HETATM    8  N   UNL     1      63.661   6.876   6.241  1.00  0.00    -0.365 N 
HETATM    9  C   UNL     1      64.495   7.727   5.605  1.00  0.00     0.088 A 
ATOM     10  HN  UNL     1      63.981   6.325   7.038  1.00  0.00     0.165 HD
HETATM   11  C   UNL     1      64.125   8.499   4.518  1.00  0.00     0.017 A 
HETATM   12  C   UNL     1      62.824   8.387   4.053  1.00  0.00     0.004 A 
HETATM   13  C   UNL     1      61.942   7.518   4.691  1.00  0.00     0.030 A 
ENDBRANCH   3   7
BRANCH   1  14
HETATM   14  C   UNL     1      58.348   5.913   8.607  1.00  0.00     0.209 C 
HETATM   15  O   UNL     1      57.216   5.558   8.326  1.00  0.00    -0.644 OA
HETATM   16  O   UNL     1      58.618   6.863   9.526  1.00  0.00    -0.644 OA
ENDBRANCH   1  14
TORSDOF 2
ENDMDL
