MODEL 1
REMARK VINA RESULT:      -5.4      0.000      0.000
REMARK  2 active torsions:
REMARK  status: ('A' for Active; 'I' for Inactive)
REMARK    1  A    between atoms: C_1  and  C_5 
REMARK    2  A    between atoms: C_2  and  N_6 
ROOT
HETATM    1  C   UNL     1      63.114   9.346   4.302  1.00  0.00     0.002 A 
HETATM    2  C   UNL     1      62.824  10.669   4.729  1.00  0.00     0.036 A 
HETATM    3  C   UNL     1      62.685   8.975   3.004  1.00  0.00     0.014 A 
HETATM    4  C   UNL     1      62.023  11.499   3.924  1.00  0.00     0.030 A 
HETATM    5  C   UNL     1      61.967   9.847   2.183  1.00  0.00     0.001 A 
HETATM    6  C   UNL     1      61.621  11.105   2.648  1.00  0.00     0.002 A 
ENDROOT
BRANCH   1   7
HETATM    7  C   UNL     1      63.848   8.350   5.129  1.00  0.00    -0.008 A 
HETATM    8  C   UNL     1      63.206   7.345   5.857  1.00  0.00     0.100 A 
HETATM    9  N   UNL     1      63.823   6.428   6.647  1.00  0.00    -0.374 N 
HETATM   10  C   UNL     1      65.169   6.474   6.691  1.00  0.00     0.087 A 
ATOM     11  HN  UNL     1      63.294   5.739   7.181  1.00  0.00     0.164 HD
HETATM   12  C   UNL     1      65.921   7.392   5.983  1.00  0.00     0.018 A 
HETATM   13  C   UNL     1      65.253   8.340   5.208  1.00  0.00     0.015 A 
ENDBRANCH   1   7
BRANCH   2  14
HETATM   14  N   UNL     1      63.145  11.141   6.019  1.00  0.00    -0.398 N 
HETATM   15  H   UNL     1      62.659  11.909   6.397  1.00  0.00     0.156 HD
HETATM   16  H   UNL     1      63.856  10.704   6.541  1.00  0.00     0.156 HD
ENDBRANCH   2  14
TORSDOF 2
ENDMDL
MODEL 2
REMARK VINA RESULT:      -5.3      1.514      2.080
REMARK  2 active torsions:
REMARK  status: ('A' for Active; 'I' for Inactive)
REMARK    1  A    between atoms: C_1  and  C_5 
REMARK    2  A    between atoms: C_2  and  N_6 
ROOT
HETATM    1  C   UNL     1      62.750   9.338   3.830  1.00  0.00     0.002 A 
HETATM    2  C   UNL     1      62.455   9.001   2.483  1.00  0.00     0.036 A 
HETATM    3  C   UNL     1      62.420  10.647   4.259  1.00  0.00     0.014 A 
HETATM    4  C   UNL     1      61.981   9.994   1.607  1.00  0.00     0.030 A 
HETATM    5  C   UNL     1      61.865  11.592   3.394  1.00  0.00     0.001 A 
HETATM    6  C   UNL     1      61.660  11.273   2.062  1.00  0.00     0.002 A 
ENDROOT
BRANCH   1   7
HETATM    7  C   UNL     1      63.367   8.396   4.804  1.00  0.00    -0.008 A 
HETATM    8  C   UNL     1      62.630   7.446   5.515  1.00  0.00     0.100 A 
HETATM    9  N   UNL     1      63.138   6.582   6.432  1.00  0.00    -0.374 N 
HETATM   10  C   UNL     1      64.469   6.624   6.634  1.00  0.00     0.087 A 
ATOM     11  HN  UNL     1      62.540   5.933   6.944  1.00  0.00     0.164 HD
HETATM   12  C   UNL     1      65.312   7.488   5.961  1.00  0.00     0.018 A 
HETATM   13  C   UNL     1      64.753   8.385   5.051  1.00  0.00     0.015 A 
ENDBRANCH   1   7
BRANCH   2  14
HETATM   14  N   UNL     1      62.788   7.752   1.918  1.00  0.00    -0.398 N 
HETATM   15  H   UNL     1      63.122   7.026   2.492  1.00  0.00     0.156 HD
HETATM   16  H   UNL     1      62.686   7.607   0.950  1.00  0.00     0.156 HD
ENDBRANCH   2  14
TORSDOF 2
ENDMDL
MODEL 3
REMARK VINA RESULT:      -5.1      1.441      2.019
REMARK  2 active torsions:
REMARK  status: ('A' for Active; 'I' for Inactive)
REMARK    1  A    between atoms: C_1  and  C_5 
REMARK    2  A    between atoms: C_2  and  N_6 
ROOT
HETATM    1  C   UNL     1      63.899   8.374   4.590  1.00  0.00     0.002 A 
HETATM    2  C   UNL     1      63.188   9.598   4.697  1.00  0.00     0.036 A 
HETATM    3  C   UNL     1      63.670   7.590   3.433  1.00  0.00     0.014 A 
HETATM    4  C   UNL     1      62.205   9.916   3.742  1.00  0.00     0.030 A 
HETATM    5  C   UNL     1      62.754   7.969   2.450  1.00  0.00     0.001 A 
HETATM    6  C   UNL     1      62.007   9.125   2.611  1.00  0.00     0.002 A 
ENDROOT
BRANCH   1   7
HETATM    7  C   UNL     1      64.870   7.888   5.609  1.00  0.00    -0.008 A 
HETATM    8  C   UNL     1      66.166   8.395   5.727  1.00  0.00     0.100 A 
HETATM    9  N   UNL     1      67.099   7.970   6.620  1.00  0.00    -0.374 N 
HETATM   10  C   UNL     1      66.717   7.011   7.485  1.00  0.00     0.087 A 
ATOM     11  HN  UNL     1      68.042   8.359   6.634  1.00  0.00     0.164 HD
HETATM   12  C   UNL     1      65.450   6.460   7.497  1.00  0.00     0.018 A 
HETATM   13  C   UNL     1      64.528   6.895   6.546  1.00  0.00     0.015 A 
ENDBRANCH   1   7
BRANCH   2  14
HETATM   14  N   UNL     1      63.282  10.440   5.825  1.00  0.00    -0.398 N 
HETATM   15  H   UNL     1      63.863  11.234   5.800  1.00  0.00     0.156 HD
HETATM   16  H   UNL     1      62.768  10.232   6.639  1.00  0.00     0.156 HD
ENDBRANCH   2  14
TORSDOF 2
ENDMDL
MODEL 4
REMARK VINA RESULT:      -5.0      1.049      1.252
REMARK  2 active torsions:
REMARK  status: ('A' for Active; 'I' for Inactive)
REMARK    1  A    between atoms: C_1  and  C_5 
REMARK    2  A    between atoms: C_2  and  N_6 
ROOT
HETATM    1  C   UNL     1      63.669   8.516   4.423  1.00  0.00     0.002 A 
HETATM    2  C   UNL     1      63.010   9.762   4.595  1.00  0.00     0.036 A 
HETATM    3  C   UNL     1      63.375   7.784   3.247  1.00  0.00     0.014 A 
HETATM    4  C   UNL     1      62.012  10.152   3.683  1.00  0.00     0.030 A 
HETATM    5  C   UNL     1      62.446   8.234   2.307  1.00  0.00     0.001 A 
HETATM    6  C   UNL     1      61.750   9.411   2.532  1.00  0.00     0.002 A 
ENDROOT
BRANCH   1   7
HETATM    7  C   UNL     1      64.649   7.956   5.393  1.00  0.00    -0.008 A 
HETATM    8  C   UNL     1      64.295   7.047   6.393  1.00  0.00     0.100 A 
HETATM    9  N   UNL     1      65.143   6.526   7.318  1.00  0.00    -0.374 N 
HETATM   10  C   UNL     1      66.437   6.889   7.228  1.00  0.00     0.087 A 
ATOM     11  HN  UNL     1      64.815   5.890   8.046  1.00  0.00     0.164 HD
HETATM   12  C   UNL     1      66.919   7.747   6.258  1.00  0.00     0.018 A 
HETATM   13  C   UNL     1      66.016   8.290   5.344  1.00  0.00     0.015 A 
ENDBRANCH   1   7
BRANCH   2  14
HETATM   14  N   UNL     1      63.171  10.558   5.749  1.00  0.00    -0.398 N 
HETATM   15  H   UNL     1      63.161  10.140   6.640  1.00  0.00     0.156 HD
HETATM   16  H   UNL     1      63.294  11.531   5.662  1.00  0.00     0.156 HD
ENDBRANCH   2  14
TORSDOF 2
ENDMDL
MODEL 5
REMARK VINA RESULT:      -4.9      0.837      4.941
REMARK  2 active torsions:
REMARK  status: ('A' for Active; 'I' for Inactive)
REMARK    1  A    between atoms: C_1  and  C_5 
REMARK    2  A    between atoms: C_2  and  N_6 
ROOT
HETATM    1  C   UNL     1      64.214   8.130   5.279  1.00  0.00     0.002 A 
HETATM    2  C   UNL     1      63.675   7.059   6.039  1.00  0.00     0.036 A 
HETATM    3  C   UNL     1      65.617   8.141   5.079  1.00  0.00     0.014 A 
HETATM    4  C   UNL     1      64.542   6.144   6.663  1.00  0.00     0.030 A 
HETATM    5  C   UNL     1      66.452   7.171   5.634  1.00  0.00     0.001 A 
HETATM    6  C   UNL     1      65.918   6.179   6.441  1.00  0.00     0.002 A 
ENDROOT
BRANCH   1   7
HETATM    7  C   UNL     1      63.393   9.217   4.680  1.00  0.00    -0.008 A 
HETATM    8  C   UNL     1      63.207  10.458   5.296  1.00  0.00     0.100 A 
HETATM    9  N   UNL     1      62.449  11.473   4.806  1.00  0.00    -0.374 N 
HETATM   10  C   UNL     1      61.868  11.273   3.608  1.00  0.00     0.087 A 
ATOM     11  HN  UNL     1      62.325  12.345   5.322  1.00  0.00     0.164 HD
HETATM   12  C   UNL     1      62.010  10.107   2.880  1.00  0.00     0.018 A 
HETATM   13  C   UNL     1      62.769   9.072   3.427  1.00  0.00     0.015 A 
ENDBRANCH   1   7
BRANCH   2  14
HETATM   14  N   UNL     1      62.304   6.965   6.358  1.00  0.00    -0.398 N 
HETATM   15  H   UNL     1      61.960   6.166   6.820  1.00  0.00     0.156 HD
HETATM   16  H   UNL     1      61.691   7.697   6.119  1.00  0.00     0.156 HD
ENDBRANCH   2  14
TORSDOF 2
ENDMDL
MODEL 6
REMARK VINA RESULT:      -4.8      2.008      2.808
REMARK  2 active torsions:
REMARK  status: ('A' for Active; 'I' for Inactive)
REMARK    1  A    between atoms: C_1  and  C_5 
REMARK    2  A    between atoms: C_2  and  N_6 
ROOT
HETATM    1  C   UNL     1      63.905   8.392   4.728  1.00  0.00     0.002 A 
HETATM    2  C   UNL     1      63.589   7.784   3.485  1.00  0.00     0.036 A 
HETATM    3  C   UNL     1      63.215   9.584   5.061  1.00  0.00     0.014 A 
HETATM    4  C   UNL     1      62.724   8.441   2.591  1.00  0.00     0.030 A 
HETATM    5  C   UNL     1      62.292  10.172   4.196  1.00  0.00     0.001 A 
HETATM    6  C   UNL     1      62.056   9.610   2.951  1.00  0.00     0.002 A 
ENDROOT
BRANCH   1   7
HETATM    7  C   UNL     1      64.898   7.843   5.691  1.00  0.00    -0.008 A 
HETATM    8  C   UNL     1      66.208   8.319   5.788  1.00  0.00     0.100 A 
HETATM    9  N   UNL     1      67.160   7.838   6.629  1.00  0.00    -0.374 N 
HETATM   10  C   UNL     1      66.788   6.848   7.464  1.00  0.00     0.087 A 
ATOM     11  HN  UNL     1      68.111   8.208   6.629  1.00  0.00     0.164 HD
HETATM   12  C   UNL     1      65.511   6.320   7.494  1.00  0.00     0.018 A 
HETATM   13  C   UNL     1      64.567   6.815   6.594  1.00  0.00     0.015 A 
ENDBRANCH   1   7
BRANCH   2  14
HETATM   14  N   UNL     1      64.246   6.630   3.011  1.00  0.00    -0.398 N 
HETATM   15  H   UNL     1      63.738   5.798   2.866  1.00  0.00     0.156 HD
HETATM   16  H   UNL     1      65.213   6.654   2.827  1.00  0.00     0.156 HD
ENDBRANCH   2  14
TORSDOF 2
ENDMDL
MODEL 7
REMARK VINA RESULT:      -4.6      1.966      2.767
REMARK  2 active torsions:
REMARK  status: ('A' for Active; 'I' for Inactive)
REMARK    1  A    between atoms: C_1  and  C_5 
REMARK    2  A    between atoms: C_2  and  N_6 
ROOT
HETATM    1  C   UNL     1      62.477   8.913   3.545  1.00  0.00     0.002 A 
HETATM    2  C   UNL     1      62.279   8.867   2.139  1.00  0.00     0.036 A 
HETATM    3  C   UNL     1      62.260  10.156   4.189  1.00  0.00     0.014 A 
HETATM    4  C   UNL     1      62.012  10.056   1.436  1.00  0.00     0.030 A 
HETATM    5  C   UNL     1      61.907  11.306   3.482  1.00  0.00     0.001 A 
HETATM    6  C   UNL     1      61.799  11.262   2.101  1.00  0.00     0.002 A 
ENDROOT
BRANCH   1   7
HETATM    7  C   UNL     1      62.882   7.738   4.364  1.00  0.00    -0.008 A 
HETATM    8  C   UNL     1      64.193   7.258   4.410  1.00  0.00     0.100 A 
HETATM    9  N   UNL     1      64.611   6.177   5.119  1.00  0.00    -0.374 N 
HETATM   10  C   UNL     1      63.685   5.549   5.869  1.00  0.00     0.087 A 
ATOM     11  HN  UNL     1      65.579   5.856   5.085  1.00  0.00     0.164 HD
HETATM   12  C   UNL     1      62.365   5.953   5.942  1.00  0.00     0.018 A 
HETATM   13  C   UNL     1      61.963   7.047   5.175  1.00  0.00     0.015 A 
ENDBRANCH   1   7
BRANCH   2  14
HETATM   14  N   UNL     1      62.520   7.708   1.373  1.00  0.00    -0.398 N 
HETATM   15  H   UNL     1      61.780   7.275   0.889  1.00  0.00     0.156 HD
HETATM   16  H   UNL     1      63.428   7.330   1.322  1.00  0.00     0.156 HD
ENDBRANCH   2  14
TORSDOF 2
ENDMDL
MODEL 8
REMARK VINA RESULT:      -4.5      1.950      4.894
REMARK  2 active torsions:
REMARK  status: ('A' for Active; 'I' for Inactive)
REMARK    1  A    between atoms: C_1  and  C_5 
REMARK    2  A    between atoms: C_2  and  N_6 
ROOT
HETATM    1  C   UNL     1      62.621   7.999   4.610  1.00  0.00     0.002 A 
HETATM    2  C   UNL     1      63.866   7.783   5.257  1.00  0.00     0.036 A 
HETATM    3  C   UNL     1      61.583   7.071   4.876  1.00  0.00     0.014 A 
HETATM    4  C   UNL     1      64.063   6.613   6.013  1.00  0.00     0.030 A 
HETATM    5  C   UNL     1      61.773   5.963   5.702  1.00  0.00     0.001 A 
HETATM    6  C   UNL     1      63.019   5.722   6.259  1.00  0.00     0.002 A 
ENDROOT
BRANCH   1   7
HETATM    7  C   UNL     1      62.349   9.139   3.693  1.00  0.00    -0.008 A 
HETATM    8  C   UNL     1      62.269   8.997   2.305  1.00  0.00     0.100 A 
HETATM    9  N   UNL     1      62.050  10.006   1.423  1.00  0.00    -0.374 N 
HETATM   10  C   UNL     1      61.852  11.233   1.941  1.00  0.00     0.087 A 
ATOM     11  HN  UNL     1      62.035   9.842   0.416  1.00  0.00     0.164 HD
HETATM   12  C   UNL     1      61.865  11.496   3.298  1.00  0.00     0.018 A 
HETATM   13  C   UNL     1      62.126  10.443   4.175  1.00  0.00     0.015 A 
ENDBRANCH   1   7
BRANCH   2  14
HETATM   14  N   UNL     1      64.994   8.599   5.031  1.00  0.00    -0.398 N 
HETATM   15  H   UNL     1      65.381   9.121   5.771  1.00  0.00     0.156 HD
HETATM   16  H   UNL     1      65.395   8.647   4.133  1.00  0.00     0.156 HD
ENDBRANCH   2  14
TORSDOF 2
ENDMDL
MODEL 9
REMARK VINA RESULT:      -4.4      1.781      2.520
REMARK  2 active torsions:
REMARK  status: ('A' for Active; 'I' for Inactive)
REMARK    1  A    between atoms: C_1  and  C_5 
REMARK    2  A    between atoms: C_2  and  N_6 
ROOT
HETATM    1  C   UNL     1      62.795   8.000   2.958  1.00  0.00     0.002 A 
HETATM    2  C   UNL     1      61.998   9.152   2.729  1.00  0.00     0.036 A 
HETATM    3  C   UNL     1      63.053   7.159   1.847  1.00  0.00     0.014 A 
HETATM    4  C   UNL     1      61.396   9.342   1.471  1.00  0.00     0.030 A 
HETATM    5  C   UNL     1      62.518   7.415   0.583  1.00  0.00     0.001 A 
HETATM    6  C   UNL     1      61.675   8.499   0.397  1.00  0.00     0.002 A 
ENDROOT
BRANCH   1   7
HETATM    7  C   UNL     1      63.376   7.643   4.281  1.00  0.00    -0.008 A 
HETATM    8  C   UNL     1      64.479   8.303   4.830  1.00  0.00     0.100 A 
HETATM    9  N   UNL     1      65.064   8.001   6.018  1.00  0.00    -0.374 N 
HETATM   10  C   UNL     1      64.500   7.013   6.739  1.00  0.00     0.087 A 
ATOM     11  HN  UNL     1      65.890   8.500   6.350  1.00  0.00     0.164 HD
HETATM   12  C   UNL     1      63.381   6.314   6.325  1.00  0.00     0.018 A 
HETATM   13  C   UNL     1      62.826   6.627   5.084  1.00  0.00     0.015 A 
ENDBRANCH   1   7
BRANCH   2  14
HETATM   14  N   UNL     1      61.620  10.036   3.761  1.00  0.00    -0.398 N 
HETATM   15  H   UNL     1      62.024  10.932   3.815  1.00  0.00     0.156 HD
HETATM   16  H   UNL     1      60.952   9.757   4.429  1.00  0.00     0.156 HD
ENDBRANCH   2  14
TORSDOF 2
ENDMDL
