MODEL 1
REMARK VINA RESULT:      -5.3      0.000      0.000
REMARK  3 active torsions:
REMARK  status: ('A' for Active; 'I' for Inactive)
REMARK    1  A    between atoms: C_3  and  C_4 
REMARK    2  A    between atoms: N_9  and  C_12 
REMARK    3  A    between atoms: C_10  and  C_12 
ROOT
HETATM    1  C   UNL     1      64.804   7.635   5.148  1.00  0.00    -0.009 A 
HETATM    2  C   UNL     1      64.175   8.864   5.414  1.00  0.00     0.014 A 
HETATM    3  C   UNL     1      64.444   6.978   3.957  1.00  0.00     0.014 A 
HETATM    4  C   UNL     1      63.509   7.527   3.072  1.00  0.00     0.010 A 
HETATM    5  C   UNL     1      63.229   9.412   4.537  1.00  0.00     0.010 A 
HETATM    6  C   UNL     1      62.880   8.745   3.358  1.00  0.00    -0.033 A 
ENDROOT
BRANCH   1   7
HETATM    7  C   UNL     1      65.780   7.055   6.098  1.00  0.00     0.042 A 
HETATM    8  N   UNL     1      65.420   7.077   7.406  1.00  0.00    -0.365 N 
HETATM    9  C   UNL     1      66.262   6.523   8.306  1.00  0.00     0.088 A 
ATOM     10  HN  UNL     1      64.540   7.501   7.702  1.00  0.00     0.165 HD
HETATM   11  C   UNL     1      67.472   5.942   7.974  1.00  0.00     0.017 A 
HETATM   12  C   UNL     1      67.846   5.937   6.639  1.00  0.00     0.004 A 
HETATM   13  C   UNL     1      66.996   6.501   5.690  1.00  0.00     0.030 A 
ENDBRANCH   1   7
BRANCH   6  14
HETATM   14  C   UNL     1      61.853   9.327   2.414  1.00  0.00     0.270 C 
BRANCH  14  15
HETATM   15  N   UNL     1      61.373  10.628   2.881  1.00  0.00    -0.075 N 
HETATM   16  C   UNL     1      61.767  11.693   1.973  1.00  0.00     0.267 C 
HETATM   17  H   UNL     1      61.764  10.816   3.804  1.00  0.00     0.277 HD
HETATM   18  H   UNL     1      60.354  10.600   2.922  1.00  0.00     0.277 HD
ENDBRANCH  14  15
ENDBRANCH   6  14
TORSDOF 3
ENDMDL
MODEL 2
REMARK VINA RESULT:      -5.2      1.629      6.303
REMARK  3 active torsions:
REMARK  status: ('A' for Active; 'I' for Inactive)
REMARK    1  A    between atoms: C_3  and  C_4 
REMARK    2  A    between atoms: N_9  and  C_12 
REMARK    3  A    between atoms: C_10  and  C_12 
ROOT
HETATM    1  C   UNL     1      64.209   8.060   5.403  1.00  0.00    -0.009 A 
HETATM    2  C   UNL     1      63.619   6.944   6.024  1.00  0.00     0.014 A 
HETATM    3  C   UNL     1      65.613   8.127   5.410  1.00  0.00     0.014 A 
HETATM    4  C   UNL     1      66.391   7.124   6.001  1.00  0.00     0.010 A 
HETATM    5  C   UNL     1      64.393   5.944   6.628  1.00  0.00     0.010 A 
HETATM    6  C   UNL     1      65.790   6.027   6.629  1.00  0.00    -0.033 A 
ENDROOT
BRANCH   1   7
HETATM    7  C   UNL     1      63.377   9.123   4.795  1.00  0.00     0.042 A 
HETATM    8  N   UNL     1      63.229  10.255   5.530  1.00  0.00    -0.365 N 
HETATM    9  C   UNL     1      62.512  11.269   4.997  1.00  0.00     0.088 A 
ATOM     10  HN  UNL     1      63.648  10.337   6.457  1.00  0.00     0.165 HD
HETATM   11  C   UNL     1      61.911  11.218   3.753  1.00  0.00     0.017 A 
HETATM   12  C   UNL     1      62.047  10.054   3.012  1.00  0.00     0.004 A 
HETATM   13  C   UNL     1      62.783   8.994   3.537  1.00  0.00     0.030 A 
ENDBRANCH   1   7
BRANCH   6  14
HETATM   14  C   UNL     1      66.628   4.955   7.287  1.00  0.00     0.270 C 
BRANCH  14  15
HETATM   15  N   UNL     1      66.567   5.048   8.746  1.00  0.00    -0.075 N 
HETATM   16  C   UNL     1      67.587   5.948   9.261  1.00  0.00     0.267 C 
HETATM   17  H   UNL     1      66.709   4.121   9.145  1.00  0.00     0.277 HD
HETATM   18  H   UNL     1      65.651   5.415   9.008  1.00  0.00     0.277 HD
ENDBRANCH  14  15
ENDBRANCH   6  14
TORSDOF 3
ENDMDL
MODEL 3
REMARK VINA RESULT:      -5.1      1.546      6.374
REMARK  3 active torsions:
REMARK  status: ('A' for Active; 'I' for Inactive)
REMARK    1  A    between atoms: C_3  and  C_4 
REMARK    2  A    between atoms: N_9  and  C_12 
REMARK    3  A    between atoms: C_10  and  C_12 
ROOT
HETATM    1  C   UNL     1      64.423   8.142   5.306  1.00  0.00    -0.009 A 
HETATM    2  C   UNL     1      65.819   8.220   5.155  1.00  0.00     0.014 A 
HETATM    3  C   UNL     1      63.926   7.107   6.118  1.00  0.00     0.014 A 
HETATM    4  C   UNL     1      64.782   6.200   6.754  1.00  0.00     0.010 A 
HETATM    5  C   UNL     1      66.679   7.308   5.780  1.00  0.00     0.010 A 
HETATM    6  C   UNL     1      66.169   6.282   6.582  1.00  0.00    -0.033 A 
ENDROOT
BRANCH   1   7
HETATM    7  C   UNL     1      63.525   9.095   4.616  1.00  0.00     0.042 A 
HETATM    8  N   UNL     1      63.069   8.706   3.398  1.00  0.00    -0.365 N 
HETATM    9  C   UNL     1      62.214   9.527   2.748  1.00  0.00     0.088 A 
ATOM     10  HN  UNL     1      63.363   7.821   2.985  1.00  0.00     0.165 HD
HETATM   11  C   UNL     1      61.785  10.743   3.245  1.00  0.00     0.017 A 
HETATM   12  C   UNL     1      62.267  11.148   4.481  1.00  0.00     0.004 A 
HETATM   13  C   UNL     1      63.148  10.320   5.173  1.00  0.00     0.030 A 
ENDBRANCH   1   7
BRANCH   6  14
HETATM   14  C   UNL     1      67.092   5.290   7.251  1.00  0.00     0.270 C 
BRANCH  14  15
HETATM   15  N   UNL     1      68.074   5.962   8.103  1.00  0.00    -0.075 N 
HETATM   16  C   UNL     1      67.479   6.384   9.361  1.00  0.00     0.267 C 
HETATM   17  H   UNL     1      68.435   6.780   7.614  1.00  0.00     0.277 HD
HETATM   18  H   UNL     1      68.827   5.305   8.307  1.00  0.00     0.277 HD
ENDBRANCH  14  15
ENDBRANCH   6  14
TORSDOF 3
ENDMDL
MODEL 4
REMARK VINA RESULT:      -4.8      1.132      1.442
REMARK  3 active torsions:
REMARK  status: ('A' for Active; 'I' for Inactive)
REMARK    1  A    between atoms: C_3  and  C_4 
REMARK    2  A    between atoms: N_9  and  C_12 
REMARK    3  A    between atoms: C_10  and  C_12 
ROOT
HETATM    1  C   UNL     1      64.785   7.041   5.860  1.00  0.00    -0.009 A 
HETATM    2  C   UNL     1      65.034   7.353   4.511  1.00  0.00     0.014 A 
HETATM    3  C   UNL     1      63.458   7.159   6.308  1.00  0.00     0.014 A 
HETATM    4  C   UNL     1      62.428   7.562   5.450  1.00  0.00     0.010 A 
HETATM    5  C   UNL     1      64.009   7.767   3.651  1.00  0.00     0.010 A 
HETATM    6  C   UNL     1      62.693   7.883   4.113  1.00  0.00    -0.033 A 
ENDROOT
BRANCH   1   7
HETATM    7  C   UNL     1      65.884   6.632   6.764  1.00  0.00     0.042 A 
HETATM    8  N   UNL     1      65.671   6.839   8.088  1.00  0.00    -0.365 N 
HETATM    9  C   UNL     1      66.629   6.444   8.956  1.00  0.00     0.088 A 
ATOM     10  HN  UNL     1      64.812   7.281   8.420  1.00  0.00     0.165 HD
HETATM   11  C   UNL     1      67.817   5.850   8.573  1.00  0.00     0.017 A 
HETATM   12  C   UNL     1      68.041   5.656   7.218  1.00  0.00     0.004 A 
HETATM   13  C   UNL     1      67.069   6.053   6.303  1.00  0.00     0.030 A 
ENDBRANCH   1   7
BRANCH   6  14
HETATM   14  C   UNL     1      61.586   8.340   3.192  1.00  0.00     0.270 C 
BRANCH  14  15
HETATM   15  N   UNL     1      61.174   9.712   3.489  1.00  0.00    -0.075 N 
HETATM   16  C   UNL     1      61.858  10.666   2.630  1.00  0.00     0.267 C 
HETATM   17  H   UNL     1      61.394   9.923   4.462  1.00  0.00     0.277 HD
HETATM   18  H   UNL     1      60.170   9.791   3.323  1.00  0.00     0.277 HD
ENDBRANCH  14  15
ENDBRANCH   6  14
TORSDOF 3
ENDMDL
MODEL 5
REMARK VINA RESULT:      -4.8      1.745      6.257
REMARK  3 active torsions:
REMARK  status: ('A' for Active; 'I' for Inactive)
REMARK    1  A    between atoms: C_3  and  C_4 
REMARK    2  A    between atoms: N_9  and  C_12 
REMARK    3  A    between atoms: C_10  and  C_12 
ROOT
HETATM    1  C   UNL     1      63.518   7.749   3.462  1.00  0.00    -0.009 A 
HETATM    2  C   UNL     1      63.746   8.728   4.446  1.00  0.00     0.014 A 
HETATM    3  C   UNL     1      64.501   6.756   3.310  1.00  0.00     0.014 A 
HETATM    4  C   UNL     1      65.652   6.737   4.107  1.00  0.00     0.010 A 
HETATM    5  C   UNL     1      64.901   8.720   5.238  1.00  0.00     0.010 A 
HETATM    6  C   UNL     1      65.872   7.727   5.072  1.00  0.00    -0.033 A 
ENDROOT
BRANCH   1   7
HETATM    7  C   UNL     1      62.306   7.787   2.613  1.00  0.00     0.042 A 
HETATM    8  N   UNL     1      61.284   6.983   3.002  1.00  0.00    -0.365 N 
HETATM    9  C   UNL     1      60.141   7.014   2.280  1.00  0.00     0.088 A 
ATOM     10  HN  UNL     1      61.375   6.373   3.815  1.00  0.00     0.165 HD
HETATM   11  C   UNL     1      59.956   7.809   1.164  1.00  0.00     0.017 A 
HETATM   12  C   UNL     1      61.008   8.616   0.758  1.00  0.00     0.004 A 
HETATM   13  C   UNL     1      62.196   8.604   1.485  1.00  0.00     0.030 A 
ENDBRANCH   1   7
BRANCH   6  14
HETATM   14  C   UNL     1      67.125   7.720   5.918  1.00  0.00     0.270 C 
BRANCH  14  15
HETATM   15  N   UNL     1      66.829   8.034   7.316  1.00  0.00    -0.075 N 
HETATM   16  C   UNL     1      66.559   6.827   8.081  1.00  0.00     0.267 C 
HETATM   17  H   UNL     1      66.012   8.642   7.355  1.00  0.00     0.277 HD
HETATM   18  H   UNL     1      67.642   8.497   7.722  1.00  0.00     0.277 HD
ENDBRANCH  14  15
ENDBRANCH   6  14
TORSDOF 3
ENDMDL
MODEL 6
REMARK VINA RESULT:      -4.7      1.681      2.217
REMARK  3 active torsions:
REMARK  status: ('A' for Active; 'I' for Inactive)
REMARK    1  A    between atoms: C_3  and  C_4 
REMARK    2  A    between atoms: N_9  and  C_12 
REMARK    3  A    between atoms: C_10  and  C_12 
ROOT
HETATM    1  C   UNL     1      63.852   7.869   4.170  1.00  0.00    -0.009 A 
HETATM    2  C   UNL     1      63.181   9.103   4.086  1.00  0.00     0.014 A 
HETATM    3  C   UNL     1      63.634   6.952   3.127  1.00  0.00     0.014 A 
HETATM    4  C   UNL     1      62.794   7.255   2.048  1.00  0.00     0.010 A 
HETATM    5  C   UNL     1      62.330   9.406   3.015  1.00  0.00     0.010 A 
HETATM    6  C   UNL     1      62.121   8.481   1.986  1.00  0.00    -0.033 A 
ENDROOT
BRANCH   1   7
HETATM    7  C   UNL     1      64.726   7.552   5.322  1.00  0.00     0.042 A 
HETATM    8  N   UNL     1      64.379   6.457   6.046  1.00  0.00    -0.365 N 
HETATM    9  C   UNL     1      65.171   6.105   7.083  1.00  0.00     0.088 A 
ATOM     10  HN  UNL     1      63.546   5.916   5.814  1.00  0.00     0.165 HD
HETATM   11  C   UNL     1      66.307   6.799   7.456  1.00  0.00     0.017 A 
HETATM   12  C   UNL     1      66.648   7.929   6.727  1.00  0.00     0.004 A 
HETATM   13  C   UNL     1      65.850   8.313   5.652  1.00  0.00     0.030 A 
ENDBRANCH   1   7
BRANCH   6  14
HETATM   14  C   UNL     1      61.196   8.800   0.834  1.00  0.00     0.270 C 
BRANCH  14  15
HETATM   15  N   UNL     1      59.799   8.539   1.182  1.00  0.00    -0.075 N 
HETATM   16  C   UNL     1      59.264   7.426   0.414  1.00  0.00     0.267 C 
HETATM   17  H   UNL     1      59.246   9.373   0.988  1.00  0.00     0.277 HD
HETATM   18  H   UNL     1      59.752   8.299   2.173  1.00  0.00     0.277 HD
ENDBRANCH  14  15
ENDBRANCH   6  14
TORSDOF 3
ENDMDL
MODEL 7
REMARK VINA RESULT:      -4.5      1.601      6.437
REMARK  3 active torsions:
REMARK  status: ('A' for Active; 'I' for Inactive)
REMARK    1  A    between atoms: C_3  and  C_4 
REMARK    2  A    between atoms: N_9  and  C_12 
REMARK    3  A    between atoms: C_10  and  C_12 
ROOT
HETATM    1  C   UNL     1      63.946   7.775   4.551  1.00  0.00    -0.009 A 
HETATM    2  C   UNL     1      65.182   7.253   4.129  1.00  0.00     0.014 A 
HETATM    3  C   UNL     1      63.514   7.427   5.843  1.00  0.00     0.014 A 
HETATM    4  C   UNL     1      64.282   6.605   6.676  1.00  0.00     0.010 A 
HETATM    5  C   UNL     1      65.949   6.420   4.955  1.00  0.00     0.010 A 
HETATM    6  C   UNL     1      65.503   6.081   6.236  1.00  0.00    -0.033 A 
ENDROOT
BRANCH   1   7
HETATM    7  C   UNL     1      63.134   8.631   3.657  1.00  0.00     0.042 A 
HETATM    8  N   UNL     1      62.689   9.796   4.194  1.00  0.00    -0.365 N 
HETATM    9  C   UNL     1      61.977  10.629   3.402  1.00  0.00     0.088 A 
ATOM     10  HN  UNL     1      62.887  10.036   5.165  1.00  0.00     0.165 HD
HETATM   11  C   UNL     1      61.666  10.360   2.082  1.00  0.00     0.017 A 
HETATM   12  C   UNL     1      62.105   9.160   1.542  1.00  0.00     0.004 A 
HETATM   13  C   UNL     1      62.842   8.285   2.335  1.00  0.00     0.030 A 
ENDBRANCH   1   7
BRANCH   6  14
HETATM   14  C   UNL     1      66.322   5.174   7.126  1.00  0.00     0.270 C 
BRANCH  14  15
HETATM   15  N   UNL     1      67.661   4.953   6.578  1.00  0.00    -0.075 N 
HETATM   16  C   UNL     1      67.918   3.537   6.370  1.00  0.00     0.267 C 
HETATM   17  H   UNL     1      68.353   5.324   7.229  1.00  0.00     0.277 HD
HETATM   18  H   UNL     1      67.724   5.428   5.678  1.00  0.00     0.277 HD
ENDBRANCH  14  15
ENDBRANCH   6  14
TORSDOF 3
ENDMDL
MODEL 8
REMARK VINA RESULT:      -4.3      3.163      7.023
REMARK  3 active torsions:
REMARK  status: ('A' for Active; 'I' for Inactive)
REMARK    1  A    between atoms: C_3  and  C_4 
REMARK    2  A    between atoms: N_9  and  C_12 
REMARK    3  A    between atoms: C_10  and  C_12 
ROOT
HETATM    1  C   UNL     1      60.781   7.792   3.766  1.00  0.00    -0.009 A 
HETATM    2  C   UNL     1      61.398   7.044   4.785  1.00  0.00     0.014 A 
HETATM    3  C   UNL     1      61.532   8.834   3.195  1.00  0.00     0.014 A 
HETATM    4  C   UNL     1      62.839   9.111   3.615  1.00  0.00     0.010 A 
HETATM    5  C   UNL     1      62.701   7.325   5.217  1.00  0.00     0.010 A 
HETATM    6  C   UNL     1      63.434   8.367   4.641  1.00  0.00    -0.033 A 
ENDROOT
BRANCH   1   7
HETATM    7  C   UNL     1      59.394   7.501   3.339  1.00  0.00     0.042 A 
HETATM    8  N   UNL     1      59.132   7.666   2.017  1.00  0.00    -0.365 N 
HETATM    9  C   UNL     1      57.889   7.374   1.575  1.00  0.00     0.088 A 
ATOM     10  HN  UNL     1      59.854   8.000   1.377  1.00  0.00     0.165 HD
HETATM   11  C   UNL     1      56.866   6.927   2.389  1.00  0.00     0.017 A 
HETATM   12  C   UNL     1      57.129   6.778   3.743  1.00  0.00     0.004 A 
HETATM   13  C   UNL     1      58.403   7.071   4.225  1.00  0.00     0.030 A 
ENDBRANCH   1   7
BRANCH   6  14
HETATM   14  C   UNL     1      64.836   8.681   5.111  1.00  0.00     0.270 C 
BRANCH  14  15
HETATM   15  N   UNL     1      65.185   7.910   6.306  1.00  0.00    -0.075 N 
HETATM   16  C   UNL     1      66.613   7.969   6.573  1.00  0.00     0.267 C 
HETATM   17  H   UNL     1      64.912   6.938   6.167  1.00  0.00     0.277 HD
HETATM   18  H   UNL     1      64.691   8.312   7.104  1.00  0.00     0.277 HD
ENDBRANCH  14  15
ENDBRANCH   6  14
TORSDOF 3
ENDMDL
MODEL 9
REMARK VINA RESULT:      -4.2      5.097      7.414
REMARK  3 active torsions:
REMARK  status: ('A' for Active; 'I' for Inactive)
REMARK    1  A    between atoms: C_3  and  C_4 
REMARK    2  A    between atoms: N_9  and  C_12 
REMARK    3  A    between atoms: C_10  and  C_12 
ROOT
HETATM    1  C   UNL     1      59.440   7.416   3.834  1.00  0.00    -0.009 A 
HETATM    2  C   UNL     1      59.930   6.471   4.754  1.00  0.00     0.014 A 
HETATM    3  C   UNL     1      58.073   7.733   3.912  1.00  0.00     0.014 A 
HETATM    4  C   UNL     1      57.237   7.142   4.867  1.00  0.00     0.010 A 
HETATM    5  C   UNL     1      59.095   5.868   5.704  1.00  0.00     0.010 A 
HETATM    6  C   UNL     1      57.736   6.192   5.767  1.00  0.00    -0.033 A 
ENDROOT
BRANCH   1   7
HETATM    7  C   UNL     1      60.328   8.023   2.818  1.00  0.00     0.042 A 
HETATM    8  N   UNL     1      61.012   9.128   3.211  1.00  0.00    -0.365 N 
HETATM    9  C   UNL     1      61.866   9.694   2.329  1.00  0.00     0.088 A 
ATOM     10  HN  UNL     1      60.884   9.520   4.145  1.00  0.00     0.165 HD
HETATM   11  C   UNL     1      62.077   9.220   1.048  1.00  0.00     0.017 A 
HETATM   12  C   UNL     1      61.364   8.102   0.642  1.00  0.00     0.004 A 
HETATM   13  C   UNL     1      60.478   7.498   1.532  1.00  0.00     0.030 A 
ENDBRANCH   1   7
BRANCH   6  14
HETATM   14  C   UNL     1      56.829   5.537   6.783  1.00  0.00     0.270 C 
BRANCH  14  15
HETATM   15  N   UNL     1      56.145   6.532   7.611  1.00  0.00    -0.075 N 
HETATM   16  C   UNL     1      54.719   6.259   7.692  1.00  0.00     0.267 C 
HETATM   17  H   UNL     1      56.285   7.456   7.204  1.00  0.00     0.277 HD
HETATM   18  H   UNL     1      56.535   6.490   8.553  1.00  0.00     0.277 HD
ENDBRANCH  14  15
ENDBRANCH   6  14
TORSDOF 3
ENDMDL
