MODEL 1
REMARK VINA RESULT:      -3.9      0.000      0.000
REMARK  1 active torsions:
REMARK  status: ('A' for Active; 'I' for Inactive)
REMARK    1  A    between atoms: C_1  and  C_2 
ROOT
HETATM    1  C   UNL     1      61.920   9.472   4.416  1.00  0.00     0.222 C 
HETATM    2  O   UNL     1      61.354  10.713   3.975  1.00  0.00    -0.375 OA
HETATM    3  C   UNL     1      61.900  11.209   2.745  1.00  0.00     0.168 C 
HETATM    4  C   UNL     1      61.835   8.395   3.338  1.00  0.00     0.043 C 
HETATM    5  C   UNL     1      61.844  10.189   1.614  1.00  0.00     0.026 C 
HETATM    6  C   UNL     1      62.470   8.869   2.039  1.00  0.00     0.005 C 
ENDROOT
BRANCH   1   7
HETATM    7  C   UNL     1      63.339   9.639   4.984  1.00  0.00     0.203 C 
HETATM    8  O   UNL     1      64.279   8.891   4.784  1.00  0.00    -0.646 OA
HETATM    9  O   UNL     1      63.428  10.733   5.787  1.00  0.00    -0.646 OA
ENDBRANCH   1   7
TORSDOF 1
ENDMDL
MODEL 2
REMARK VINA RESULT:      -3.9      1.610      2.112
REMARK  1 active torsions:
REMARK  status: ('A' for Active; 'I' for Inactive)
REMARK    1  A    between atoms: C_1  and  C_2 
ROOT
HETATM    1  C   UNL     1      63.273   8.440   5.437  1.00  0.00     0.222 C 
HETATM    2  O   UNL     1      62.889   9.678   6.051  1.00  0.00    -0.375 OA
HETATM    3  C   UNL     1      62.885  10.803   5.163  1.00  0.00     0.168 C 
HETATM    4  C   UNL     1      62.424   8.129   4.209  1.00  0.00     0.043 C 
HETATM    5  C   UNL     1      62.048  10.570   3.911  1.00  0.00     0.026 C 
HETATM    6  C   UNL     1      62.457   9.281   3.214  1.00  0.00     0.005 C 
ENDROOT
BRANCH   1   7
HETATM    7  C   UNL     1      64.783   8.366   5.156  1.00  0.00     0.203 C 
HETATM    8  O   UNL     1      65.315   7.678   4.303  1.00  0.00    -0.646 OA
HETATM    9  O   UNL     1      65.489   9.151   6.013  1.00  0.00    -0.646 OA
ENDBRANCH   1   7
TORSDOF 1
ENDMDL
MODEL 3
REMARK VINA RESULT:      -3.8      1.618      3.053
REMARK  1 active torsions:
REMARK  status: ('A' for Active; 'I' for Inactive)
REMARK    1  A    between atoms: C_1  and  C_2 
ROOT
HETATM    1  C   UNL     1      63.627   9.292   4.767  1.00  0.00     0.222 C 
HETATM    2  O   UNL     1      63.781   8.409   5.887  1.00  0.00    -0.375 OA
HETATM    3  C   UNL     1      62.601   7.670   6.224  1.00  0.00     0.168 C 
HETATM    4  C   UNL     1      63.102   8.560   3.536  1.00  0.00     0.043 C 
HETATM    5  C   UNL     1      62.019   6.903   5.042  1.00  0.00     0.026 C 
HETATM    6  C   UNL     1      61.808   7.821   3.848  1.00  0.00     0.005 C 
ENDROOT
BRANCH   1   7
HETATM    7  C   UNL     1      62.805  10.545   5.114  1.00  0.00     0.203 C 
HETATM    8  O   UNL     1      61.933  11.039   4.422  1.00  0.00    -0.646 OA
HETATM    9  O   UNL     1      63.192  11.081   6.303  1.00  0.00    -0.646 OA
ENDBRANCH   1   7
TORSDOF 1
ENDMDL
MODEL 4
REMARK VINA RESULT:      -3.8      1.741      2.925
REMARK  1 active torsions:
REMARK  status: ('A' for Active; 'I' for Inactive)
REMARK    1  A    between atoms: C_1  and  C_2 
ROOT
HETATM    1  C   UNL     1      62.464   9.399   2.702  1.00  0.00     0.222 C 
HETATM    2  O   UNL     1      61.984   8.420   3.635  1.00  0.00    -0.375 OA
HETATM    3  C   UNL     1      60.600   8.082   3.478  1.00  0.00     0.168 C 
HETATM    4  C   UNL     1      62.189   8.990   1.259  1.00  0.00     0.043 C 
HETATM    5  C   UNL     1      60.248   7.655   2.058  1.00  0.00     0.026 C 
HETATM    6  C   UNL     1      60.712   8.692   1.046  1.00  0.00     0.005 C 
ENDROOT
BRANCH   1   7
HETATM    7  C   UNL     1      61.966  10.817   3.029  1.00  0.00     0.203 C 
HETATM    8  O   UNL     1      61.528  11.187   4.102  1.00  0.00    -0.646 OA
HETATM    9  O   UNL     1      62.041  11.632   1.943  1.00  0.00    -0.646 OA
ENDBRANCH   1   7
TORSDOF 1
ENDMDL
MODEL 5
REMARK VINA RESULT:      -3.6      4.983      6.073
REMARK  1 active torsions:
REMARK  status: ('A' for Active; 'I' for Inactive)
REMARK    1  A    between atoms: C_1  and  C_2 
ROOT
HETATM    1  C   UNL     1      66.491   7.309   7.356  1.00  0.00     0.222 C 
HETATM    2  O   UNL     1      65.141   6.904   7.620  1.00  0.00    -0.375 OA
HETATM    3  C   UNL     1      64.624   5.930   6.705  1.00  0.00     0.168 C 
HETATM    4  C   UNL     1      67.437   6.114   7.280  1.00  0.00     0.043 C 
HETATM    5  C   UNL     1      65.514   4.699   6.579  1.00  0.00     0.026 C 
HETATM    6  C   UNL     1      66.948   5.093   6.261  1.00  0.00     0.005 C 
ENDROOT
BRANCH   1   7
HETATM    7  C   UNL     1      66.598   8.237   6.134  1.00  0.00     0.203 C 
HETATM    8  O   UNL     1      67.476   8.204   5.290  1.00  0.00    -0.646 OA
HETATM    9  O   UNL     1      65.592   9.152   6.113  1.00  0.00    -0.646 OA
ENDBRANCH   1   7
TORSDOF 1
ENDMDL
MODEL 6
REMARK VINA RESULT:      -3.6      3.623      5.103
REMARK  1 active torsions:
REMARK  status: ('A' for Active; 'I' for Inactive)
REMARK    1  A    between atoms: C_1  and  C_2 
ROOT
HETATM    1  C   UNL     1      66.539   7.972   6.528  1.00  0.00     0.222 C 
HETATM    2  O   UNL     1      65.712   9.033   6.031  1.00  0.00    -0.375 OA
HETATM    3  C   UNL     1      64.635   8.600   5.191  1.00  0.00     0.168 C 
HETATM    4  C   UNL     1      65.720   6.902   7.243  1.00  0.00     0.043 C 
HETATM    5  C   UNL     1      63.764   7.531   5.841  1.00  0.00     0.026 C 
HETATM    6  C   UNL     1      64.609   6.372   6.347  1.00  0.00     0.005 C 
ENDROOT
BRANCH   1   7
HETATM    7  C   UNL     1      67.467   7.394   5.447  1.00  0.00     0.203 C 
HETATM    8  O   UNL     1      67.677   6.211   5.248  1.00  0.00    -0.646 OA
HETATM    9  O   UNL     1      68.075   8.379   4.734  1.00  0.00    -0.646 OA
ENDBRANCH   1   7
TORSDOF 1
ENDMDL
MODEL 7
REMARK VINA RESULT:      -3.6      2.084      2.855
REMARK  1 active torsions:
REMARK  status: ('A' for Active; 'I' for Inactive)
REMARK    1  A    between atoms: C_1  and  C_2 
ROOT
HETATM    1  C   UNL     1      63.268   8.137   4.616  1.00  0.00     0.222 C 
HETATM    2  O   UNL     1      62.514   8.354   3.415  1.00  0.00    -0.375 OA
HETATM    3  C   UNL     1      61.538   9.399   3.510  1.00  0.00     0.168 C 
HETATM    4  C   UNL     1      63.927   9.421   5.111  1.00  0.00     0.043 C 
HETATM    5  C   UNL     1      62.124  10.720   3.994  1.00  0.00     0.026 C 
HETATM    6  C   UNL     1      62.900  10.531   5.288  1.00  0.00     0.005 C 
ENDROOT
BRANCH   1   7
HETATM    7  C   UNL     1      62.449   7.425   5.705  1.00  0.00     0.203 C 
HETATM    8  O   UNL     1      61.443   6.763   5.521  1.00  0.00    -0.646 OA
HETATM    9  O   UNL     1      62.967   7.648   6.943  1.00  0.00    -0.646 OA
ENDBRANCH   1   7
TORSDOF 1
ENDMDL
MODEL 8
REMARK VINA RESULT:      -3.5      5.230      7.057
REMARK  1 active torsions:
REMARK  status: ('A' for Active; 'I' for Inactive)
REMARK    1  A    between atoms: C_1  and  C_2 
ROOT
HETATM    1  C   UNL     1      66.546   7.221   6.835  1.00  0.00     0.222 C 
HETATM    2  O   UNL     1      66.665   7.669   8.193  1.00  0.00    -0.375 OA
HETATM    3  C   UNL     1      66.886   6.620   9.144  1.00  0.00     0.168 C 
HETATM    4  C   UNL     1      67.743   6.377   6.410  1.00  0.00     0.043 C 
HETATM    5  C   UNL     1      68.074   5.734   8.790  1.00  0.00     0.026 C 
HETATM    6  C   UNL     1      67.960   5.212   7.366  1.00  0.00     0.005 C 
ENDROOT
BRANCH   1   7
HETATM    7  C   UNL     1      65.198   6.533   6.558  1.00  0.00     0.203 C 
HETATM    8  O   UNL     1      65.043   5.500   5.933  1.00  0.00    -0.646 OA
HETATM    9  O   UNL     1      64.161   7.244   7.075  1.00  0.00    -0.646 OA
ENDBRANCH   1   7
TORSDOF 1
ENDMDL
MODEL 9
REMARK VINA RESULT:      -3.5      5.548      6.467
REMARK  1 active torsions:
REMARK  status: ('A' for Active; 'I' for Inactive)
REMARK    1  A    between atoms: C_1  and  C_2 
ROOT
HETATM    1  C   UNL     1      65.599   6.144   7.241  1.00  0.00     0.222 C 
HETATM    2  O   UNL     1      65.489   7.547   6.967  1.00  0.00    -0.375 OA
HETATM    3  C   UNL     1      66.719   8.172   6.578  1.00  0.00     0.168 C 
HETATM    4  C   UNL     1      66.221   5.385   6.074  1.00  0.00     0.043 C 
HETATM    5  C   UNL     1      67.399   7.472   5.408  1.00  0.00     0.026 C 
HETATM    6  C   UNL     1      67.565   5.985   5.684  1.00  0.00     0.005 C 
ENDROOT
BRANCH   1   7
HETATM    7  C   UNL     1      66.297   5.858   8.582  1.00  0.00     0.203 C 
HETATM    8  O   UNL     1      66.618   6.693   9.409  1.00  0.00    -0.646 OA
HETATM    9  O   UNL     1      66.555   4.532   8.736  1.00  0.00    -0.646 OA
ENDBRANCH   1   7
TORSDOF 1
ENDMDL
