MODEL 1
REMARK VINA RESULT:      -5.8      0.000      0.000
REMARK  4 active torsions:
REMARK  status: ('A' for Active; 'I' for Inactive)
REMARK    1  A    between atoms: C_1  and  C_7 
REMARK    2  A    between atoms: C_2  and  C_8 
REMARK    3  A    between atoms: C_7  and  O_10 
REMARK    4  A    between atoms: O_10  and  C_14 
ROOT
HETATM    1  C   UNL     1      63.855   7.680   5.353  1.00  0.00     0.109 A 
HETATM    2  C   UNL     1      62.686   7.968   4.662  1.00  0.00     0.066 A 
HETATM    3  N   UNL     1      61.641   7.070   4.893  1.00  0.00    -0.352 N 
ATOM      4  HN  UNL     1      60.725   7.118   4.448  1.00  0.00     0.166 HD
HETATM    5  S   UNL     1      63.609   6.274   6.325  1.00  0.00    -0.069 SA
HETATM    6  C   UNL     1      62.001   6.156   5.763  1.00  0.00     0.048 A 
HETATM    7  C   UNL     1      61.114   5.075   6.271  1.00  0.00     0.076 C 
ENDROOT
BRANCH   2   8
HETATM    8  C   UNL     1      62.440   9.114   3.784  1.00  0.00    -0.008 A 
HETATM    9  C   UNL     1      62.321   8.900   2.401  1.00  0.00     0.014 A 
HETATM   10  C   UNL     1      61.992   9.948   1.536  1.00  0.00     0.001 A 
HETATM   11  C   UNL     1      61.781  11.228   2.042  1.00  0.00     0.000 A 
HETATM   12  C   UNL     1      61.903  11.460   3.410  1.00  0.00     0.001 A 
HETATM   13  C   UNL     1      62.218  10.407   4.274  1.00  0.00     0.014 A 
ENDBRANCH   2   8
BRANCH   1  14
HETATM   14  C   UNL     1      65.148   8.325   5.337  1.00  0.00     0.302 C 
HETATM   15  O   UNL     1      65.456   9.343   5.941  1.00  0.00    -0.259 OA
BRANCH  14  16
HETATM   16  O   UNL     1      66.023   7.608   4.567  1.00  0.00    -0.317 OA
BRANCH  16  17
HETATM   17  C   UNL     1      67.396   7.622   4.975  1.00  0.00     0.174 C 
HETATM   18  C   UNL     1      67.666   6.503   5.962  1.00  0.00     0.034 C 
ENDBRANCH  16  17
ENDBRANCH  14  16
ENDBRANCH   1  14
TORSDOF 4
ENDMDL
MODEL 2
REMARK VINA RESULT:      -5.4      2.251      4.108
REMARK  4 active torsions:
REMARK  status: ('A' for Active; 'I' for Inactive)
REMARK    1  A    between atoms: C_1  and  C_7 
REMARK    2  A    between atoms: C_2  and  C_8 
REMARK    3  A    between atoms: C_7  and  O_10 
REMARK    4  A    between atoms: O_10  and  C_14 
ROOT
HETATM    1  C   UNL     1      63.316   6.944   5.841  1.00  0.00     0.109 A 
HETATM    2  C   UNL     1      63.874   8.147   5.429  1.00  0.00     0.066 A 
HETATM    3  N   UNL     1      65.213   8.318   5.790  1.00  0.00    -0.352 N 
ATOM      4  HN  UNL     1      65.766   9.152   5.590  1.00  0.00     0.166 HD
HETATM    5  S   UNL     1      64.516   6.016   6.667  1.00  0.00    -0.069 SA
HETATM    6  C   UNL     1      65.661   7.259   6.421  1.00  0.00     0.048 A 
HETATM    7  C   UNL     1      67.057   7.088   6.902  1.00  0.00     0.076 C 
ENDROOT
BRANCH   2   8
HETATM    8  C   UNL     1      63.226   9.194   4.635  1.00  0.00    -0.008 A 
HETATM    9  C   UNL     1      62.843   8.910   3.315  1.00  0.00     0.014 A 
HETATM   10  C   UNL     1      62.138   9.847   2.552  1.00  0.00     0.001 A 
HETATM   11  C   UNL     1      61.809  11.084   3.099  1.00  0.00     0.000 A 
HETATM   12  C   UNL     1      62.189  11.386   4.405  1.00  0.00     0.001 A 
HETATM   13  C   UNL     1      62.881  10.442   5.170  1.00  0.00     0.014 A 
ENDBRANCH   2   8
BRANCH   1  14
HETATM   14  C   UNL     1      61.972   6.431   5.713  1.00  0.00     0.302 C 
HETATM   15  O   UNL     1      61.476   5.945   4.706  1.00  0.00    -0.259 OA
BRANCH  14  16
HETATM   16  O   UNL     1      61.317   6.523   6.911  1.00  0.00    -0.317 OA
BRANCH  16  17
HETATM   17  C   UNL     1      60.246   5.596   7.128  1.00  0.00     0.174 C 
HETATM   18  C   UNL     1      59.360   6.069   8.265  1.00  0.00     0.034 C 
ENDBRANCH  16  17
ENDBRANCH  14  16
ENDBRANCH   1  14
TORSDOF 4
ENDMDL
MODEL 3
REMARK VINA RESULT:      -5.4      2.198      4.089
REMARK  4 active torsions:
REMARK  status: ('A' for Active; 'I' for Inactive)
REMARK    1  A    between atoms: C_1  and  C_7 
REMARK    2  A    between atoms: C_2  and  C_8 
REMARK    3  A    between atoms: C_7  and  O_10 
REMARK    4  A    between atoms: O_10  and  C_14 
ROOT
HETATM    1  C   UNL     1      63.419   7.106   5.758  1.00  0.00     0.109 A 
HETATM    2  C   UNL     1      63.875   8.204   5.041  1.00  0.00     0.066 A 
HETATM    3  N   UNL     1      65.255   8.411   5.113  1.00  0.00    -0.352 N 
ATOM      4  HN  UNL     1      65.751   9.184   4.668  1.00  0.00     0.166 HD
HETATM    5  S   UNL     1      64.764   6.318   6.503  1.00  0.00    -0.069 SA
HETATM    6  C   UNL     1      65.826   7.473   5.831  1.00  0.00     0.048 A 
HETATM    7  C   UNL     1      67.290   7.364   6.070  1.00  0.00     0.076 C 
ENDROOT
BRANCH   2   8
HETATM    8  C   UNL     1      63.078   9.104   4.204  1.00  0.00    -0.008 A 
HETATM    9  C   UNL     1      62.689  10.351   4.721  1.00  0.00     0.014 A 
HETATM   10  C   UNL     1      62.009  11.279   3.926  1.00  0.00     0.001 A 
HETATM   11  C   UNL     1      61.705  10.973   2.603  1.00  0.00     0.000 A 
HETATM   12  C   UNL     1      62.076   9.738   2.076  1.00  0.00     0.001 A 
HETATM   13  C   UNL     1      62.767   8.817   2.868  1.00  0.00     0.014 A 
ENDBRANCH   2   8
BRANCH   1  14
HETATM   14  C   UNL     1      62.082   6.605   5.974  1.00  0.00     0.302 C 
HETATM   15  O   UNL     1      61.406   6.756   6.982  1.00  0.00    -0.259 OA
BRANCH  14  16
HETATM   16  O   UNL     1      61.638   5.951   4.857  1.00  0.00    -0.317 OA
BRANCH  16  17
HETATM   17  C   UNL     1      60.221   5.936   4.643  1.00  0.00     0.174 C 
HETATM   18  C   UNL     1      59.779   7.207   3.944  1.00  0.00     0.034 C 
ENDBRANCH  16  17
ENDBRANCH  14  16
ENDBRANCH   1  14
TORSDOF 4
ENDMDL
MODEL 4
REMARK VINA RESULT:      -5.0      1.869      2.026
REMARK  4 active torsions:
REMARK  status: ('A' for Active; 'I' for Inactive)
REMARK    1  A    between atoms: C_1  and  C_7 
REMARK    2  A    between atoms: C_2  and  C_8 
REMARK    3  A    between atoms: C_7  and  O_10 
REMARK    4  A    between atoms: O_10  and  C_14 
ROOT
HETATM    1  C   UNL     1      64.801   6.919   4.882  1.00  0.00     0.109 A 
HETATM    2  C   UNL     1      63.733   7.194   4.039  1.00  0.00     0.066 A 
HETATM    3  N   UNL     1      63.139   6.064   3.470  1.00  0.00    -0.352 N 
ATOM      4  HN  UNL     1      62.362   6.087   2.810  1.00  0.00     0.166 HD
HETATM    5  S   UNL     1      65.029   5.210   4.971  1.00  0.00    -0.069 SA
HETATM    6  C   UNL     1      63.719   4.970   3.903  1.00  0.00     0.048 A 
HETATM    7  C   UNL     1      63.303   3.590   3.536  1.00  0.00     0.076 C 
ENDROOT
BRANCH   2   8
HETATM    8  C   UNL     1      63.159   8.508   3.742  1.00  0.00    -0.008 A 
HETATM    9  C   UNL     1      62.626   8.747   2.464  1.00  0.00     0.014 A 
HETATM   10  C   UNL     1      61.984   9.952   2.165  1.00  0.00     0.001 A 
HETATM   11  C   UNL     1      61.868  10.940   3.140  1.00  0.00     0.000 A 
HETATM   12  C   UNL     1      62.398  10.723   4.410  1.00  0.00     0.001 A 
HETATM   13  C   UNL     1      63.027   9.512   4.710  1.00  0.00     0.014 A 
ENDBRANCH   2   8
BRANCH   1  14
HETATM   14  C   UNL     1      65.692   7.801   5.600  1.00  0.00     0.302 C 
HETATM   15  O   UNL     1      66.443   8.630   5.106  1.00  0.00    -0.259 OA
BRANCH  14  16
HETATM   16  O   UNL     1      65.556   7.612   6.949  1.00  0.00    -0.317 OA
BRANCH  16  17
HETATM   17  C   UNL     1      66.726   7.182   7.656  1.00  0.00     0.174 C 
HETATM   18  C   UNL     1      66.338   6.514   8.961  1.00  0.00     0.034 C 
ENDBRANCH  16  17
ENDBRANCH  14  16
ENDBRANCH   1  14
TORSDOF 4
ENDMDL
MODEL 5
REMARK VINA RESULT:      -4.9      2.068      2.510
REMARK  4 active torsions:
REMARK  status: ('A' for Active; 'I' for Inactive)
REMARK    1  A    between atoms: C_1  and  C_7 
REMARK    2  A    between atoms: C_2  and  C_8 
REMARK    3  A    between atoms: C_7  and  O_10 
REMARK    4  A    between atoms: O_10  and  C_14 
ROOT
HETATM    1  C   UNL     1      63.969   6.962   4.549  1.00  0.00     0.109 A 
HETATM    2  C   UNL     1      63.447   7.450   3.359  1.00  0.00     0.066 A 
HETATM    3  N   UNL     1      63.522   6.558   2.286  1.00  0.00    -0.352 N 
ATOM      4  HN  UNL     1      63.210   6.763   1.337  1.00  0.00     0.166 HD
HETATM    5  S   UNL     1      64.531   5.348   4.304  1.00  0.00    -0.069 SA
HETATM    6  C   UNL     1      64.050   5.419   2.667  1.00  0.00     0.048 A 
HETATM    7  C   UNL     1      64.231   4.233   1.788  1.00  0.00     0.076 C 
ENDROOT
BRANCH   2   8
HETATM    8  C   UNL     1      62.801   8.747   3.143  1.00  0.00    -0.008 A 
HETATM    9  C   UNL     1      62.664   9.629   4.227  1.00  0.00     0.014 A 
HETATM   10  C   UNL     1      62.140  10.913   4.049  1.00  0.00     0.001 A 
HETATM   11  C   UNL     1      61.743  11.333   2.782  1.00  0.00     0.000 A 
HETATM   12  C   UNL     1      61.864  10.468   1.697  1.00  0.00     0.001 A 
HETATM   13  C   UNL     1      62.401   9.190   1.876  1.00  0.00     0.014 A 
ENDBRANCH   2   8
BRANCH   1  14
HETATM   14  C   UNL     1      64.124   7.589   5.842  1.00  0.00     0.302 C 
HETATM   15  O   UNL     1      63.415   7.410   6.822  1.00  0.00    -0.259 OA
BRANCH  14  16
HETATM   16  O   UNL     1      65.223   8.404   5.841  1.00  0.00    -0.317 OA
BRANCH  16  17
HETATM   17  C   UNL     1      66.417   7.870   6.427  1.00  0.00     0.174 C 
HETATM   18  C   UNL     1      67.505   7.737   5.379  1.00  0.00     0.034 C 
ENDBRANCH  16  17
ENDBRANCH  14  16
ENDBRANCH   1  14
TORSDOF 4
ENDMDL
MODEL 6
REMARK VINA RESULT:      -4.9      2.223      4.017
REMARK  4 active torsions:
REMARK  status: ('A' for Active; 'I' for Inactive)
REMARK    1  A    between atoms: C_1  and  C_7 
REMARK    2  A    between atoms: C_2  and  C_8 
REMARK    3  A    between atoms: C_7  and  O_10 
REMARK    4  A    between atoms: O_10  and  C_14 
ROOT
HETATM    1  C   UNL     1      63.795   6.548   5.382  1.00  0.00     0.109 A 
HETATM    2  C   UNL     1      64.078   7.089   4.135  1.00  0.00     0.066 A 
HETATM    3  N   UNL     1      65.309   6.698   3.601  1.00  0.00    -0.352 N 
ATOM      4  HN  UNL     1      65.684   7.021   2.709  1.00  0.00     0.166 HD
HETATM    5  S   UNL     1      65.092   5.513   5.860  1.00  0.00    -0.069 SA
HETATM    6  C   UNL     1      65.915   5.857   4.404  1.00  0.00     0.048 A 
HETATM    7  C   UNL     1      67.222   5.207   4.119  1.00  0.00     0.076 C 
ENDROOT
BRANCH   2   8
HETATM    8  C   UNL     1      63.215   7.960   3.334  1.00  0.00    -0.008 A 
HETATM    9  C   UNL     1      62.855   9.219   3.843  1.00  0.00     0.014 A 
HETATM   10  C   UNL     1      62.112  10.121   3.075  1.00  0.00     0.001 A 
HETATM   11  C   UNL     1      61.715   9.775   1.786  1.00  0.00     0.000 A 
HETATM   12  C   UNL     1      62.056   8.527   1.269  1.00  0.00     0.001 A 
HETATM   13  C   UNL     1      62.811   7.633   2.034  1.00  0.00     0.014 A 
ENDBRANCH   2   8
BRANCH   1  14
HETATM   14  C   UNL     1      62.673   6.751   6.269  1.00  0.00     0.302 C 
HETATM   15  O   UNL     1      62.497   7.712   7.005  1.00  0.00    -0.259 OA
BRANCH  14  16
HETATM   16  O   UNL     1      61.785   5.716   6.150  1.00  0.00    -0.317 OA
BRANCH  16  17
HETATM   17  C   UNL     1      60.405   6.071   5.999  1.00  0.00     0.174 C 
HETATM   18  C   UNL     1      60.129   6.527   4.579  1.00  0.00     0.034 C 
ENDBRANCH  16  17
ENDBRANCH  14  16
ENDBRANCH   1  14
TORSDOF 4
ENDMDL
MODEL 7
REMARK VINA RESULT:      -4.9      1.864      2.149
REMARK  4 active torsions:
REMARK  status: ('A' for Active; 'I' for Inactive)
REMARK    1  A    between atoms: C_1  and  C_7 
REMARK    2  A    between atoms: C_2  and  C_8 
REMARK    3  A    between atoms: C_7  and  O_10 
REMARK    4  A    between atoms: O_10  and  C_14 
ROOT
HETATM    1  C   UNL     1      62.046   6.956   5.390  1.00  0.00     0.109 A 
HETATM    2  C   UNL     1      61.270   7.488   4.369  1.00  0.00     0.066 A 
HETATM    3  N   UNL     1      60.017   6.887   4.222  1.00  0.00    -0.352 N 
ATOM      4  HN  UNL     1      59.333   7.136   3.507  1.00  0.00     0.166 HD
HETATM    5  S   UNL     1      61.161   5.703   6.182  1.00  0.00    -0.069 SA
HETATM    6  C   UNL     1      59.841   5.956   5.130  1.00  0.00     0.048 A 
HETATM    7  C   UNL     1      58.600   5.153   5.289  1.00  0.00     0.076 C 
ENDROOT
BRANCH   2   8
HETATM    8  C   UNL     1      61.609   8.615   3.497  1.00  0.00    -0.008 A 
HETATM    9  C   UNL     1      61.763   8.389   2.120  1.00  0.00     0.014 A 
HETATM   10  C   UNL     1      61.994   9.449   1.237  1.00  0.00     0.001 A 
HETATM   11  C   UNL     1      62.077  10.752   1.722  1.00  0.00     0.000 A 
HETATM   12  C   UNL     1      61.934  10.993   3.086  1.00  0.00     0.001 A 
HETATM   13  C   UNL     1      61.690   9.933   3.964  1.00  0.00     0.014 A 
ENDBRANCH   2   8
BRANCH   1  14
HETATM   14  C   UNL     1      63.393   7.262   5.812  1.00  0.00     0.302 C 
HETATM   15  O   UNL     1      63.757   7.502   6.954  1.00  0.00    -0.259 OA
BRANCH  14  16
HETATM   16  O   UNL     1      64.246   7.210   4.742  1.00  0.00    -0.317 OA
BRANCH  16  17
HETATM   17  C   UNL     1      64.586   5.905   4.257  1.00  0.00     0.174 C 
HETATM   18  C   UNL     1      64.505   5.866   2.743  1.00  0.00     0.034 C 
ENDBRANCH  16  17
ENDBRANCH  14  16
ENDBRANCH   1  14
TORSDOF 4
ENDMDL
MODEL 8
REMARK VINA RESULT:      -4.8      2.214      3.618
REMARK  4 active torsions:
REMARK  status: ('A' for Active; 'I' for Inactive)
REMARK    1  A    between atoms: C_1  and  C_7 
REMARK    2  A    between atoms: C_2  and  C_8 
REMARK    3  A    between atoms: C_7  and  O_10 
REMARK    4  A    between atoms: O_10  and  C_14 
ROOT
HETATM    1  C   UNL     1      63.472   6.893   5.936  1.00  0.00     0.109 A 
HETATM    2  C   UNL     1      64.037   8.002   5.321  1.00  0.00     0.066 A 
HETATM    3  N   UNL     1      65.430   8.070   5.416  1.00  0.00    -0.352 N 
ATOM      4  HN  UNL     1      66.001   8.829   5.043  1.00  0.00     0.166 HD
HETATM    5  S   UNL     1      64.728   5.920   6.614  1.00  0.00    -0.069 SA
HETATM    6  C   UNL     1      65.902   7.024   6.051  1.00  0.00     0.048 A 
HETATM    7  C   UNL     1      67.346   6.756   6.285  1.00  0.00     0.076 C 
ENDROOT
BRANCH   2   8
HETATM    8  C   UNL     1      63.338   9.043   4.564  1.00  0.00    -0.008 A 
HETATM    9  C   UNL     1      62.914   8.766   3.254  1.00  0.00     0.014 A 
HETATM   10  C   UNL     1      62.161   9.695   2.529  1.00  0.00     0.001 A 
HETATM   11  C   UNL     1      61.825  10.918   3.103  1.00  0.00     0.000 A 
HETATM   12  C   UNL     1      62.244  11.213   4.398  1.00  0.00     0.001 A 
HETATM   13  C   UNL     1      62.985  10.277   5.126  1.00  0.00     0.014 A 
ENDBRANCH   2   8
BRANCH   1  14
HETATM   14  C   UNL     1      62.091   6.503   6.102  1.00  0.00     0.302 C 
HETATM   15  O   UNL     1      61.418   6.637   7.114  1.00  0.00    -0.259 OA
BRANCH  14  16
HETATM   16  O   UNL     1      61.605   5.983   4.933  1.00  0.00    -0.317 OA
BRANCH  16  17
HETATM   17  C   UNL     1      62.409   4.984   4.293  1.00  0.00     0.174 C 
HETATM   18  C   UNL     1      61.846   3.602   4.563  1.00  0.00     0.034 C 
ENDBRANCH  16  17
ENDBRANCH  14  16
ENDBRANCH   1  14
TORSDOF 4
ENDMDL
MODEL 9
REMARK VINA RESULT:      -4.7      2.405      5.200
REMARK  4 active torsions:
REMARK  status: ('A' for Active; 'I' for Inactive)
REMARK    1  A    between atoms: C_1  and  C_7 
REMARK    2  A    between atoms: C_2  and  C_8 
REMARK    3  A    between atoms: C_7  and  O_10 
REMARK    4  A    between atoms: O_10  and  C_14 
ROOT
HETATM    1  C   UNL     1      62.275   7.479   4.634  1.00  0.00     0.109 A 
HETATM    2  C   UNL     1      63.400   7.532   3.823  1.00  0.00     0.066 A 
HETATM    3  N   UNL     1      63.146   7.923   2.505  1.00  0.00    -0.352 N 
ATOM      4  HN  UNL     1      63.853   7.989   1.773  1.00  0.00     0.166 HD
HETATM    5  S   UNL     1      60.891   7.957   3.716  1.00  0.00    -0.069 SA
HETATM    6  C   UNL     1      61.873   8.192   2.340  1.00  0.00     0.048 A 
HETATM    7  C   UNL     1      61.269   8.682   1.072  1.00  0.00     0.076 C 
ENDROOT
BRANCH   2   8
HETATM    8  C   UNL     1      64.787   7.277   4.219  1.00  0.00    -0.008 A 
HETATM    9  C   UNL     1      65.477   6.204   3.633  1.00  0.00     0.014 A 
HETATM   10  C   UNL     1      66.830   5.980   3.910  1.00  0.00     0.001 A 
HETATM   11  C   UNL     1      67.510   6.825   4.783  1.00  0.00     0.000 A 
HETATM   12  C   UNL     1      66.839   7.889   5.380  1.00  0.00     0.001 A 
HETATM   13  C   UNL     1      65.491   8.119   5.090  1.00  0.00     0.014 A 
ENDBRANCH   2   8
BRANCH   1  14
HETATM   14  C   UNL     1      62.119   7.074   6.011  1.00  0.00     0.302 C 
HETATM   15  O   UNL     1      62.558   7.660   6.992  1.00  0.00    -0.259 OA
BRANCH  14  16
HETATM   16  O   UNL     1      61.361   5.937   6.086  1.00  0.00    -0.317 OA
BRANCH  16  17
HETATM   17  C   UNL     1      60.369   5.895   7.120  1.00  0.00     0.174 C 
HETATM   18  C   UNL     1      58.979   5.851   6.518  1.00  0.00     0.034 C 
ENDBRANCH  16  17
ENDBRANCH  14  16
ENDBRANCH   1  14
TORSDOF 4
ENDMDL
