MODEL 1
REMARK VINA RESULT:      -5.6      0.000      0.000
REMARK  4 active torsions:
REMARK  status: ('A' for Active; 'I' for Inactive)
REMARK    1  A    between atoms: C_1  and  O_6 
REMARK    2  A    between atoms: C_4  and  C_8 
REMARK    3  A    between atoms: O_6  and  C_7 
REMARK    4  A    between atoms: C_8  and  O_9 
ROOT
HETATM    1  C   UNL     1      65.459   8.242   5.199  1.00  0.00     0.190 A 
HETATM    2  O   UNL     1      65.096   9.443   5.733  1.00  0.00    -0.290 OA
HETATM    3  C   UNL     1      64.397   7.697   4.502  1.00  0.00     0.067 A 
HETATM    4  C   UNL     1      63.818   9.695   5.318  1.00  0.00     0.079 A 
HETATM    5  C   UNL     1      63.355   8.650   4.548  1.00  0.00     0.040 A 
ENDROOT
BRANCH   1   6
HETATM    6  O   UNL     1      66.718   7.889   5.450  1.00  0.00    -0.288 OA
BRANCH   6   7
HETATM    7  C   UNL     1      66.991   6.942   6.411  1.00  0.00     0.078 A 
HETATM    8  C   UNL     1      66.565   7.076   7.739  1.00  0.00     0.037 A 
HETATM    9  C   UNL     1      66.876   6.094   8.676  1.00  0.00     0.003 A 
HETATM   10  C   UNL     1      67.579   4.957   8.283  1.00  0.00     0.000 A 
HETATM   11  C   UNL     1      67.961   4.797   6.950  1.00  0.00     0.003 A 
HETATM   12  C   UNL     1      67.665   5.789   6.012  1.00  0.00     0.037 A 
ENDBRANCH   6   7
ENDBRANCH   1   6
BRANCH   4  13
HETATM   13  C   UNL     1      63.224  10.981   5.744  1.00  0.00     0.229 C 
BRANCH  13  14
HETATM   14  O   UNL     1      64.209  11.695   6.479  1.00  0.00    -0.394 OA
HETATM   15  H   UNL     1      63.801  12.466   6.903  1.00  0.00     0.209 HD
ENDBRANCH  13  14
ENDBRANCH   4  13
TORSDOF 4
ENDMDL
MODEL 2
REMARK VINA RESULT:      -5.3      2.180      5.925
REMARK  4 active torsions:
REMARK  status: ('A' for Active; 'I' for Inactive)
REMARK    1  A    between atoms: C_1  and  O_6 
REMARK    2  A    between atoms: C_4  and  C_8 
REMARK    3  A    between atoms: O_6  and  C_7 
REMARK    4  A    between atoms: C_8  and  O_9 
ROOT
HETATM    1  C   UNL     1      64.185   7.959   5.508  1.00  0.00     0.190 A 
HETATM    2  O   UNL     1      64.368   7.323   6.699  1.00  0.00    -0.290 OA
HETATM    3  C   UNL     1      65.406   8.343   4.987  1.00  0.00     0.067 A 
HETATM    4  C   UNL     1      65.717   7.243   6.906  1.00  0.00     0.079 A 
HETATM    5  C   UNL     1      66.392   7.849   5.869  1.00  0.00     0.040 A 
ENDROOT
BRANCH   1   6
HETATM    6  O   UNL     1      62.913   8.046   5.123  1.00  0.00    -0.288 OA
BRANCH   6   7
HETATM    7  C   UNL     1      62.555   8.908   4.111  1.00  0.00     0.078 A 
HETATM    8  C   UNL     1      62.277  10.262   4.342  1.00  0.00     0.037 A 
HETATM    9  C   UNL     1      61.910  11.091   3.286  1.00  0.00     0.003 A 
HETATM   10  C   UNL     1      61.855  10.582   1.990  1.00  0.00     0.000 A 
HETATM   11  C   UNL     1      62.181   9.246   1.749  1.00  0.00     0.003 A 
HETATM   12  C   UNL     1      62.534   8.408   2.811  1.00  0.00     0.037 A 
ENDBRANCH   6   7
ENDBRANCH   1   6
BRANCH   4  13
HETATM   13  C   UNL     1      66.159   6.543   8.133  1.00  0.00     0.229 C 
BRANCH  13  14
HETATM   14  O   UNL     1      67.321   7.203   8.617  1.00  0.00    -0.394 OA
HETATM   15  H   UNL     1      67.939   7.348   7.884  1.00  0.00     0.209 HD
ENDBRANCH  13  14
ENDBRANCH   4  13
TORSDOF 4
ENDMDL
MODEL 3
REMARK VINA RESULT:      -5.3      1.372      1.830
REMARK  4 active torsions:
REMARK  status: ('A' for Active; 'I' for Inactive)
REMARK    1  A    between atoms: C_1  and  O_6 
REMARK    2  A    between atoms: C_4  and  C_8 
REMARK    3  A    between atoms: O_6  and  C_7 
REMARK    4  A    between atoms: C_8  and  O_9 
ROOT
HETATM    1  C   UNL     1      64.928   8.658   5.442  1.00  0.00     0.190 A 
HETATM    2  O   UNL     1      64.242   9.823   5.610  1.00  0.00    -0.290 OA
HETATM    3  C   UNL     1      64.309   7.883   4.480  1.00  0.00     0.067 A 
HETATM    4  C   UNL     1      63.219   9.820   4.703  1.00  0.00     0.079 A 
HETATM    5  C   UNL     1      63.232   8.648   3.979  1.00  0.00     0.040 A 
ENDROOT
BRANCH   1   6
HETATM    6  O   UNL     1      66.011   8.544   6.207  1.00  0.00    -0.288 OA
BRANCH   6   7
HETATM    7  C   UNL     1      66.435   7.303   6.626  1.00  0.00     0.078 A 
HETATM    8  C   UNL     1      67.473   6.610   5.988  1.00  0.00     0.037 A 
HETATM    9  C   UNL     1      67.858   5.352   6.443  1.00  0.00     0.003 A 
HETATM   10  C   UNL     1      67.237   4.798   7.561  1.00  0.00     0.000 A 
HETATM   11  C   UNL     1      66.237   5.508   8.229  1.00  0.00     0.003 A 
HETATM   12  C   UNL     1      65.838   6.763   7.763  1.00  0.00     0.037 A 
ENDBRANCH   6   7
ENDBRANCH   1   6
BRANCH   4  13
HETATM   13  C   UNL     1      62.357  11.022   4.672  1.00  0.00     0.229 C 
BRANCH  13  14
HETATM   14  O   UNL     1      61.330  10.798   3.715  1.00  0.00    -0.394 OA
HETATM   15  H   UNL     1      61.722  10.459   2.894  1.00  0.00     0.209 HD
ENDBRANCH  13  14
ENDBRANCH   4  13
TORSDOF 4
ENDMDL
MODEL 4
REMARK VINA RESULT:      -5.2      2.135      6.014
REMARK  4 active torsions:
REMARK  status: ('A' for Active; 'I' for Inactive)
REMARK    1  A    between atoms: C_1  and  O_6 
REMARK    2  A    between atoms: C_4  and  C_8 
REMARK    3  A    between atoms: O_6  and  C_7 
REMARK    4  A    between atoms: C_8  and  O_9 
ROOT
HETATM    1  C   UNL     1      63.707   8.230   5.845  1.00  0.00     0.190 A 
HETATM    2  O   UNL     1      64.998   8.646   5.717  1.00  0.00    -0.290 OA
HETATM    3  C   UNL     1      63.676   6.892   6.188  1.00  0.00     0.067 A 
HETATM    4  C   UNL     1      65.795   7.586   6.047  1.00  0.00     0.079 A 
HETATM    5  C   UNL     1      65.019   6.489   6.354  1.00  0.00     0.040 A 
ENDROOT
BRANCH   1   6
HETATM    6  O   UNL     1      62.801   9.182   5.632  1.00  0.00    -0.288 OA
BRANCH   6   7
HETATM    7  C   UNL     1      62.509   9.584   4.348  1.00  0.00     0.078 A 
HETATM    8  C   UNL     1      62.515   8.695   3.264  1.00  0.00     0.037 A 
HETATM    9  C   UNL     1      62.223   9.152   1.982  1.00  0.00     0.003 A 
HETATM   10  C   UNL     1      61.884  10.489   1.782  1.00  0.00     0.000 A 
HETATM   11  C   UNL     1      61.828  11.366   2.867  1.00  0.00     0.003 A 
HETATM   12  C   UNL     1      62.138  10.912   4.152  1.00  0.00     0.037 A 
ENDBRANCH   6   7
ENDBRANCH   1   6
BRANCH   4  13
HETATM   13  C   UNL     1      67.256   7.820   6.023  1.00  0.00     0.229 C 
BRANCH  13  14
HETATM   14  O   UNL     1      67.599   8.305   4.731  1.00  0.00    -0.394 OA
HETATM   15  H   UNL     1      68.245   7.708   4.323  1.00  0.00     0.209 HD
ENDBRANCH  13  14
ENDBRANCH   4  13
TORSDOF 4
ENDMDL
MODEL 5
REMARK VINA RESULT:      -5.1      1.672      5.498
REMARK  4 active torsions:
REMARK  status: ('A' for Active; 'I' for Inactive)
REMARK    1  A    between atoms: C_1  and  O_6 
REMARK    2  A    between atoms: C_4  and  C_8 
REMARK    3  A    between atoms: O_6  and  C_7 
REMARK    4  A    between atoms: C_8  and  O_9 
ROOT
HETATM    1  C   UNL     1      66.260   8.096   6.197  1.00  0.00     0.190 A 
HETATM    2  O   UNL     1      65.898   7.426   7.327  1.00  0.00    -0.290 OA
HETATM    3  C   UNL     1      67.410   7.542   5.669  1.00  0.00     0.067 A 
HETATM    4  C   UNL     1      66.785   6.397   7.483  1.00  0.00     0.079 A 
HETATM    5  C   UNL     1      67.725   6.426   6.476  1.00  0.00     0.040 A 
ENDROOT
BRANCH   1   6
HETATM    6  O   UNL     1      65.439   9.090   5.864  1.00  0.00    -0.288 OA
BRANCH   6   7
HETATM    7  C   UNL     1      64.396   8.862   4.994  1.00  0.00     0.078 A 
HETATM    8  C   UNL     1      64.350   7.741   4.155  1.00  0.00     0.037 A 
HETATM    9  C   UNL     1      63.278   7.560   3.285  1.00  0.00     0.003 A 
HETATM   10  C   UNL     1      62.228   8.477   3.278  1.00  0.00     0.000 A 
HETATM   11  C   UNL     1      62.247   9.568   4.149  1.00  0.00     0.003 A 
HETATM   12  C   UNL     1      63.330   9.760   5.010  1.00  0.00     0.037 A 
ENDBRANCH   6   7
ENDBRANCH   1   6
BRANCH   4  13
HETATM   13  C   UNL     1      66.559   5.495   8.634  1.00  0.00     0.229 C 
BRANCH  13  14
HETATM   14  O   UNL     1      65.835   4.365   8.168  1.00  0.00    -0.394 OA
HETATM   15  H   UNL     1      64.921   4.411   8.490  1.00  0.00     0.209 HD
ENDBRANCH  13  14
ENDBRANCH   4  13
TORSDOF 4
ENDMDL
MODEL 6
REMARK VINA RESULT:      -4.9      2.315      3.112
REMARK  4 active torsions:
REMARK  status: ('A' for Active; 'I' for Inactive)
REMARK    1  A    between atoms: C_1  and  O_6 
REMARK    2  A    between atoms: C_4  and  C_8 
REMARK    3  A    between atoms: O_6  and  C_7 
REMARK    4  A    between atoms: C_8  and  O_9 
ROOT
HETATM    1  C   UNL     1      63.030   8.926   4.771  1.00  0.00     0.190 A 
HETATM    2  O   UNL     1      62.667   9.087   3.467  1.00  0.00    -0.290 OA
HETATM    3  C   UNL     1      62.906  10.126   5.445  1.00  0.00     0.067 A 
HETATM    4  C   UNL     1      62.246  10.379   3.326  1.00  0.00     0.079 A 
HETATM    5  C   UNL     1      62.365  11.050   4.524  1.00  0.00     0.040 A 
ENDROOT
BRANCH   1   6
HETATM    6  O   UNL     1      63.395   7.685   5.089  1.00  0.00    -0.288 OA
BRANCH   6   7
HETATM    7  C   UNL     1      64.651   7.443   5.597  1.00  0.00     0.078 A 
HETATM    8  C   UNL     1      64.853   6.765   6.806  1.00  0.00     0.037 A 
HETATM    9  C   UNL     1      66.144   6.553   7.283  1.00  0.00     0.003 A 
HETATM   10  C   UNL     1      67.239   6.981   6.535  1.00  0.00     0.000 A 
HETATM   11  C   UNL     1      67.042   7.612   5.305  1.00  0.00     0.003 A 
HETATM   12  C   UNL     1      65.747   7.841   4.834  1.00  0.00     0.037 A 
ENDBRANCH   6   7
ENDBRANCH   1   6
BRANCH   4  13
HETATM   13  C   UNL     1      61.756  10.774   1.987  1.00  0.00     0.229 C 
BRANCH  13  14
HETATM   14  O   UNL     1      62.048  12.153   1.805  1.00  0.00    -0.394 OA
HETATM   15  H   UNL     1      62.029  12.366   0.858  1.00  0.00     0.209 HD
ENDBRANCH  13  14
ENDBRANCH   4  13
TORSDOF 4
ENDMDL
MODEL 7
REMARK VINA RESULT:      -4.4      9.938     10.515
REMARK  4 active torsions:
REMARK  status: ('A' for Active; 'I' for Inactive)
REMARK    1  A    between atoms: C_1  and  O_6 
REMARK    2  A    between atoms: C_4  and  C_8 
REMARK    3  A    between atoms: O_6  and  C_7 
REMARK    4  A    between atoms: C_8  and  O_9 
ROOT
HETATM    1  C   UNL     1      57.857   2.800   9.919  1.00  0.00     0.190 A 
HETATM    2  O   UNL     1      57.835   4.155   9.774  1.00  0.00    -0.290 OA
HETATM    3  C   UNL     1      58.805   2.252   9.077  1.00  0.00     0.067 A 
HETATM    4  C   UNL     1      58.821   4.478   8.884  1.00  0.00     0.079 A 
HETATM    5  C   UNL     1      59.451   3.335   8.440  1.00  0.00     0.040 A 
ENDROOT
BRANCH   1   6
HETATM    6  O   UNL     1      56.997   2.332  10.821  1.00  0.00    -0.288 OA
BRANCH   6   7
HETATM    7  C   UNL     1      57.455   1.843  12.024  1.00  0.00     0.078 A 
HETATM    8  C   UNL     1      56.690   0.987  12.826  1.00  0.00     0.037 A 
HETATM    9  C   UNL     1      57.194   0.527  14.040  1.00  0.00     0.003 A 
HETATM   10  C   UNL     1      58.480   0.888  14.438  1.00  0.00     0.000 A 
HETATM   11  C   UNL     1      59.265   1.699  13.617  1.00  0.00     0.003 A 
HETATM   12  C   UNL     1      58.753   2.175  12.407  1.00  0.00     0.037 A 
ENDBRANCH   6   7
ENDBRANCH   1   6
BRANCH   4  13
HETATM   13  C   UNL     1      59.016   5.917   8.602  1.00  0.00     0.229 C 
BRANCH  13  14
HETATM   14  O   UNL     1      58.629   6.645   9.761  1.00  0.00    -0.394 OA
HETATM   15  H   UNL     1      59.418   6.875  10.276  1.00  0.00     0.209 HD
ENDBRANCH  13  14
ENDBRANCH   4  13
TORSDOF 4
ENDMDL
MODEL 8
REMARK VINA RESULT:      -4.4      4.607      6.697
REMARK  4 active torsions:
REMARK  status: ('A' for Active; 'I' for Inactive)
REMARK    1  A    between atoms: C_1  and  O_6 
REMARK    2  A    between atoms: C_4  and  C_8 
REMARK    3  A    between atoms: O_6  and  C_7 
REMARK    4  A    between atoms: C_8  and  O_9 
ROOT
HETATM    1  C   UNL     1      60.801   8.240   1.598  1.00  0.00     0.190 A 
HETATM    2  O   UNL     1      60.195   7.797   2.735  1.00  0.00    -0.290 OA
HETATM    3  C   UNL     1      59.937   8.119   0.527  1.00  0.00     0.067 A 
HETATM    4  C   UNL     1      58.916   7.453   2.399  1.00  0.00     0.079 A 
HETATM    5  C   UNL     1      58.713   7.647   1.050  1.00  0.00     0.040 A 
ENDROOT
BRANCH   1   6
HETATM    6  O   UNL     1      62.042   8.690   1.778  1.00  0.00    -0.288 OA
BRANCH   6   7
HETATM    7  C   UNL     1      62.397   9.280   2.970  1.00  0.00     0.078 A 
HETATM    8  C   UNL     1      63.276   8.671   3.875  1.00  0.00     0.037 A 
HETATM    9  C   UNL     1      63.597   9.304   5.073  1.00  0.00     0.003 A 
HETATM   10  C   UNL     1      63.073  10.565   5.354  1.00  0.00     0.000 A 
HETATM   11  C   UNL     1      62.238  11.196   4.431  1.00  0.00     0.003 A 
HETATM   12  C   UNL     1      61.901  10.555   3.236  1.00  0.00     0.037 A 
ENDBRANCH   6   7
ENDBRANCH   1   6
BRANCH   4  13
HETATM   13  C   UNL     1      58.045   6.979   3.498  1.00  0.00     0.229 C 
BRANCH  13  14
HETATM   14  O   UNL     1      57.660   8.110   4.267  1.00  0.00    -0.394 OA
HETATM   15  H   UNL     1      58.295   8.243   4.988  1.00  0.00     0.209 HD
ENDBRANCH  13  14
ENDBRANCH   4  13
TORSDOF 4
ENDMDL
MODEL 9
REMARK VINA RESULT:      -4.3      3.659      4.932
REMARK  4 active torsions:
REMARK  status: ('A' for Active; 'I' for Inactive)
REMARK    1  A    between atoms: C_1  and  O_6 
REMARK    2  A    between atoms: C_4  and  C_8 
REMARK    3  A    between atoms: O_6  and  C_7 
REMARK    4  A    between atoms: C_8  and  O_9 
ROOT
HETATM    1  C   UNL     1      61.932   8.929   3.332  1.00  0.00     0.190 A 
HETATM    2  O   UNL     1      60.795   8.186   3.218  1.00  0.00    -0.290 OA
HETATM    3  C   UNL     1      62.399   9.270   2.077  1.00  0.00     0.067 A 
HETATM    4  C   UNL     1      60.499   8.110   1.886  1.00  0.00     0.079 A 
HETATM    5  C   UNL     1      61.455   8.775   1.150  1.00  0.00     0.040 A 
ENDROOT
BRANCH   1   6
HETATM    6  O   UNL     1      62.311   9.161   4.587  1.00  0.00    -0.288 OA
BRANCH   6   7
HETATM    7  C   UNL     1      63.323   8.419   5.153  1.00  0.00     0.078 A 
HETATM    8  C   UNL     1      64.673   8.773   5.029  1.00  0.00     0.037 A 
HETATM    9  C   UNL     1      65.660   7.983   5.611  1.00  0.00     0.003 A 
HETATM   10  C   UNL     1      65.303   6.859   6.353  1.00  0.00     0.000 A 
HETATM   11  C   UNL     1      63.956   6.532   6.521  1.00  0.00     0.003 A 
HETATM   12  C   UNL     1      62.964   7.314   5.923  1.00  0.00     0.037 A 
ENDBRANCH   6   7
ENDBRANCH   1   6
BRANCH   4  13
HETATM   13  C   UNL     1      59.265   7.379   1.522  1.00  0.00     0.229 C 
BRANCH  13  14
HETATM   14  O   UNL     1      58.293   8.336   1.121  1.00  0.00    -0.394 OA
HETATM   15  H   UNL     1      58.438   9.165   1.603  1.00  0.00     0.209 HD
ENDBRANCH  13  14
ENDBRANCH   4  13
TORSDOF 4
ENDMDL
