MODEL 1
REMARK VINA RESULT:      -5.5      0.000      0.000
REMARK  3 active torsions:
REMARK  status: ('A' for Active; 'I' for Inactive)
REMARK    1  A    between atoms: C_1  and  C_7 
REMARK    2  A    between atoms: C_2  and  C_8 
REMARK    3  A    between atoms: C_8  and  O_10 
ROOT
HETATM    1  C   UNL     1      62.707   8.028   4.708  1.00  0.00     0.058 A 
HETATM    2  C   UNL     1      63.951   7.708   5.243  1.00  0.00     0.035 A 
HETATM    3  N   UNL     1      61.670   7.189   5.103  1.00  0.00    -0.353 N 
ATOM      4  HN  UNL     1      60.708   7.257   4.769  1.00  0.00     0.166 HD
HETATM    5  S   UNL     1      63.765   6.394   6.347  1.00  0.00    -0.077 SA
HETATM    6  C   UNL     1      62.101   6.297   5.963  1.00  0.00     0.047 A 
HETATM    7  C   UNL     1      61.246   5.263   6.606  1.00  0.00     0.076 C 
ENDROOT
BRANCH   1   8
HETATM    8  C   UNL     1      62.423   9.129   3.786  1.00  0.00    -0.008 A 
HETATM    9  C   UNL     1      62.316   8.862   2.412  1.00  0.00     0.014 A 
HETATM   10  C   UNL     1      62.016   9.882   1.504  1.00  0.00     0.001 A 
HETATM   11  C   UNL     1      61.819  11.184   1.959  1.00  0.00     0.000 A 
HETATM   12  C   UNL     1      61.909  11.463   3.320  1.00  0.00     0.001 A 
HETATM   13  C   UNL     1      62.194  10.439   4.228  1.00  0.00     0.014 A 
ENDBRANCH   1   8
BRANCH   2  14
HETATM   14  C   UNL     1      65.288   8.343   5.029  1.00  0.00     0.212 C 
BRANCH  14  15
HETATM   15  O   UNL     1      65.644   9.138   6.155  1.00  0.00    -0.396 OA
HETATM   16  H   UNL     1      64.944   9.789   6.324  1.00  0.00     0.209 HD
ENDBRANCH  14  15
ENDBRANCH   2  14
TORSDOF 3
ENDMDL
MODEL 2
REMARK VINA RESULT:      -5.4      2.292      4.870
REMARK  3 active torsions:
REMARK  status: ('A' for Active; 'I' for Inactive)
REMARK    1  A    between atoms: C_1  and  C_7 
REMARK    2  A    between atoms: C_2  and  C_8 
REMARK    3  A    between atoms: C_8  and  O_10 
ROOT
HETATM    1  C   UNL     1      63.426   8.983   4.440  1.00  0.00     0.058 A 
HETATM    2  C   UNL     1      62.863  10.212   4.771  1.00  0.00     0.035 A 
HETATM    3  N   UNL     1      63.061   8.492   3.192  1.00  0.00    -0.353 N 
ATOM      4  HN  UNL     1      63.348   7.588   2.816  1.00  0.00     0.166 HD
HETATM    5  S   UNL     1      61.952  10.791   3.424  1.00  0.00    -0.077 SA
HETATM    6  C   UNL     1      62.294   9.352   2.564  1.00  0.00     0.047 A 
HETATM    7  C   UNL     1      61.746   9.152   1.195  1.00  0.00     0.076 C 
ENDROOT
BRANCH   1   8
HETATM    8  C   UNL     1      64.327   8.194   5.282  1.00  0.00    -0.008 A 
HETATM    9  C   UNL     1      63.793   7.193   6.107  1.00  0.00     0.014 A 
HETATM   10  C   UNL     1      64.625   6.398   6.902  1.00  0.00     0.001 A 
HETATM   11  C   UNL     1      66.003   6.596   6.883  1.00  0.00     0.000 A 
HETATM   12  C   UNL     1      66.551   7.577   6.060  1.00  0.00     0.001 A 
HETATM   13  C   UNL     1      65.719   8.359   5.254  1.00  0.00     0.014 A 
ENDBRANCH   1   8
BRANCH   2  14
HETATM   14  C   UNL     1      62.987  11.028   6.017  1.00  0.00     0.212 C 
BRANCH  14  15
HETATM   15  O   UNL     1      64.333  11.455   6.197  1.00  0.00    -0.396 OA
HETATM   16  H   UNL     1      64.888  10.690   6.414  1.00  0.00     0.209 HD
ENDBRANCH  14  15
ENDBRANCH   2  14
TORSDOF 3
ENDMDL
MODEL 3
REMARK VINA RESULT:      -5.2      1.885      3.089
REMARK  3 active torsions:
REMARK  status: ('A' for Active; 'I' for Inactive)
REMARK    1  A    between atoms: C_1  and  C_7 
REMARK    2  A    between atoms: C_2  and  C_8 
REMARK    3  A    between atoms: C_8  and  O_10 
ROOT
HETATM    1  C   UNL     1      63.691   8.284   4.917  1.00  0.00     0.058 A 
HETATM    2  C   UNL     1      63.157   7.224   5.643  1.00  0.00     0.035 A 
HETATM    3  N   UNL     1      65.030   8.554   5.179  1.00  0.00    -0.353 N 
ATOM      4  HN  UNL     1      65.559   9.323   4.767  1.00  0.00     0.166 HD
HETATM    5  S   UNL     1      64.412   6.500   6.581  1.00  0.00    -0.077 SA
HETATM    6  C   UNL     1      65.517   7.684   6.032  1.00  0.00     0.047 A 
HETATM    7  C   UNL     1      66.927   7.668   6.508  1.00  0.00     0.076 C 
ENDROOT
BRANCH   1   8
HETATM    8  C   UNL     1      62.972   9.113   3.947  1.00  0.00    -0.008 A 
HETATM    9  C   UNL     1      62.567  10.404   4.317  1.00  0.00     0.014 A 
HETATM   10  C   UNL     1      61.905  11.236   3.408  1.00  0.00     0.001 A 
HETATM   11  C   UNL     1      61.639  10.786   2.117  1.00  0.00     0.000 A 
HETATM   12  C   UNL     1      62.047   9.512   1.730  1.00  0.00     0.001 A 
HETATM   13  C   UNL     1      62.722   8.688   2.635  1.00  0.00     0.014 A 
ENDBRANCH   1   8
BRANCH   2  14
HETATM   14  C   UNL     1      61.770   6.667   5.662  1.00  0.00     0.212 C 
BRANCH  14  15
HETATM   15  O   UNL     1      61.294   6.569   7.000  1.00  0.00    -0.396 OA
HETATM   16  H   UNL     1      61.976   6.160   7.556  1.00  0.00     0.209 HD
ENDBRANCH  14  15
ENDBRANCH   2  14
TORSDOF 3
ENDMDL
MODEL 4
REMARK VINA RESULT:      -4.8      1.383      1.508
REMARK  3 active torsions:
REMARK  status: ('A' for Active; 'I' for Inactive)
REMARK    1  A    between atoms: C_1  and  C_7 
REMARK    2  A    between atoms: C_2  and  C_8 
REMARK    3  A    between atoms: C_8  and  O_10 
ROOT
HETATM    1  C   UNL     1      61.556   7.551   4.415  1.00  0.00     0.058 A 
HETATM    2  C   UNL     1      62.476   7.076   5.345  1.00  0.00     0.035 A 
HETATM    3  N   UNL     1      60.379   6.816   4.332  1.00  0.00    -0.353 N 
ATOM      4  HN  UNL     1      59.622   7.003   3.673  1.00  0.00     0.166 HD
HETATM    5  S   UNL     1      61.775   5.748   6.196  1.00  0.00    -0.077 SA
HETATM    6  C   UNL     1      60.375   5.849   5.218  1.00  0.00     0.047 A 
HETATM    7  C   UNL     1      59.255   4.891   5.418  1.00  0.00     0.076 C 
ENDROOT
BRANCH   1   8
HETATM    8  C   UNL     1      61.736   8.712   3.541  1.00  0.00    -0.008 A 
HETATM    9  C   UNL     1      61.847   8.517   2.156  1.00  0.00     0.014 A 
HETATM   10  C   UNL     1      61.989   9.604   1.287  1.00  0.00     0.001 A 
HETATM   11  C   UNL     1      62.024  10.901   1.794  1.00  0.00     0.000 A 
HETATM   12  C   UNL     1      61.903  11.113   3.165  1.00  0.00     0.001 A 
HETATM   13  C   UNL     1      61.745  10.026   4.030  1.00  0.00     0.014 A 
ENDBRANCH   1   8
BRANCH   2  14
HETATM   14  C   UNL     1      63.845   7.568   5.689  1.00  0.00     0.212 C 
BRANCH  14  15
HETATM   15  O   UNL     1      64.146   7.280   7.050  1.00  0.00    -0.396 OA
HETATM   16  H   UNL     1      63.813   7.997   7.613  1.00  0.00     0.209 HD
ENDBRANCH  14  15
ENDBRANCH   2  14
TORSDOF 3
ENDMDL
MODEL 5
REMARK VINA RESULT:      -4.6      2.308      3.105
REMARK  3 active torsions:
REMARK  status: ('A' for Active; 'I' for Inactive)
REMARK    1  A    between atoms: C_1  and  C_7 
REMARK    2  A    between atoms: C_2  and  C_8 
REMARK    3  A    between atoms: C_8  and  O_10 
ROOT
HETATM    1  C   UNL     1      63.635   7.946   3.714  1.00  0.00     0.058 A 
HETATM    2  C   UNL     1      63.961   8.806   4.759  1.00  0.00     0.035 A 
HETATM    3  N   UNL     1      64.579   6.960   3.454  1.00  0.00    -0.353 N 
ATOM      4  HN  UNL     1      64.515   6.279   2.697  1.00  0.00     0.166 HD
HETATM    5  S   UNL     1      65.434   8.272   5.483  1.00  0.00    -0.077 SA
HETATM    6  C   UNL     1      65.564   7.026   4.318  1.00  0.00     0.047 A 
HETATM    7  C   UNL     1      66.729   6.100   4.343  1.00  0.00     0.076 C 
ENDROOT
BRANCH   1   8
HETATM    8  C   UNL     1      62.425   8.012   2.891  1.00  0.00    -0.008 A 
HETATM    9  C   UNL     1      62.438   8.775   1.714  1.00  0.00     0.014 A 
HETATM   10  C   UNL     1      61.312   8.837   0.886  1.00  0.00     0.001 A 
HETATM   11  C   UNL     1      60.158   8.136   1.226  1.00  0.00     0.000 A 
HETATM   12  C   UNL     1      60.133   7.363   2.384  1.00  0.00     0.001 A 
HETATM   13  C   UNL     1      61.265   7.290   3.202  1.00  0.00     0.014 A 
ENDBRANCH   1   8
BRANCH   2  14
HETATM   14  C   UNL     1      63.228   9.991   5.301  1.00  0.00     0.212 C 
BRANCH  14  15
HETATM   15  O   UNL     1      64.140  10.906   5.899  1.00  0.00    -0.396 OA
HETATM   16  H   UNL     1      64.285  11.655   5.300  1.00  0.00     0.209 HD
ENDBRANCH  14  15
ENDBRANCH   2  14
TORSDOF 3
ENDMDL
MODEL 6
REMARK VINA RESULT:      -4.6      2.766      3.464
REMARK  3 active torsions:
REMARK  status: ('A' for Active; 'I' for Inactive)
REMARK    1  A    between atoms: C_1  and  C_7 
REMARK    2  A    between atoms: C_2  and  C_8 
REMARK    3  A    between atoms: C_8  and  O_10 
ROOT
HETATM    1  C   UNL     1      65.407   7.342   5.736  1.00  0.00     0.058 A 
HETATM    2  C   UNL     1      66.656   6.894   5.316  1.00  0.00     0.035 A 
HETATM    3  N   UNL     1      65.150   7.165   7.091  1.00  0.00    -0.353 N 
ATOM      4  HN  UNL     1      64.269   7.398   7.550  1.00  0.00     0.166 HD
HETATM    5  S   UNL     1      67.547   6.350   6.691  1.00  0.00    -0.077 SA
HETATM    6  C   UNL     1      66.198   6.658   7.697  1.00  0.00     0.047 A 
HETATM    7  C   UNL     1      66.271   6.368   9.155  1.00  0.00     0.076 C 
ENDROOT
BRANCH   1   8
HETATM    8  C   UNL     1      64.379   7.946   4.887  1.00  0.00    -0.008 A 
HETATM    9  C   UNL     1      63.903   7.234   3.775  1.00  0.00     0.014 A 
HETATM   10  C   UNL     1      62.900   7.766   2.958  1.00  0.00     0.001 A 
HETATM   11  C   UNL     1      62.360   9.018   3.243  1.00  0.00     0.000 A 
HETATM   12  C   UNL     1      62.812   9.732   4.350  1.00  0.00     0.001 A 
HETATM   13  C   UNL     1      63.804   9.192   5.174  1.00  0.00     0.014 A 
ENDBRANCH   1   8
BRANCH   2  14
HETATM   14  C   UNL     1      67.271   6.879   3.953  1.00  0.00     0.212 C 
BRANCH  14  15
HETATM   15  O   UNL     1      67.405   5.541   3.486  1.00  0.00    -0.396 OA
HETATM   16  H   UNL     1      67.360   5.532   2.517  1.00  0.00     0.209 HD
ENDBRANCH  14  15
ENDBRANCH   2  14
TORSDOF 3
ENDMDL
MODEL 7
REMARK VINA RESULT:      -4.5      2.315      4.653
REMARK  3 active torsions:
REMARK  status: ('A' for Active; 'I' for Inactive)
REMARK    1  A    between atoms: C_1  and  C_7 
REMARK    2  A    between atoms: C_2  and  C_8 
REMARK    3  A    between atoms: C_8  and  O_10 
ROOT
HETATM    1  C   UNL     1      63.422   7.614   3.909  1.00  0.00     0.058 A 
HETATM    2  C   UNL     1      62.301   7.421   4.711  1.00  0.00     0.035 A 
HETATM    3  N   UNL     1      63.149   8.071   2.625  1.00  0.00    -0.353 N 
ATOM      4  HN  UNL     1      63.850   8.221   1.900  1.00  0.00     0.166 HD
HETATM    5  S   UNL     1      60.899   7.940   3.846  1.00  0.00    -0.077 SA
HETATM    6  C   UNL     1      61.862   8.282   2.475  1.00  0.00     0.047 A 
HETATM    7  C   UNL     1      61.232   8.799   1.230  1.00  0.00     0.076 C 
ENDROOT
BRANCH   1   8
HETATM    8  C   UNL     1      64.811   7.366   4.298  1.00  0.00    -0.008 A 
HETATM    9  C   UNL     1      65.511   6.304   3.704  1.00  0.00     0.014 A 
HETATM   10  C   UNL     1      66.848   6.055   4.027  1.00  0.00     0.001 A 
HETATM   11  C   UNL     1      67.504   6.865   4.951  1.00  0.00     0.000 A 
HETATM   12  C   UNL     1      66.829   7.931   5.540  1.00  0.00     0.001 A 
HETATM   13  C   UNL     1      65.496   8.188   5.204  1.00  0.00     0.014 A 
ENDBRANCH   1   8
BRANCH   2  14
HETATM   14  C   UNL     1      62.190   6.914   6.113  1.00  0.00     0.212 C 
BRANCH  14  15
HETATM   15  O   UNL     1      62.507   7.947   7.039  1.00  0.00    -0.396 OA
HETATM   16  H   UNL     1      61.823   8.634   7.003  1.00  0.00     0.209 HD
ENDBRANCH  14  15
ENDBRANCH   2  14
TORSDOF 3
ENDMDL
MODEL 8
REMARK VINA RESULT:      -4.5      2.719      3.634
REMARK  3 active torsions:
REMARK  status: ('A' for Active; 'I' for Inactive)
REMARK    1  A    between atoms: C_1  and  C_7 
REMARK    2  A    between atoms: C_2  and  C_8 
REMARK    3  A    between atoms: C_8  and  O_10 
ROOT
HETATM    1  C   UNL     1      61.713   8.420   3.686  1.00  0.00     0.058 A 
HETATM    2  C   UNL     1      62.226   9.687   3.945  1.00  0.00     0.035 A 
HETATM    3  N   UNL     1      62.300   7.393   4.417  1.00  0.00    -0.353 N 
ATOM      4  HN  UNL     1      62.072   6.404   4.315  1.00  0.00     0.166 HD
HETATM    5  S   UNL     1      63.388   9.571   5.217  1.00  0.00    -0.077 SA
HETATM    6  C   UNL     1      63.188   7.873   5.255  1.00  0.00     0.047 A 
HETATM    7  C   UNL     1      63.982   7.049   6.207  1.00  0.00     0.076 C 
ENDROOT
BRANCH   1   8
HETATM    8  C   UNL     1      60.654   8.099   2.727  1.00  0.00    -0.008 A 
HETATM    9  C   UNL     1      59.432   7.598   3.198  1.00  0.00     0.014 A 
HETATM   10  C   UNL     1      58.386   7.309   2.316  1.00  0.00     0.001 A 
HETATM   11  C   UNL     1      58.551   7.518   0.949  1.00  0.00     0.000 A 
HETATM   12  C   UNL     1      59.753   8.028   0.466  1.00  0.00     0.001 A 
HETATM   13  C   UNL     1      60.792   8.330   1.351  1.00  0.00     0.014 A 
ENDBRANCH   1   8
BRANCH   2  14
HETATM   14  C   UNL     1      61.883  11.012   3.342  1.00  0.00     0.212 C 
BRANCH  14  15
HETATM   15  O   UNL     1      62.123  12.058   4.277  1.00  0.00    -0.396 OA
HETATM   16  H   UNL     1      61.281  12.347   4.661  1.00  0.00     0.209 HD
ENDBRANCH  14  15
ENDBRANCH   2  14
TORSDOF 3
ENDMDL
MODEL 9
REMARK VINA RESULT:      -4.4      3.007      5.431
REMARK  3 active torsions:
REMARK  status: ('A' for Active; 'I' for Inactive)
REMARK    1  A    between atoms: C_1  and  C_7 
REMARK    2  A    between atoms: C_2  and  C_8 
REMARK    3  A    between atoms: C_8  and  O_10 
ROOT
HETATM    1  C   UNL     1      64.482   8.306   4.951  1.00  0.00     0.058 A 
HETATM    2  C   UNL     1      63.726   7.901   3.855  1.00  0.00     0.035 A 
HETATM    3  N   UNL     1      64.136   9.549   5.470  1.00  0.00    -0.353 N 
ATOM      4  HN  UNL     1      64.618  10.011   6.242  1.00  0.00     0.166 HD
HETATM    5  S   UNL     1      62.491   9.071   3.564  1.00  0.00    -0.077 SA
HETATM    6  C   UNL     1      63.105  10.045   4.829  1.00  0.00     0.047 A 
HETATM    7  C   UNL     1      62.461  11.349   5.147  1.00  0.00     0.076 C 
ENDROOT
BRANCH   1   8
HETATM    8  C   UNL     1      65.581   7.557   5.563  1.00  0.00    -0.008 A 
HETATM    9  C   UNL     1      66.864   7.640   5.001  1.00  0.00     0.014 A 
HETATM   10  C   UNL     1      67.945   6.964   5.575  1.00  0.00     0.001 A 
HETATM   11  C   UNL     1      67.756   6.194   6.720  1.00  0.00     0.000 A 
HETATM   12  C   UNL     1      66.491   6.111   7.298  1.00  0.00     0.001 A 
HETATM   13  C   UNL     1      65.416   6.801   6.732  1.00  0.00     0.014 A 
ENDBRANCH   1   8
BRANCH   2  14
HETATM   14  C   UNL     1      63.822   6.666   3.017  1.00  0.00     0.212 C 
BRANCH  14  15
HETATM   15  O   UNL     1      63.198   6.876   1.755  1.00  0.00    -0.396 OA
HETATM   16  H   UNL     1      62.877   7.790   1.701  1.00  0.00     0.209 HD
ENDBRANCH  14  15
ENDBRANCH   2  14
TORSDOF 3
ENDMDL
