MODEL 1
REMARK VINA RESULT:      -5.0      0.000      0.000
REMARK  3 active torsions:
REMARK  status: ('A' for Active; 'I' for Inactive)
REMARK    1  A    between atoms: C_1  and  C_6 
REMARK    2  A    between atoms: C_7  and  C_12 
REMARK    3  A    between atoms: C_12  and  O_13 
ROOT
HETATM    1  C   UNL     1      62.058   9.896   3.275  1.00  0.00     0.067 A 
HETATM    2  N   UNL     1      61.731  11.221   3.158  1.00  0.00    -0.299 N 
HETATM    3  N   UNL     1      62.068  11.966   4.230  1.00  0.00    -0.302 N 
ATOM      4  HN  UNL     1      61.927  12.966   4.372  1.00  0.00     0.186 HD
HETATM    5  C   UNL     1      62.647   9.781   4.516  1.00  0.00     0.061 A 
HETATM    6  C   UNL     1      62.633  11.082   5.065  1.00  0.00     0.051 A 
HETATM    7  H   UNL     1      61.287  11.595   2.363  1.00  0.00     0.187 HD
ENDROOT
BRANCH   1   8
HETATM    8  C   UNL     1      61.808   8.904   2.268  1.00  0.00     0.033 A 
HETATM    9  S   UNL     1      60.922   7.470   2.589  1.00  0.00    -0.100 SA
HETATM   10  C   UNL     1      61.076   6.926   0.975  1.00  0.00     0.050 A 
HETATM   11  C   UNL     1      61.792   7.810   0.200  1.00  0.00     0.008 A 
HETATM   12  C   UNL     1      62.215   8.947   0.947  1.00  0.00     0.021 A 
ENDBRANCH   1   8
BRANCH   6  13
HETATM   13  C   UNL     1      63.155  11.520   6.396  1.00  0.00     0.222 C 
BRANCH  13  14
HETATM   14  O   UNL     1      64.580  11.448   6.462  1.00  0.00    -0.395 OA
HETATM   15  H   UNL     1      64.945  11.432   5.564  1.00  0.00     0.209 HD
ENDBRANCH  13  14
ENDBRANCH   6  13
TORSDOF 3
ENDMDL
MODEL 2
REMARK VINA RESULT:      -4.6      3.924      4.667
REMARK  3 active torsions:
REMARK  status: ('A' for Active; 'I' for Inactive)
REMARK    1  A    between atoms: C_1  and  C_6 
REMARK    2  A    between atoms: C_7  and  C_12 
REMARK    3  A    between atoms: C_12  and  O_13 
ROOT
HETATM    1  C   UNL     1      64.256   8.286   5.434  1.00  0.00     0.067 A 
HETATM    2  N   UNL     1      63.862   7.591   6.547  1.00  0.00    -0.299 N 
HETATM    3  N   UNL     1      64.867   6.948   7.176  1.00  0.00    -0.302 N 
ATOM      4  HN  UNL     1      64.819   6.373   8.016  1.00  0.00     0.186 HD
HETATM    5  C   UNL     1      65.613   8.072   5.338  1.00  0.00     0.061 A 
HETATM    6  C   UNL     1      65.945   7.244   6.434  1.00  0.00     0.051 A 
HETATM    7  H   UNL     1      62.929   7.563   6.859  1.00  0.00     0.187 HD
ENDROOT
BRANCH   1   8
HETATM    8  C   UNL     1      63.374   9.054   4.601  1.00  0.00     0.033 A 
HETATM    9  S   UNL     1      62.845   8.502   3.065  1.00  0.00    -0.100 SA
HETATM   10  C   UNL     1      61.899   9.902   2.805  1.00  0.00     0.050 A 
HETATM   11  C   UNL     1      61.982  10.782   3.858  1.00  0.00     0.008 A 
HETATM   12  C   UNL     1      62.834  10.294   4.891  1.00  0.00     0.021 A 
ENDBRANCH   1   8
BRANCH   6  13
HETATM   13  C   UNL     1      67.292   6.713   6.806  1.00  0.00     0.222 C 
BRANCH  13  14
HETATM   14  O   UNL     1      67.608   6.966   8.175  1.00  0.00    -0.395 OA
HETATM   15  H   UNL     1      66.913   7.514   8.572  1.00  0.00     0.209 HD
ENDBRANCH  13  14
ENDBRANCH   6  13
TORSDOF 3
ENDMDL
MODEL 3
REMARK VINA RESULT:      -4.6      4.244      5.089
REMARK  3 active torsions:
REMARK  status: ('A' for Active; 'I' for Inactive)
REMARK    1  A    between atoms: C_1  and  C_6 
REMARK    2  A    between atoms: C_7  and  C_12 
REMARK    3  A    between atoms: C_12  and  O_13 
ROOT
HETATM    1  C   UNL     1      64.656   8.364   4.989  1.00  0.00     0.067 A 
HETATM    2  N   UNL     1      64.371   9.470   5.746  1.00  0.00    -0.299 N 
HETATM    3  N   UNL     1      63.258  10.126   5.362  1.00  0.00    -0.302 N 
ATOM      4  HN  UNL     1      62.849  10.967   5.768  1.00  0.00     0.186 HD
HETATM    5  C   UNL     1      63.652   8.306   4.047  1.00  0.00     0.061 A 
HETATM    6  C   UNL     1      62.814   9.410   4.317  1.00  0.00     0.051 A 
HETATM    7  H   UNL     1      64.931   9.761   6.502  1.00  0.00     0.187 HD
ENDROOT
BRANCH   1   8
HETATM    8  C   UNL     1      65.781   7.499   5.204  1.00  0.00     0.033 A 
HETATM    9  S   UNL     1      66.636   7.453   6.691  1.00  0.00    -0.100 SA
HETATM   10  C   UNL     1      67.708   6.247   6.122  1.00  0.00     0.050 A 
HETATM   11  C   UNL     1      67.432   5.885   4.824  1.00  0.00     0.008 A 
HETATM   12  C   UNL     1      66.324   6.609   4.295  1.00  0.00     0.021 A 
ENDBRANCH   1   8
BRANCH   6  13
HETATM   13  C   UNL     1      61.569   9.815   3.594  1.00  0.00     0.222 C 
BRANCH  13  14
HETATM   14  O   UNL     1      61.406  11.233   3.561  1.00  0.00    -0.395 OA
HETATM   15  H   UNL     1      61.772  11.619   4.371  1.00  0.00     0.209 HD
ENDBRANCH  13  14
ENDBRANCH   6  13
TORSDOF 3
ENDMDL
MODEL 4
REMARK VINA RESULT:      -4.4      4.824      5.314
REMARK  3 active torsions:
REMARK  status: ('A' for Active; 'I' for Inactive)
REMARK    1  A    between atoms: C_1  and  C_6 
REMARK    2  A    between atoms: C_7  and  C_12 
REMARK    3  A    between atoms: C_12  and  O_13 
ROOT
HETATM    1  C   UNL     1      65.107   7.633   6.034  1.00  0.00     0.067 A 
HETATM    2  N   UNL     1      66.194   8.375   6.416  1.00  0.00    -0.299 N 
HETATM    3  N   UNL     1      66.836   7.890   7.497  1.00  0.00    -0.302 N 
ATOM      4  HN  UNL     1      67.663   8.265   7.961  1.00  0.00     0.186 HD
HETATM    5  C   UNL     1      65.045   6.596   6.939  1.00  0.00     0.061 A 
HETATM    6  C   UNL     1      66.131   6.795   7.819  1.00  0.00     0.051 A 
HETATM    7  H   UNL     1      66.480   9.190   5.943  1.00  0.00     0.187 HD
ENDROOT
BRANCH   1   8
HETATM    8  C   UNL     1      64.266   7.941   4.912  1.00  0.00     0.033 A 
HETATM    9  S   UNL     1      64.130   6.905   3.551  1.00  0.00    -0.100 SA
HETATM   10  C   UNL     1      63.010   7.942   2.780  1.00  0.00     0.050 A 
HETATM   11  C   UNL     1      62.744   9.062   3.533  1.00  0.00     0.008 A 
HETATM   12  C   UNL     1      63.470   9.062   4.759  1.00  0.00     0.021 A 
ENDBRANCH   1   8
BRANCH   6  13
HETATM   13  C   UNL     1      66.529   5.951   8.988  1.00  0.00     0.222 C 
BRANCH  13  14
HETATM   14  O   UNL     1      66.421   4.557   8.704  1.00  0.00    -0.395 OA
HETATM   15  H   UNL     1      67.291   4.139   8.797  1.00  0.00     0.209 HD
ENDBRANCH  13  14
ENDBRANCH   6  13
TORSDOF 3
ENDMDL
MODEL 5
REMARK VINA RESULT:      -4.0     14.071     14.435
REMARK  3 active torsions:
REMARK  status: ('A' for Active; 'I' for Inactive)
REMARK    1  A    between atoms: C_1  and  C_6 
REMARK    2  A    between atoms: C_7  and  C_12 
REMARK    3  A    between atoms: C_12  and  O_13 
ROOT
HETATM    1  C   UNL     1      56.464   1.877  13.674  1.00  0.00     0.067 A 
HETATM    2  N   UNL     1      55.608   1.422  14.643  1.00  0.00    -0.299 N 
HETATM    3  N   UNL     1      54.523   2.201  14.825  1.00  0.00    -0.302 N 
ATOM      4  HN  UNL     1      53.754   2.067  15.482  1.00  0.00     0.186 HD
HETATM    5  C   UNL     1      55.887   3.035  13.201  1.00  0.00     0.061 A 
HETATM    6  C   UNL     1      54.693   3.193  13.939  1.00  0.00     0.051 A 
HETATM    7  H   UNL     1      55.772   0.601  15.160  1.00  0.00     0.187 HD
ENDROOT
BRANCH   1   8
HETATM    8  C   UNL     1      57.682   1.221  13.292  1.00  0.00     0.033 A 
HETATM    9  S   UNL     1      57.701  -0.327  12.551  1.00  0.00    -0.100 SA
HETATM   10  C   UNL     1      59.407  -0.331  12.433  1.00  0.00     0.050 A 
HETATM   11  C   UNL     1      59.961   0.817  12.951  1.00  0.00     0.008 A 
HETATM   12  C   UNL     1      58.967   1.708  13.448  1.00  0.00     0.021 A 
ENDBRANCH   1   8
BRANCH   6  13
HETATM   13  C   UNL     1      53.681   4.287  13.821  1.00  0.00     0.222 C 
BRANCH  13  14
HETATM   14  O   UNL     1      54.094   5.474  14.498  1.00  0.00    -0.395 OA
HETATM   15  H   UNL     1      54.639   6.013  13.903  1.00  0.00     0.209 HD
ENDBRANCH  13  14
ENDBRANCH   6  13
TORSDOF 3
ENDMDL
MODEL 6
REMARK VINA RESULT:      -4.0      3.671      4.839
REMARK  3 active torsions:
REMARK  status: ('A' for Active; 'I' for Inactive)
REMARK    1  A    between atoms: C_1  and  C_6 
REMARK    2  A    between atoms: C_7  and  C_12 
REMARK    3  A    between atoms: C_12  and  O_13 
ROOT
HETATM    1  C   UNL     1      63.838   8.157   4.542  1.00  0.00     0.067 A 
HETATM    2  N   UNL     1      63.404   7.827   3.284  1.00  0.00    -0.299 N 
HETATM    3  N   UNL     1      62.641   8.774   2.702  1.00  0.00    -0.302 N 
ATOM      4  HN  UNL     1      62.209   8.756   1.778  1.00  0.00     0.186 HD
HETATM    5  C   UNL     1      63.312   9.406   4.787  1.00  0.00     0.061 A 
HETATM    6  C   UNL     1      62.584   9.746   3.624  1.00  0.00     0.051 A 
HETATM    7  H   UNL     1      63.629   6.975   2.846  1.00  0.00     0.187 HD
ENDROOT
BRANCH   1   8
HETATM    8  C   UNL     1      64.666   7.319   5.362  1.00  0.00     0.033 A 
HETATM    9  S   UNL     1      66.271   6.900   4.923  1.00  0.00    -0.100 SA
HETATM   10  C   UNL     1      66.499   5.981   6.348  1.00  0.00     0.050 A 
HETATM   11  C   UNL     1      65.378   5.981   7.145  1.00  0.00     0.008 A 
HETATM   12  C   UNL     1      64.322   6.750   6.575  1.00  0.00     0.021 A 
ENDBRANCH   1   8
BRANCH   6  13
HETATM   13  C   UNL     1      61.817  11.002   3.358  1.00  0.00     0.222 C 
BRANCH  13  14
HETATM   14  O   UNL     1      62.121  12.026   4.305  1.00  0.00    -0.395 OA
HETATM   15  H   UNL     1      61.623  11.868   5.122  1.00  0.00     0.209 HD
ENDBRANCH  13  14
ENDBRANCH   6  13
TORSDOF 3
ENDMDL
MODEL 7
REMARK VINA RESULT:      -4.0      1.786      2.077
REMARK  3 active torsions:
REMARK  status: ('A' for Active; 'I' for Inactive)
REMARK    1  A    between atoms: C_1  and  C_6 
REMARK    2  A    between atoms: C_7  and  C_12 
REMARK    3  A    between atoms: C_12  and  O_13 
ROOT
HETATM    1  C   UNL     1      61.434   8.627   3.052  1.00  0.00     0.067 A 
HETATM    2  N   UNL     1      61.407   9.887   3.588  1.00  0.00    -0.299 N 
HETATM    3  N   UNL     1      62.458  10.167   4.384  1.00  0.00    -0.302 N 
ATOM      4  HN  UNL     1      62.654  11.032   4.888  1.00  0.00     0.186 HD
HETATM    5  C   UNL     1      62.586   8.053   3.543  1.00  0.00     0.061 A 
HETATM    6  C   UNL     1      63.185   9.040   4.357  1.00  0.00     0.051 A 
HETATM    7  H   UNL     1      60.683  10.531   3.408  1.00  0.00     0.187 HD
ENDROOT
BRANCH   1   8
HETATM    8  C   UNL     1      60.433   8.096   2.170  1.00  0.00     0.033 A 
HETATM    9  S   UNL     1      59.090   7.192   2.740  1.00  0.00    -0.100 SA
HETATM   10  C   UNL     1      58.461   6.993   1.162  1.00  0.00     0.050 A 
HETATM   11  C   UNL     1      59.254   7.593   0.213  1.00  0.00     0.008 A 
HETATM   12  C   UNL     1      60.391   8.226   0.794  1.00  0.00     0.021 A 
ENDBRANCH   1   8
BRANCH   6  13
HETATM   13  C   UNL     1      64.462   8.942   5.128  1.00  0.00     0.222 C 
BRANCH  13  14
HETATM   14  O   UNL     1      64.709  10.112   5.908  1.00  0.00    -0.395 OA
HETATM   15  H   UNL     1      64.759  10.885   5.324  1.00  0.00     0.209 HD
ENDBRANCH  13  14
ENDBRANCH   6  13
TORSDOF 3
ENDMDL
MODEL 8
REMARK VINA RESULT:      -4.0      5.773      7.049
REMARK  3 active torsions:
REMARK  status: ('A' for Active; 'I' for Inactive)
REMARK    1  A    between atoms: C_1  and  C_6 
REMARK    2  A    between atoms: C_7  and  C_12 
REMARK    3  A    between atoms: C_12  and  O_13 
ROOT
HETATM    1  C   UNL     1      65.361   7.022   6.806  1.00  0.00     0.067 A 
HETATM    2  N   UNL     1      65.599   8.285   6.332  1.00  0.00    -0.299 N 
HETATM    3  N   UNL     1      64.600   8.784   5.577  1.00  0.00    -0.302 N 
ATOM      4  HN  UNL     1      64.549   9.695   5.120  1.00  0.00     0.186 HD
HETATM    5  C   UNL     1      64.118   6.683   6.317  1.00  0.00     0.061 A 
HETATM    6  C   UNL     1      63.688   7.800   5.567  1.00  0.00     0.051 A 
HETATM    7  H   UNL     1      66.426   8.783   6.524  1.00  0.00     0.187 HD
ENDROOT
BRANCH   1   8
HETATM    8  C   UNL     1      66.269   6.280   7.636  1.00  0.00     0.033 A 
HETATM    9  S   UNL     1      66.436   4.576   7.522  1.00  0.00    -0.100 SA
HETATM   10  C   UNL     1      67.630   4.538   8.746  1.00  0.00     0.050 A 
HETATM   11  C   UNL     1      67.899   5.793   9.242  1.00  0.00     0.008 A 
HETATM   12  C   UNL     1      67.112   6.795   8.604  1.00  0.00     0.021 A 
ENDBRANCH   1   8
BRANCH   6  13
HETATM   13  C   UNL     1      62.401   7.965   4.824  1.00  0.00     0.222 C 
BRANCH  13  14
HETATM   14  O   UNL     1      62.318   7.093   3.697  1.00  0.00    -0.395 OA
HETATM   15  H   UNL     1      62.618   7.563   2.903  1.00  0.00     0.209 HD
ENDBRANCH  13  14
ENDBRANCH   6  13
TORSDOF 3
ENDMDL
MODEL 9
REMARK VINA RESULT:      -3.9      3.619      4.424
REMARK  3 active torsions:
REMARK  status: ('A' for Active; 'I' for Inactive)
REMARK    1  A    between atoms: C_1  and  C_6 
REMARK    2  A    between atoms: C_7  and  C_12 
REMARK    3  A    between atoms: C_12  and  O_13 
ROOT
HETATM    1  C   UNL     1      62.525   8.402   4.808  1.00  0.00     0.067 A 
HETATM    2  N   UNL     1      63.478   8.430   5.792  1.00  0.00    -0.299 N 
HETATM    3  N   UNL     1      63.538   7.302   6.528  1.00  0.00    -0.302 N 
ATOM      4  HN  UNL     1      64.162   7.090   7.307  1.00  0.00     0.186 HD
HETATM    5  C   UNL     1      61.926   7.167   4.923  1.00  0.00     0.061 A 
HETATM    6  C   UNL     1      62.585   6.524   5.995  1.00  0.00     0.051 A 
HETATM    7  H   UNL     1      64.066   9.204   5.947  1.00  0.00     0.187 HD
ENDROOT
BRANCH   1   8
HETATM    8  C   UNL     1      62.272   9.477   3.891  1.00  0.00     0.033 A 
HETATM    9  S   UNL     1      62.104   9.226   2.202  1.00  0.00    -0.100 SA
HETATM   10  C   UNL     1      61.827  10.888   1.907  1.00  0.00     0.050 A 
HETATM   11  C   UNL     1      61.866  11.629   3.066  1.00  0.00     0.008 A 
HETATM   12  C   UNL     1      62.125  10.816   4.207  1.00  0.00     0.021 A 
ENDBRANCH   1   8
BRANCH   6  13
HETATM   13  C   UNL     1      62.329   5.155   6.539  1.00  0.00     0.222 C 
BRANCH  13  14
HETATM   14  O   UNL     1      63.532   4.401   6.681  1.00  0.00    -0.395 OA
HETATM   15  H   UNL     1      64.296   4.977   6.519  1.00  0.00     0.209 HD
ENDBRANCH  13  14
ENDBRANCH   6  13
TORSDOF 3
ENDMDL
