MODEL 1
REMARK VINA RESULT:      -5.6      0.000      0.000
REMARK  4 active torsions:
REMARK  status: ('A' for Active; 'I' for Inactive)
REMARK    1  A    between atoms: N_3  and  C_7 
REMARK    2  A    between atoms: C_7  and  C_8 
REMARK    3  A    between atoms: C_10  and  C_14 
REMARK    4  A    between atoms: O_11  and  C_14 
ROOT
HETATM    1  C   UNL     1      64.265   8.061   4.326  1.00  0.00    -0.039 A 
HETATM    2  C   UNL     1      64.196   9.219   5.116  1.00  0.00     0.018 A 
HETATM    3  C   UNL     1      63.117  10.111   5.005  1.00  0.00    -0.034 A 
HETATM    4  C   UNL     1      62.176   8.710   3.266  1.00  0.00     0.001 A 
HETATM    5  C   UNL     1      63.240   7.818   3.400  1.00  0.00     0.009 A 
HETATM    6  C   UNL     1      62.112   9.852   4.066  1.00  0.00     0.009 A 
ENDROOT
BRANCH   1   7
HETATM    7  C   UNL     1      65.403   7.084   4.493  1.00  0.00     0.167 C 
BRANCH   7   8
HETATM    8  N   UNL     1      65.829   6.984   5.880  1.00  0.00    -0.347 N 
HETATM    9  C   UNL     1      66.933   7.581   6.418  1.00  0.00     0.182 A 
HETATM   10  N   UNL     1      67.036   7.330   7.705  1.00  0.00    -0.361 N 
HETATM   11  C   UNL     1      65.940   6.561   8.010  1.00  0.00     0.106 A 
ATOM     12  HN  UNL     1      67.771   7.640   8.340  1.00  0.00     0.166 HD
HETATM   13  C   UNL     1      65.163   6.357   6.897  1.00  0.00     0.109 A 
ENDBRANCH   7   8
ENDBRANCH   1   7
BRANCH   3  14
HETATM   14  C   UNL     1      63.039  11.321   5.900  1.00  0.00     0.202 C 
BRANCH  14  15
HETATM   15  O   UNL     1      64.314  11.594   6.466  1.00  0.00    -0.396 OA
HETATM   16  H   UNL     1      64.364  11.207   7.353  1.00  0.00     0.209 HD
ENDBRANCH  14  15
ENDBRANCH   3  14
TORSDOF 4
ENDMDL
MODEL 2
REMARK VINA RESULT:      -5.1      2.060      2.682
REMARK  4 active torsions:
REMARK  status: ('A' for Active; 'I' for Inactive)
REMARK    1  A    between atoms: N_3  and  C_7 
REMARK    2  A    between atoms: C_7  and  C_8 
REMARK    3  A    between atoms: C_10  and  C_14 
REMARK    4  A    between atoms: O_11  and  C_14 
ROOT
HETATM    1  C   UNL     1      62.679   7.646   3.347  1.00  0.00    -0.039 A 
HETATM    2  C   UNL     1      62.438   8.997   3.644  1.00  0.00     0.018 A 
HETATM    3  C   UNL     1      62.121   9.917   2.631  1.00  0.00    -0.034 A 
HETATM    4  C   UNL     1      62.328   8.143   0.995  1.00  0.00     0.001 A 
HETATM    5  C   UNL     1      62.619   7.230   2.009  1.00  0.00     0.009 A 
HETATM    6  C   UNL     1      62.079   9.480   1.302  1.00  0.00     0.009 A 
ENDROOT
BRANCH   1   7
HETATM    7  C   UNL     1      62.965   6.657   4.452  1.00  0.00     0.167 C 
BRANCH   7   8
HETATM    8  N   UNL     1      64.105   7.064   5.258  1.00  0.00    -0.347 N 
HETATM    9  C   UNL     1      64.255   6.833   6.596  1.00  0.00     0.182 A 
HETATM   10  N   UNL     1      65.406   7.292   7.037  1.00  0.00    -0.361 N 
HETATM   11  C   UNL     1      66.030   7.817   5.932  1.00  0.00     0.106 A 
ATOM     12  HN  UNL     1      65.758   7.265   7.993  1.00  0.00     0.166 HD
HETATM   13  C   UNL     1      65.251   7.661   4.813  1.00  0.00     0.109 A 
ENDBRANCH   7   8
ENDBRANCH   1   7
BRANCH   3  14
HETATM   14  C   UNL     1      61.817  11.351   2.979  1.00  0.00     0.202 C 
BRANCH  14  15
HETATM   15  O   UNL     1      62.040  12.187   1.852  1.00  0.00    -0.396 OA
HETATM   16  H   UNL     1      61.577  11.822   1.082  1.00  0.00     0.209 HD
ENDBRANCH  14  15
ENDBRANCH   3  14
TORSDOF 4
ENDMDL
MODEL 3
REMARK VINA RESULT:      -5.1      2.283      3.131
REMARK  4 active torsions:
REMARK  status: ('A' for Active; 'I' for Inactive)
REMARK    1  A    between atoms: N_3  and  C_7 
REMARK    2  A    between atoms: C_7  and  C_8 
REMARK    3  A    between atoms: C_10  and  C_14 
REMARK    4  A    between atoms: O_11  and  C_14 
ROOT
HETATM    1  C   UNL     1      63.260   8.679   4.779  1.00  0.00    -0.039 A 
HETATM    2  C   UNL     1      62.793   8.467   3.471  1.00  0.00     0.018 A 
HETATM    3  C   UNL     1      62.182   9.501   2.742  1.00  0.00    -0.034 A 
HETATM    4  C   UNL     1      62.458  10.969   4.649  1.00  0.00     0.001 A 
HETATM    5  C   UNL     1      63.085   9.944   5.357  1.00  0.00     0.009 A 
HETATM    6  C   UNL     1      62.010  10.751   3.346  1.00  0.00     0.009 A 
ENDROOT
BRANCH   1   7
HETATM    7  C   UNL     1      63.962   7.575   5.531  1.00  0.00     0.167 C 
BRANCH   7   8
HETATM    8  N   UNL     1      65.408   7.681   5.419  1.00  0.00    -0.347 N 
HETATM    9  C   UNL     1      66.248   8.157   6.386  1.00  0.00     0.182 A 
HETATM   10  N   UNL     1      67.504   8.098   6.002  1.00  0.00    -0.361 N 
HETATM   11  C   UNL     1      67.471   7.538   4.749  1.00  0.00     0.106 A 
ATOM     12  HN  UNL     1      68.326   8.402   6.523  1.00  0.00     0.166 HD
HETATM   13  C   UNL     1      66.182   7.247   4.379  1.00  0.00     0.109 A 
ENDBRANCH   7   8
ENDBRANCH   1   7
BRANCH   3  14
HETATM   14  C   UNL     1      61.736   9.264   1.323  1.00  0.00     0.202 C 
BRANCH  14  15
HETATM   15  O   UNL     1      60.351   8.948   1.291  1.00  0.00    -0.396 OA
HETATM   16  H   UNL     1      59.849   9.650   1.733  1.00  0.00     0.209 HD
ENDBRANCH  14  15
ENDBRANCH   3  14
TORSDOF 4
ENDMDL
MODEL 4
REMARK VINA RESULT:      -5.0      3.673      4.662
REMARK  4 active torsions:
REMARK  status: ('A' for Active; 'I' for Inactive)
REMARK    1  A    between atoms: N_3  and  C_7 
REMARK    2  A    between atoms: C_7  and  C_8 
REMARK    3  A    between atoms: C_10  and  C_14 
REMARK    4  A    between atoms: O_11  and  C_14 
ROOT
HETATM    1  C   UNL     1      62.489   9.000   2.845  1.00  0.00    -0.039 A 
HETATM    2  C   UNL     1      62.790   9.431   4.147  1.00  0.00     0.018 A 
HETATM    3  C   UNL     1      62.540  10.753   4.551  1.00  0.00    -0.034 A 
HETATM    4  C   UNL     1      61.722  11.246   2.324  1.00  0.00     0.001 A 
HETATM    5  C   UNL     1      61.951   9.925   1.939  1.00  0.00     0.009 A 
HETATM    6  C   UNL     1      62.013  11.660   3.624  1.00  0.00     0.009 A 
ENDROOT
BRANCH   1   7
HETATM    7  C   UNL     1      62.713   7.563   2.441  1.00  0.00     0.167 C 
BRANCH   7   8
HETATM    8  N   UNL     1      61.525   6.752   2.651  1.00  0.00    -0.347 N 
HETATM    9  C   UNL     1      60.597   6.439   1.699  1.00  0.00     0.182 A 
HETATM   10  N   UNL     1      59.653   5.663   2.185  1.00  0.00    -0.361 N 
HETATM   11  C   UNL     1      60.001   5.450   3.495  1.00  0.00     0.106 A 
ATOM     12  HN  UNL     1      58.837   5.298   1.693  1.00  0.00     0.166 HD
HETATM   13  C   UNL     1      61.174   6.095   3.798  1.00  0.00     0.109 A 
ENDBRANCH   7   8
ENDBRANCH   1   7
BRANCH   3  14
HETATM   14  C   UNL     1      62.823  11.178   5.968  1.00  0.00     0.202 C 
BRANCH  14  15
HETATM   15  O   UNL     1      64.213  11.422   6.138  1.00  0.00    -0.396 OA
HETATM   16  H   UNL     1      64.468  11.219   7.051  1.00  0.00     0.209 HD
ENDBRANCH  14  15
ENDBRANCH   3  14
TORSDOF 4
ENDMDL
MODEL 5
REMARK VINA RESULT:      -4.9      3.862      5.991
REMARK  4 active torsions:
REMARK  status: ('A' for Active; 'I' for Inactive)
REMARK    1  A    between atoms: N_3  and  C_7 
REMARK    2  A    between atoms: C_7  and  C_8 
REMARK    3  A    between atoms: C_10  and  C_14 
REMARK    4  A    between atoms: O_11  and  C_14 
ROOT
HETATM    1  C   UNL     1      62.276   9.330   2.170  1.00  0.00    -0.039 A 
HETATM    2  C   UNL     1      62.845   8.477   3.129  1.00  0.00     0.018 A 
HETATM    3  C   UNL     1      63.003   8.886   4.463  1.00  0.00    -0.034 A 
HETATM    4  C   UNL     1      62.059  11.041   3.881  1.00  0.00     0.001 A 
HETATM    5  C   UNL     1      61.884  10.617   2.564  1.00  0.00     0.009 A 
HETATM    6  C   UNL     1      62.614  10.180   4.829  1.00  0.00     0.009 A 
ENDROOT
BRANCH   1   7
HETATM    7  C   UNL     1      62.064   8.857   0.752  1.00  0.00     0.167 C 
BRANCH   7   8
HETATM    8  N   UNL     1      60.961   7.915   0.657  1.00  0.00    -0.347 N 
HETATM    9  C   UNL     1      59.634   8.240   0.667  1.00  0.00     0.182 A 
HETATM   10  N   UNL     1      58.877   7.173   0.532  1.00  0.00    -0.361 N 
HETATM   11  C   UNL     1      59.754   6.124   0.406  1.00  0.00     0.106 A 
ATOM     12  HN  UNL     1      57.858   7.134   0.524  1.00  0.00     0.166 HD
HETATM   13  C   UNL     1      61.053   6.566   0.453  1.00  0.00     0.109 A 
ENDBRANCH   7   8
ENDBRANCH   1   7
BRANCH   3  14
HETATM   14  C   UNL     1      63.568   7.936   5.486  1.00  0.00     0.202 C 
BRANCH  14  15
HETATM   15  O   UNL     1      62.800   7.988   6.681  1.00  0.00    -0.396 OA
HETATM   16  H   UNL     1      62.334   7.147   6.803  1.00  0.00     0.209 HD
ENDBRANCH  14  15
ENDBRANCH   3  14
TORSDOF 4
ENDMDL
MODEL 6
REMARK VINA RESULT:      -4.6      2.026      2.914
REMARK  4 active torsions:
REMARK  status: ('A' for Active; 'I' for Inactive)
REMARK    1  A    between atoms: N_3  and  C_7 
REMARK    2  A    between atoms: C_7  and  C_8 
REMARK    3  A    between atoms: C_10  and  C_14 
REMARK    4  A    between atoms: O_11  and  C_14 
ROOT
HETATM    1  C   UNL     1      62.919   8.108   4.332  1.00  0.00    -0.039 A 
HETATM    2  C   UNL     1      62.476   8.708   3.143  1.00  0.00     0.018 A 
HETATM    3  C   UNL     1      62.229  10.089   3.074  1.00  0.00    -0.034 A 
HETATM    4  C   UNL     1      62.825  10.281   5.415  1.00  0.00     0.001 A 
HETATM    5  C   UNL     1      63.091   8.913   5.467  1.00  0.00     0.009 A 
HETATM    6  C   UNL     1      62.397  10.869   4.224  1.00  0.00     0.009 A 
ENDROOT
BRANCH   1   7
HETATM    7  C   UNL     1      63.232   6.632   4.376  1.00  0.00     0.167 C 
BRANCH   7   8
HETATM    8  N   UNL     1      64.640   6.387   4.644  1.00  0.00    -0.347 N 
HETATM    9  C   UNL     1      65.148   5.829   5.784  1.00  0.00     0.182 A 
HETATM   10  N   UNL     1      66.455   5.706   5.717  1.00  0.00    -0.361 N 
HETATM   11  C   UNL     1      66.798   6.182   4.476  1.00  0.00     0.106 A 
ATOM     12  HN  UNL     1      67.080   5.338   6.434  1.00  0.00     0.166 HD
HETATM   13  C   UNL     1      65.683   6.585   3.783  1.00  0.00     0.109 A 
ENDBRANCH   7   8
ENDBRANCH   1   7
BRANCH   3  14
HETATM   14  C   UNL     1      61.803  10.719   1.774  1.00  0.00     0.202 C 
BRANCH  14  15
HETATM   15  O   UNL     1      62.003  12.125   1.822  1.00  0.00    -0.396 OA
HETATM   16  H   UNL     1      61.156  12.567   1.987  1.00  0.00     0.209 HD
ENDBRANCH  14  15
ENDBRANCH   3  14
TORSDOF 4
ENDMDL
MODEL 7
REMARK VINA RESULT:      -4.5      2.842      5.193
REMARK  4 active torsions:
REMARK  status: ('A' for Active; 'I' for Inactive)
REMARK    1  A    between atoms: N_3  and  C_7 
REMARK    2  A    between atoms: C_7  and  C_8 
REMARK    3  A    between atoms: C_10  and  C_14 
REMARK    4  A    between atoms: O_11  and  C_14 
ROOT
HETATM    1  C   UNL     1      64.363   7.348   5.534  1.00  0.00    -0.039 A 
HETATM    2  C   UNL     1      64.735   6.905   6.813  1.00  0.00     0.018 A 
HETATM    3  C   UNL     1      66.085   6.860   7.201  1.00  0.00    -0.034 A 
HETATM    4  C   UNL     1      66.713   7.664   5.003  1.00  0.00     0.001 A 
HETATM    5  C   UNL     1      65.369   7.729   4.635  1.00  0.00     0.009 A 
HETATM    6  C   UNL     1      67.071   7.234   6.281  1.00  0.00     0.009 A 
ENDROOT
BRANCH   1   7
HETATM    7  C   UNL     1      62.906   7.442   5.149  1.00  0.00     0.167 C 
BRANCH   7   8
HETATM    8  N   UNL     1      62.559   8.770   4.669  1.00  0.00    -0.347 N 
HETATM    9  C   UNL     1      61.758   9.044   3.596  1.00  0.00     0.182 A 
HETATM   10  N   UNL     1      61.604  10.339   3.430  1.00  0.00    -0.361 N 
HETATM   11  C   UNL     1      62.315  10.920   4.452  1.00  0.00     0.106 A 
ATOM     12  HN  UNL     1      61.072  10.811   2.699  1.00  0.00     0.166 HD
HETATM   13  C   UNL     1      62.893   9.962   5.248  1.00  0.00     0.109 A 
ENDBRANCH   7   8
ENDBRANCH   1   7
BRANCH   3  14
HETATM   14  C   UNL     1      66.457   6.429   8.596  1.00  0.00     0.202 C 
BRANCH  14  15
HETATM   15  O   UNL     1      66.125   5.061   8.791  1.00  0.00    -0.396 OA
HETATM   16  H   UNL     1      66.065   4.875   9.740  1.00  0.00     0.209 HD
ENDBRANCH  14  15
ENDBRANCH   3  14
TORSDOF 4
ENDMDL
MODEL 8
REMARK VINA RESULT:      -4.3     11.896     13.157
REMARK  4 active torsions:
REMARK  status: ('A' for Active; 'I' for Inactive)
REMARK    1  A    between atoms: N_3  and  C_7 
REMARK    2  A    between atoms: C_7  and  C_8 
REMARK    3  A    between atoms: C_10  and  C_14 
REMARK    4  A    between atoms: O_11  and  C_14 
ROOT
HETATM    1  C   UNL     1      56.410   1.802  13.108  1.00  0.00    -0.039 A 
HETATM    2  C   UNL     1      56.780   2.418  11.902  1.00  0.00     0.018 A 
HETATM    3  C   UNL     1      58.131   2.559  11.543  1.00  0.00    -0.034 A 
HETATM    4  C   UNL     1      58.764   1.501  13.629  1.00  0.00     0.001 A 
HETATM    5  C   UNL     1      57.420   1.344  13.966  1.00  0.00     0.009 A 
HETATM    6  C   UNL     1      59.120   2.104  12.422  1.00  0.00     0.009 A 
ENDROOT
BRANCH   1   7
HETATM    7  C   UNL     1      54.954   1.610  13.456  1.00  0.00     0.167 C 
BRANCH   7   8
HETATM    8  N   UNL     1      54.266   2.879  13.622  1.00  0.00    -0.347 N 
HETATM    9  C   UNL     1      54.692   3.920  14.399  1.00  0.00     0.182 A 
HETATM   10  N   UNL     1      53.873   4.945  14.319  1.00  0.00    -0.361 N 
HETATM   11  C   UNL     1      52.894   4.557  13.439  1.00  0.00     0.106 A 
ATOM     12  HN  UNL     1      53.948   5.837  14.808  1.00  0.00     0.166 HD
HETATM   13  C   UNL     1      53.134   3.288  12.973  1.00  0.00     0.109 A 
ENDBRANCH   7   8
ENDBRANCH   1   7
BRANCH   3  14
HETATM   14  C   UNL     1      58.502   3.177  10.221  1.00  0.00     0.202 C 
BRANCH  14  15
HETATM   15  O   UNL     1      58.642   4.585  10.361  1.00  0.00    -0.396 OA
HETATM   16  H   UNL     1      59.291   4.911   9.719  1.00  0.00     0.209 HD
ENDBRANCH  14  15
ENDBRANCH   3  14
TORSDOF 4
ENDMDL
MODEL 9
REMARK VINA RESULT:      -4.3      4.032      5.602
REMARK  4 active torsions:
REMARK  status: ('A' for Active; 'I' for Inactive)
REMARK    1  A    between atoms: N_3  and  C_7 
REMARK    2  A    between atoms: C_7  and  C_8 
REMARK    3  A    between atoms: C_10  and  C_14 
REMARK    4  A    between atoms: O_11  and  C_14 
ROOT
HETATM    1  C   UNL     1      61.105   7.571   3.880  1.00  0.00    -0.039 A 
HETATM    2  C   UNL     1      60.995   8.913   3.482  1.00  0.00     0.018 A 
HETATM    3  C   UNL     1      61.998   9.847   3.792  1.00  0.00    -0.034 A 
HETATM    4  C   UNL     1      63.221   8.104   4.950  1.00  0.00     0.001 A 
HETATM    5  C   UNL     1      62.232   7.179   4.617  1.00  0.00     0.009 A 
HETATM    6  C   UNL     1      63.107   9.432   4.538  1.00  0.00     0.009 A 
ENDROOT
BRANCH   1   7
HETATM    7  C   UNL     1      60.046   6.568   3.495  1.00  0.00     0.167 C 
BRANCH   7   8
HETATM    8  N   UNL     1      58.922   6.587   4.416  1.00  0.00    -0.347 N 
HETATM    9  C   UNL     1      58.859   5.924   5.609  1.00  0.00     0.182 A 
HETATM   10  N   UNL     1      57.727   6.163   6.233  1.00  0.00    -0.361 N 
HETATM   11  C   UNL     1      57.045   7.034   5.420  1.00  0.00     0.106 A 
ATOM     12  HN  UNL     1      57.420   5.783   7.128  1.00  0.00     0.166 HD
HETATM   13  C   UNL     1      57.781   7.332   4.300  1.00  0.00     0.109 A 
ENDBRANCH   7   8
ENDBRANCH   1   7
BRANCH   3  14
HETATM   14  C   UNL     1      61.883  11.269   3.310  1.00  0.00     0.202 C 
BRANCH  14  15
HETATM   15  O   UNL     1      62.100  12.170   4.388  1.00  0.00    -0.396 OA
HETATM   16  H   UNL     1      61.597  11.876   5.163  1.00  0.00     0.209 HD
ENDBRANCH  14  15
ENDBRANCH   3  14
TORSDOF 4
ENDMDL
