MODEL 1
REMARK VINA RESULT:      -4.8      0.000      0.000
REMARK  3 active torsions:
REMARK  status: ('A' for Active; 'I' for Inactive)
REMARK    1  A    between atoms: C_1  and  N_2 
REMARK    2  A    between atoms: C_3  and  C_6 
REMARK    3  A    between atoms: C_6  and  N_7 
ROOT
HETATM    1  C   UNL     1      62.712   9.384   3.902  1.00  0.00     0.111 A 
HETATM    2  C   UNL     1      62.388  10.699   4.289  1.00  0.00     0.011 A 
HETATM    3  N   UNL     1      62.534   8.964   2.623  1.00  0.00    -0.352 N 
ATOM      4  HN  UNL     1      62.748   8.003   2.357  1.00  0.00     0.166 HD
HETATM    5  C   UNL     1      61.926  11.587   3.305  1.00  0.00     0.014 A 
HETATM    6  C   UNL     1      62.066   9.844   1.711  1.00  0.00     0.089 A 
HETATM    7  C   UNL     1      61.752  11.155   1.998  1.00  0.00     0.018 A 
ENDROOT
BRANCH   1   8
HETATM    8  N   UNL     1      63.117   8.446   4.832  1.00  0.00    -0.367 N 
HETATM    9  C   UNL     1      62.304   7.257   5.040  1.00  0.00     0.124 C 
HETATM   10  C   UNL     1      62.992   6.690   6.277  1.00  0.00     0.021 C 
HETATM   11  C   UNL     1      64.476   6.897   5.970  1.00  0.00     0.021 C 
HETATM   12  C   UNL     1      64.519   8.056   4.960  1.00  0.00     0.124 C 
ENDBRANCH   1   8
BRANCH   2  13
HETATM   13  C   UNL     1      62.546  11.152   5.723  1.00  0.00     0.271 C 
BRANCH  13  14
HETATM   14  N   UNL     1      63.912  11.467   6.150  1.00  0.00    -0.075 N 
HETATM   15  H   UNL     1      63.892  12.246   6.807  1.00  0.00     0.274 HD
HETATM   16  H   UNL     1      64.472  11.722   5.336  1.00  0.00     0.274 HD
HETATM   17  H   UNL     1      64.324  10.650   6.601  1.00  0.00     0.274 HD
ENDBRANCH  13  14
ENDBRANCH   2  13
TORSDOF 3
ENDMDL
MODEL 2
REMARK VINA RESULT:      -4.5      1.295      3.121
REMARK  3 active torsions:
REMARK  status: ('A' for Active; 'I' for Inactive)
REMARK    1  A    between atoms: C_1  and  N_2 
REMARK    2  A    between atoms: C_3  and  C_6 
REMARK    3  A    between atoms: C_6  and  N_7 
ROOT
HETATM    1  C   UNL     1      63.482   8.947   4.915  1.00  0.00     0.111 A 
HETATM    2  C   UNL     1      62.853   8.919   3.654  1.00  0.00     0.011 A 
HETATM    3  N   UNL     1      63.425  10.050   5.704  1.00  0.00    -0.352 N 
ATOM      4  HN  UNL     1      63.903  10.070   6.605  1.00  0.00     0.166 HD
HETATM    5  C   UNL     1      62.117  10.045   3.254  1.00  0.00     0.014 A 
HETATM    6  C   UNL     1      62.723  11.121   5.272  1.00  0.00     0.089 A 
HETATM    7  C   UNL     1      62.056  11.167   4.067  1.00  0.00     0.018 A 
ENDROOT
BRANCH   1   8
HETATM    8  N   UNL     1      64.269   7.894   5.343  1.00  0.00    -0.367 N 
HETATM    9  C   UNL     1      65.692   8.112   5.549  1.00  0.00     0.124 C 
HETATM   10  C   UNL     1      66.143   6.671   5.759  1.00  0.00     0.021 C 
HETATM   11  C   UNL     1      65.040   6.090   6.644  1.00  0.00     0.021 C 
HETATM   12  C   UNL     1      63.805   6.966   6.371  1.00  0.00     0.124 C 
ENDBRANCH   1   8
BRANCH   2  13
HETATM   13  C   UNL     1      62.955   7.705   2.758  1.00  0.00     0.271 C 
BRANCH  13  14
HETATM   14  N   UNL     1      62.529   7.897   1.369  1.00  0.00    -0.075 N 
HETATM   15  H   UNL     1      63.295   7.654   0.742  1.00  0.00     0.274 HD
HETATM   16  H   UNL     1      62.267   8.872   1.225  1.00  0.00     0.274 HD
HETATM   17  H   UNL     1      61.726   7.298   1.174  1.00  0.00     0.274 HD
ENDBRANCH  13  14
ENDBRANCH   2  13
TORSDOF 3
ENDMDL
MODEL 3
REMARK VINA RESULT:      -4.3      3.152      5.026
REMARK  3 active torsions:
REMARK  status: ('A' for Active; 'I' for Inactive)
REMARK    1  A    between atoms: C_1  and  N_2 
REMARK    2  A    between atoms: C_3  and  C_6 
REMARK    3  A    between atoms: C_6  and  N_7 
ROOT
HETATM    1  C   UNL     1      65.359   6.946   6.524  1.00  0.00     0.111 A 
HETATM    2  C   UNL     1      65.775   7.755   5.449  1.00  0.00     0.011 A 
HETATM    3  N   UNL     1      64.054   6.882   6.892  1.00  0.00    -0.352 N 
ATOM      4  HN  UNL     1      63.764   6.312   7.687  1.00  0.00     0.166 HD
HETATM    5  C   UNL     1      64.797   8.457   4.729  1.00  0.00     0.014 A 
HETATM    6  C   UNL     1      63.147   7.591   6.185  1.00  0.00     0.089 A 
HETATM    7  C   UNL     1      63.463   8.385   5.104  1.00  0.00     0.018 A 
ENDROOT
BRANCH   1   8
HETATM    8  N   UNL     1      66.278   6.274   7.309  1.00  0.00    -0.367 N 
HETATM    9  C   UNL     1      66.568   6.774   8.645  1.00  0.00     0.124 C 
HETATM   10  C   UNL     1      67.763   5.895   8.992  1.00  0.00     0.021 C 
HETATM   11  C   UNL     1      67.348   4.522   8.461  1.00  0.00     0.021 C 
HETATM   12  C   UNL     1      66.314   4.815   7.361  1.00  0.00     0.124 C 
ENDBRANCH   1   8
BRANCH   2  13
HETATM   13  C   UNL     1      67.235   7.858   5.069  1.00  0.00     0.271 C 
BRANCH  13  14
HETATM   14  N   UNL     1      67.712   6.882   4.085  1.00  0.00    -0.075 N 
HETATM   15  H   UNL     1      67.420   5.946   4.366  1.00  0.00     0.274 HD
HETATM   16  H   UNL     1      68.731   6.920   4.035  1.00  0.00     0.274 HD
HETATM   17  H   UNL     1      67.319   7.102   3.170  1.00  0.00     0.274 HD
ENDBRANCH  13  14
ENDBRANCH   2  13
TORSDOF 3
ENDMDL
MODEL 4
REMARK VINA RESULT:      -4.2      3.038      6.254
REMARK  3 active torsions:
REMARK  status: ('A' for Active; 'I' for Inactive)
REMARK    1  A    between atoms: C_1  and  N_2 
REMARK    2  A    between atoms: C_3  and  C_6 
REMARK    3  A    between atoms: C_6  and  N_7 
ROOT
HETATM    1  C   UNL     1      65.912   6.744   6.750  1.00  0.00     0.111 A 
HETATM    2  C   UNL     1      66.962   5.953   6.244  1.00  0.00     0.011 A 
HETATM    3  N   UNL     1      65.808   7.008   8.078  1.00  0.00    -0.352 N 
ATOM      4  HN  UNL     1      65.031   7.562   8.439  1.00  0.00     0.166 HD
HETATM    5  C   UNL     1      67.935   5.486   7.142  1.00  0.00     0.014 A 
HETATM    6  C   UNL     1      66.753   6.522   8.911  1.00  0.00     0.089 A 
HETATM    7  C   UNL     1      67.827   5.764   8.497  1.00  0.00     0.018 A 
ENDROOT
BRANCH   1   8
HETATM    8  N   UNL     1      64.892   7.187   5.928  1.00  0.00    -0.367 N 
HETATM    9  C   UNL     1      63.516   6.861   6.270  1.00  0.00     0.124 C 
HETATM   10  C   UNL     1      62.821   7.324   4.995  1.00  0.00     0.021 C 
HETATM   11  C   UNL     1      63.531   8.639   4.672  1.00  0.00     0.021 C 
HETATM   12  C   UNL     1      64.905   8.530   5.355  1.00  0.00     0.124 C 
ENDBRANCH   1   8
BRANCH   2  13
HETATM   13  C   UNL     1      67.052   5.624   4.771  1.00  0.00     0.271 C 
BRANCH  13  14
HETATM   14  N   UNL     1      67.589   6.680   3.909  1.00  0.00    -0.075 N 
HETATM   15  H   UNL     1      67.967   7.431   4.487  1.00  0.00     0.274 HD
HETATM   16  H   UNL     1      66.843   7.049   3.318  1.00  0.00     0.274 HD
HETATM   17  H   UNL     1      68.329   6.297   3.322  1.00  0.00     0.274 HD
ENDBRANCH  13  14
ENDBRANCH   2  13
TORSDOF 3
ENDMDL
MODEL 5
REMARK VINA RESULT:      -4.2      1.725      2.389
REMARK  3 active torsions:
REMARK  status: ('A' for Active; 'I' for Inactive)
REMARK    1  A    between atoms: C_1  and  N_2 
REMARK    2  A    between atoms: C_3  and  C_6 
REMARK    3  A    between atoms: C_6  and  N_7 
ROOT
HETATM    1  C   UNL     1      63.006   7.887   2.832  1.00  0.00     0.111 A 
HETATM    2  C   UNL     1      62.319   9.048   2.425  1.00  0.00     0.011 A 
HETATM    3  N   UNL     1      63.194   6.847   1.981  1.00  0.00    -0.352 N 
ATOM      4  HN  UNL     1      63.671   6.001   2.290  1.00  0.00     0.166 HD
HETATM    5  C   UNL     1      61.878   9.127   1.095  1.00  0.00     0.014 A 
HETATM    6  C   UNL     1      62.734   6.955   0.714  1.00  0.00     0.089 A 
HETATM    7  C   UNL     1      62.078   8.064   0.227  1.00  0.00     0.018 A 
ENDROOT
BRANCH   1   8
HETATM    8  N   UNL     1      63.415   7.723   4.142  1.00  0.00    -0.367 N 
HETATM    9  C   UNL     1      62.838   6.648   4.935  1.00  0.00     0.124 C 
HETATM   10  C   UNL     1      63.387   7.020   6.307  1.00  0.00     0.021 C 
HETATM   11  C   UNL     1      64.828   7.431   6.002  1.00  0.00     0.021 C 
HETATM   12  C   UNL     1      64.819   7.855   4.524  1.00  0.00     0.124 C 
ENDBRANCH   1   8
BRANCH   2  13
HETATM   13  C   UNL     1      62.072  10.187   3.388  1.00  0.00     0.271 C 
BRANCH  13  14
HETATM   14  N   UNL     1      61.675  11.462   2.785  1.00  0.00    -0.075 N 
HETATM   15  H   UNL     1      61.119  11.996   3.453  1.00  0.00     0.274 HD
HETATM   16  H   UNL     1      61.122  11.284   1.947  1.00  0.00     0.274 HD
HETATM   17  H   UNL     1      62.509  11.994   2.535  1.00  0.00     0.274 HD
ENDBRANCH  13  14
ENDBRANCH   2  13
TORSDOF 3
ENDMDL
MODEL 6
REMARK VINA RESULT:      -4.0      1.436      3.219
REMARK  3 active torsions:
REMARK  status: ('A' for Active; 'I' for Inactive)
REMARK    1  A    between atoms: C_1  and  N_2 
REMARK    2  A    between atoms: C_3  and  C_6 
REMARK    3  A    between atoms: C_6  and  N_7 
ROOT
HETATM    1  C   UNL     1      62.411   9.068   3.372  1.00  0.00     0.111 A 
HETATM    2  C   UNL     1      62.163   9.434   2.034  1.00  0.00     0.011 A 
HETATM    3  N   UNL     1      62.384   9.988   4.369  1.00  0.00    -0.352 N 
ATOM      4  HN  UNL     1      62.588   9.718   5.331  1.00  0.00     0.166 HD
HETATM    5  C   UNL     1      61.832  10.771   1.762  1.00  0.00     0.014 A 
HETATM    6  C   UNL     1      62.082  11.268   4.061  1.00  0.00     0.089 A 
HETATM    7  C   UNL     1      61.799  11.707   2.786  1.00  0.00     0.018 A 
ENDROOT
BRANCH   1   8
HETATM    8  N   UNL     1      62.798   7.781   3.699  1.00  0.00    -0.367 N 
HETATM    9  C   UNL     1      64.172   7.538   4.109  1.00  0.00     0.124 C 
HETATM   10  C   UNL     1      64.170   6.013   4.114  1.00  0.00     0.021 C 
HETATM   11  C   UNL     1      62.819   5.672   4.743  1.00  0.00     0.021 C 
HETATM   12  C   UNL     1      61.934   6.903   4.484  1.00  0.00     0.124 C 
ENDBRANCH   1   8
BRANCH   2  13
HETATM   13  C   UNL     1      62.237   8.416   0.919  1.00  0.00     0.271 C 
BRANCH  13  14
HETATM   14  N   UNL     1      60.953   7.970   0.371  1.00  0.00    -0.075 N 
HETATM   15  H   UNL     1      61.114   7.238  -0.320  1.00  0.00     0.274 HD
HETATM   16  H   UNL     1      60.481   8.759  -0.072  1.00  0.00     0.274 HD
HETATM   17  H   UNL     1      60.371   7.605   1.124  1.00  0.00     0.274 HD
ENDBRANCH  13  14
ENDBRANCH   2  13
TORSDOF 3
ENDMDL
MODEL 7
REMARK VINA RESULT:      -3.9      1.613      4.951
REMARK  3 active torsions:
REMARK  status: ('A' for Active; 'I' for Inactive)
REMARK    1  A    between atoms: C_1  and  N_2 
REMARK    2  A    between atoms: C_3  and  C_6 
REMARK    3  A    between atoms: C_6  and  N_7 
ROOT
HETATM    1  C   UNL     1      64.236   7.884   5.451  1.00  0.00     0.111 A 
HETATM    2  C   UNL     1      63.945   6.666   6.097  1.00  0.00     0.011 A 
HETATM    3  N   UNL     1      65.395   8.548   5.693  1.00  0.00    -0.352 N 
ATOM      4  HN  UNL     1      65.588   9.441   5.239  1.00  0.00     0.166 HD
HETATM    5  C   UNL     1      64.909   6.125   6.961  1.00  0.00     0.014 A 
HETATM    6  C   UNL     1      66.288   8.003   6.549  1.00  0.00     0.089 A 
HETATM    7  C   UNL     1      66.095   6.804   7.201  1.00  0.00     0.018 A 
ENDROOT
BRANCH   1   8
HETATM    8  N   UNL     1      63.306   8.498   4.633  1.00  0.00    -0.367 N 
HETATM    9  C   UNL     1      62.992   9.903   4.848  1.00  0.00     0.124 C 
HETATM   10  C   UNL     1      61.794  10.042   3.917  1.00  0.00     0.021 C 
HETATM   11  C   UNL     1      62.222   9.247   2.682  1.00  0.00     0.021 C 
HETATM   12  C   UNL     1      63.274   8.248   3.195  1.00  0.00     0.124 C 
ENDBRANCH   1   8
BRANCH   2  13
HETATM   13  C   UNL     1      62.634   5.950   5.859  1.00  0.00     0.271 C 
BRANCH  13  14
HETATM   14  N   UNL     1      61.488   6.437   6.631  1.00  0.00    -0.075 N 
HETATM   15  H   UNL     1      61.075   5.663   7.151  1.00  0.00     0.274 HD
HETATM   16  H   UNL     1      60.793   6.830   5.997  1.00  0.00     0.274 HD
HETATM   17  H   UNL     1      61.798   7.158   7.283  1.00  0.00     0.274 HD
ENDBRANCH  13  14
ENDBRANCH   2  13
TORSDOF 3
ENDMDL
MODEL 8
REMARK VINA RESULT:      -3.9      2.037      4.162
REMARK  3 active torsions:
REMARK  status: ('A' for Active; 'I' for Inactive)
REMARK    1  A    between atoms: C_1  and  N_2 
REMARK    2  A    between atoms: C_3  and  C_6 
REMARK    3  A    between atoms: C_6  and  N_7 
ROOT
HETATM    1  C   UNL     1      62.039   9.066   3.237  1.00  0.00     0.111 A 
HETATM    2  C   UNL     1      63.043   8.523   4.063  1.00  0.00     0.011 A 
HETATM    3  N   UNL     1      61.582  10.330   3.425  1.00  0.00    -0.352 N 
ATOM      4  HN  UNL     1      60.838  10.707   2.837  1.00  0.00     0.166 HD
HETATM    5  C   UNL     1      63.600   9.342   5.057  1.00  0.00     0.014 A 
HETATM    6  C   UNL     1      62.131  11.078   4.407  1.00  0.00     0.089 A 
HETATM    7  C   UNL     1      63.134  10.636   5.241  1.00  0.00     0.018 A 
ENDROOT
BRANCH   1   8
HETATM    8  N   UNL     1      61.409   8.294   2.278  1.00  0.00    -0.367 N 
HETATM    9  C   UNL     1      60.114   7.705   2.582  1.00  0.00     0.124 C 
HETATM   10  C   UNL     1      59.962   6.787   1.374  1.00  0.00     0.021 C 
HETATM   11  C   UNL     1      60.468   7.651   0.219  1.00  0.00     0.021 C 
HETATM   12  C   UNL     1      61.404   8.683   0.870  1.00  0.00     0.124 C 
ENDBRANCH   1   8
BRANCH   2  13
HETATM   13  C   UNL     1      63.519   7.100   3.880  1.00  0.00     0.271 C 
BRANCH  13  14
HETATM   14  N   UNL     1      62.852   6.089   4.704  1.00  0.00    -0.075 N 
HETATM   15  H   UNL     1      63.333   5.196   4.603  1.00  0.00     0.274 HD
HETATM   16  H   UNL     1      61.883   5.989   4.402  1.00  0.00     0.274 HD
HETATM   17  H   UNL     1      62.874   6.378   5.682  1.00  0.00     0.274 HD
ENDBRANCH  13  14
ENDBRANCH   2  13
TORSDOF 3
ENDMDL
MODEL 9
REMARK VINA RESULT:      -3.8      1.981      2.777
REMARK  3 active torsions:
REMARK  status: ('A' for Active; 'I' for Inactive)
REMARK    1  A    between atoms: C_1  and  N_2 
REMARK    2  A    between atoms: C_3  and  C_6 
REMARK    3  A    between atoms: C_6  and  N_7 
ROOT
HETATM    1  C   UNL     1      62.052   9.008   2.993  1.00  0.00     0.111 A 
HETATM    2  C   UNL     1      62.441   9.477   4.263  1.00  0.00     0.011 A 
HETATM    3  N   UNL     1      61.596   9.858   2.038  1.00  0.00    -0.352 N 
ATOM      4  HN  UNL     1      61.294   9.507   1.130  1.00  0.00     0.166 HD
HETATM    5  C   UNL     1      62.397  10.859   4.502  1.00  0.00     0.014 A 
HETATM    6  C   UNL     1      61.550  11.180   2.317  1.00  0.00     0.089 A 
HETATM    7  C   UNL     1      61.937  11.726   3.522  1.00  0.00     0.018 A 
ENDROOT
BRANCH   1   8
HETATM    8  N   UNL     1      62.018   7.654   2.712  1.00  0.00    -0.367 N 
HETATM    9  C   UNL     1      60.739   6.960   2.729  1.00  0.00     0.124 C 
HETATM   10  C   UNL     1      61.229   5.521   2.618  1.00  0.00     0.021 C 
HETATM   11  C   UNL     1      62.349   5.617   1.581  1.00  0.00     0.021 C 
HETATM   12  C   UNL     1      62.825   7.078   1.640  1.00  0.00     0.124 C 
ENDBRANCH   1   8
BRANCH   2  13
HETATM   13  C   UNL     1      62.907   8.522   5.339  1.00  0.00     0.271 C 
BRANCH  13  14
HETATM   14  N   UNL     1      64.320   8.619   5.714  1.00  0.00    -0.075 N 
HETATM   15  H   UNL     1      64.581   7.805   6.270  1.00  0.00     0.274 HD
HETATM   16  H   UNL     1      64.469   9.467   6.262  1.00  0.00     0.274 HD
HETATM   17  H   UNL     1      64.894   8.655   4.872  1.00  0.00     0.274 HD
ENDBRANCH  13  14
ENDBRANCH   2  13
TORSDOF 3
ENDMDL
