MODEL 1
REMARK VINA RESULT:      -5.0      0.000      0.000
REMARK  3 active torsions:
REMARK  status: ('A' for Active; 'I' for Inactive)
REMARK    1  A    between atoms: N_3  and  C_7 
REMARK    2  A    between atoms: C_7  and  C_8 
REMARK    3  A    between atoms: C_9  and  N_10 
ROOT
HETATM    1  C   UNL     1      62.599   8.381   3.433  1.00  0.00    -0.040 A 
HETATM    2  C   UNL     1      61.872  10.894   2.355  1.00  0.00     0.025 A 
HETATM    3  C   UNL     1      62.115   9.802   1.520  1.00  0.00     0.029 A 
HETATM    4  C   UNL     1      62.031  10.727   3.731  1.00  0.00     0.029 A 
HETATM    5  C   UNL     1      62.452   8.551   2.050  1.00  0.00     0.011 A 
HETATM    6  C   UNL     1      62.374   9.481   4.270  1.00  0.00     0.011 A 
ENDROOT
BRANCH   1   7
HETATM    7  C   UNL     1      63.072   7.066   3.998  1.00  0.00     0.167 C 
BRANCH   7   8
HETATM    8  N   UNL     1      64.091   7.263   5.019  1.00  0.00    -0.347 N 
HETATM    9  C   UNL     1      63.971   6.936   6.340  1.00  0.00     0.182 A 
HETATM   10  N   UNL     1      65.061   7.237   7.010  1.00  0.00    -0.361 N 
HETATM   11  C   UNL     1      65.919   7.769   6.081  1.00  0.00     0.106 A 
ATOM     12  HN  UNL     1      65.232   7.104   8.007  1.00  0.00     0.166 HD
HETATM   13  C   UNL     1      65.345   7.771   4.831  1.00  0.00     0.109 A 
ENDBRANCH   7   8
ENDBRANCH   1   7
BRANCH   2  14
HETATM   14  N   UNL     1      61.722  12.175   1.813  1.00  0.00    -0.399 N 
HETATM   15  H   UNL     1      61.067  12.332   1.095  1.00  0.00     0.156 HD
HETATM   16  H   UNL     1      62.271  12.919   2.149  1.00  0.00     0.156 HD
ENDBRANCH   2  14
TORSDOF 3
ENDMDL
MODEL 2
REMARK VINA RESULT:      -5.0      1.327      1.650
REMARK  3 active torsions:
REMARK  status: ('A' for Active; 'I' for Inactive)
REMARK    1  A    between atoms: N_3  and  C_7 
REMARK    2  A    between atoms: C_7  and  C_8 
REMARK    3  A    between atoms: C_9  and  N_10 
ROOT
HETATM    1  C   UNL     1      63.260   8.451   4.766  1.00  0.00    -0.040 A 
HETATM    2  C   UNL     1      62.029  10.470   3.213  1.00  0.00     0.025 A 
HETATM    3  C   UNL     1      62.268   9.204   2.677  1.00  0.00     0.029 A 
HETATM    4  C   UNL     1      62.444  10.729   4.520  1.00  0.00     0.029 A 
HETATM    5  C   UNL     1      62.855   8.195   3.449  1.00  0.00     0.011 A 
HETATM    6  C   UNL     1      63.038   9.728   5.298  1.00  0.00     0.011 A 
ENDROOT
BRANCH   1   7
HETATM    7  C   UNL     1      63.994   7.402   5.560  1.00  0.00     0.167 C 
BRANCH   7   8
HETATM    8  N   UNL     1      65.437   7.574   5.460  1.00  0.00    -0.347 N 
HETATM    9  C   UNL     1      66.251   8.072   6.438  1.00  0.00     0.182 A 
HETATM   10  N   UNL     1      67.506   8.106   6.047  1.00  0.00    -0.361 N 
HETATM   11  C   UNL     1      67.499   7.601   4.772  1.00  0.00     0.106 A 
ATOM     12  HN  UNL     1      68.311   8.437   6.578  1.00  0.00     0.166 HD
HETATM   13  C   UNL     1      66.225   7.240   4.397  1.00  0.00     0.109 A 
ENDBRANCH   7   8
ENDBRANCH   1   7
BRANCH   2  14
HETATM   14  N   UNL     1      61.618  11.519   2.383  1.00  0.00    -0.399 N 
HETATM   15  H   UNL     1      61.905  11.545   1.443  1.00  0.00     0.156 HD
HETATM   16  H   UNL     1      61.040  12.232   2.740  1.00  0.00     0.156 HD
ENDBRANCH   2  14
TORSDOF 3
ENDMDL
MODEL 3
REMARK VINA RESULT:      -4.5      1.723      5.160
REMARK  3 active torsions:
REMARK  status: ('A' for Active; 'I' for Inactive)
REMARK    1  A    between atoms: N_3  and  C_7 
REMARK    2  A    between atoms: C_7  and  C_8 
REMARK    3  A    between atoms: C_9  and  N_10 
ROOT
HETATM    1  C   UNL     1      63.577   7.754   4.310  1.00  0.00    -0.040 A 
HETATM    2  C   UNL     1      66.315   7.043   4.392  1.00  0.00     0.025 A 
HETATM    3  C   UNL     1      65.836   8.127   5.130  1.00  0.00     0.029 A 
HETATM    4  C   UNL     1      65.419   6.340   3.585  1.00  0.00     0.029 A 
HETATM    5  C   UNL     1      64.479   8.468   5.110  1.00  0.00     0.011 A 
HETATM    6  C   UNL     1      64.060   6.678   3.554  1.00  0.00     0.011 A 
ENDROOT
BRANCH   1   7
HETATM    7  C   UNL     1      62.139   8.190   4.199  1.00  0.00     0.167 C 
BRANCH   7   8
HETATM    8  N   UNL     1      62.012   9.405   3.407  1.00  0.00    -0.347 N 
HETATM    9  C   UNL     1      61.851  10.668   3.902  1.00  0.00     0.182 A 
HETATM   10  N   UNL     1      61.765  11.555   2.936  1.00  0.00    -0.361 N 
HETATM   11  C   UNL     1      61.885  10.835   1.774  1.00  0.00     0.106 A 
ATOM     12  HN  UNL     1      61.636  12.563   3.029  1.00  0.00     0.166 HD
HETATM   13  C   UNL     1      62.065   9.498   2.045  1.00  0.00     0.109 A 
ENDBRANCH   7   8
ENDBRANCH   1   7
BRANCH   2  14
HETATM   14  N   UNL     1      67.692   6.827   4.271  1.00  0.00    -0.399 N 
HETATM   15  H   UNL     1      68.178   6.340   4.974  1.00  0.00     0.156 HD
HETATM   16  H   UNL     1      68.174   7.162   3.481  1.00  0.00     0.156 HD
ENDBRANCH   2  14
TORSDOF 3
ENDMDL
MODEL 4
REMARK VINA RESULT:      -4.5      1.604      2.379
REMARK  3 active torsions:
REMARK  status: ('A' for Active; 'I' for Inactive)
REMARK    1  A    between atoms: N_3  and  C_7 
REMARK    2  A    between atoms: C_7  and  C_8 
REMARK    3  A    between atoms: C_9  and  N_10 
ROOT
HETATM    1  C   UNL     1      64.495   7.726   4.338  1.00  0.00    -0.040 A 
HETATM    2  C   UNL     1      62.212   9.271   3.702  1.00  0.00     0.025 A 
HETATM    3  C   UNL     1      62.529   8.130   2.964  1.00  0.00     0.029 A 
HETATM    4  C   UNL     1      63.067   9.653   4.737  1.00  0.00     0.029 A 
HETATM    5  C   UNL     1      63.645   7.350   3.289  1.00  0.00     0.011 A 
HETATM    6  C   UNL     1      64.189   8.882   5.065  1.00  0.00     0.011 A 
ENDROOT
BRANCH   1   7
HETATM    7  C   UNL     1      65.757   6.951   4.616  1.00  0.00     0.167 C 
BRANCH   7   8
HETATM    8  N   UNL     1      66.060   6.922   6.040  1.00  0.00    -0.347 N 
HETATM    9  C   UNL     1      67.036   7.648   6.663  1.00  0.00     0.182 A 
HETATM   10  N   UNL     1      67.064   7.404   7.955  1.00  0.00    -0.361 N 
HETATM   11  C   UNL     1      66.060   6.494   8.171  1.00  0.00     0.106 A 
ATOM     12  HN  UNL     1      67.696   7.805   8.648  1.00  0.00     0.166 HD
HETATM   13  C   UNL     1      65.406   6.200   6.997  1.00  0.00     0.109 A 
ENDBRANCH   7   8
ENDBRANCH   1   7
BRANCH   2  14
HETATM   14  N   UNL     1      61.212  10.142   3.256  1.00  0.00    -0.399 N 
HETATM   15  H   UNL     1      60.291  10.047   3.589  1.00  0.00     0.156 HD
HETATM   16  H   UNL     1      61.430  10.851   2.609  1.00  0.00     0.156 HD
ENDBRANCH   2  14
TORSDOF 3
ENDMDL
MODEL 5
REMARK VINA RESULT:      -4.4      2.837      4.287
REMARK  3 active torsions:
REMARK  status: ('A' for Active; 'I' for Inactive)
REMARK    1  A    between atoms: N_3  and  C_7 
REMARK    2  A    between atoms: C_7  and  C_8 
REMARK    3  A    between atoms: C_9  and  N_10 
ROOT
HETATM    1  C   UNL     1      62.303   9.103   3.126  1.00  0.00    -0.040 A 
HETATM    2  C   UNL     1      63.194  10.715   5.274  1.00  0.00     0.025 A 
HETATM    3  C   UNL     1      63.655   9.406   5.125  1.00  0.00     0.029 A 
HETATM    4  C   UNL     1      62.256  11.198   4.360  1.00  0.00     0.029 A 
HETATM    5  C   UNL     1      63.234   8.613   4.051  1.00  0.00     0.011 A 
HETATM    6  C   UNL     1      61.824  10.409   3.287  1.00  0.00     0.011 A 
ENDROOT
BRANCH   1   7
HETATM    7  C   UNL     1      61.764   8.212   2.037  1.00  0.00     0.167 C 
BRANCH   7   8
HETATM    8  N   UNL     1      60.850   7.212   2.572  1.00  0.00    -0.347 N 
HETATM    9  C   UNL     1      59.589   7.453   3.039  1.00  0.00     0.182 A 
HETATM   10  N   UNL     1      59.013   6.347   3.458  1.00  0.00    -0.361 N 
HETATM   11  C   UNL     1      59.937   5.357   3.242  1.00  0.00     0.106 A 
ATOM     12  HN  UNL     1      58.080   6.247   3.857  1.00  0.00     0.166 HD
HETATM   13  C   UNL     1      61.078   5.869   2.668  1.00  0.00     0.109 A 
ENDBRANCH   7   8
ENDBRANCH   1   7
BRANCH   2  14
HETATM   14  N   UNL     1      63.471  11.430   6.444  1.00  0.00    -0.399 N 
HETATM   15  H   UNL     1      64.209  12.081   6.461  1.00  0.00     0.156 HD
HETATM   16  H   UNL     1      62.927  11.282   7.251  1.00  0.00     0.156 HD
ENDBRANCH   2  14
TORSDOF 3
ENDMDL
MODEL 6
REMARK VINA RESULT:      -4.3      1.611      5.412
REMARK  3 active torsions:
REMARK  status: ('A' for Active; 'I' for Inactive)
REMARK    1  A    between atoms: N_3  and  C_7 
REMARK    2  A    between atoms: C_7  and  C_8 
REMARK    3  A    between atoms: C_9  and  N_10 
ROOT
HETATM    1  C   UNL     1      64.652   7.393   5.075  1.00  0.00    -0.040 A 
HETATM    2  C   UNL     1      66.518   7.192   7.193  1.00  0.00     0.025 A 
HETATM    3  C   UNL     1      65.257   6.601   7.293  1.00  0.00     0.029 A 
HETATM    4  C   UNL     1      66.823   7.915   6.039  1.00  0.00     0.029 A 
HETATM    5  C   UNL     1      64.340   6.678   6.239  1.00  0.00     0.011 A 
HETATM    6  C   UNL     1      65.909   8.004   4.982  1.00  0.00     0.011 A 
ENDROOT
BRANCH   1   7
HETATM    7  C   UNL     1      63.624   7.573   3.988  1.00  0.00     0.167 C 
BRANCH   7   8
HETATM    8  N   UNL     1      63.025   8.899   4.038  1.00  0.00    -0.347 N 
HETATM    9  C   UNL     1      63.094   9.767   5.091  1.00  0.00     0.182 A 
HETATM   10  N   UNL     1      62.452  10.886   4.835  1.00  0.00    -0.361 N 
HETATM   11  C   UNL     1      61.959  10.734   3.564  1.00  0.00     0.106 A 
ATOM     12  HN  UNL     1      62.344  11.693   5.450  1.00  0.00     0.166 HD
HETATM   13  C   UNL     1      62.325   9.515   3.040  1.00  0.00     0.109 A 
ENDBRANCH   7   8
ENDBRANCH   1   7
BRANCH   2  14
HETATM   14  N   UNL     1      67.350   7.270   8.314  1.00  0.00    -0.399 N 
HETATM   15  H   UNL     1      67.086   6.833   9.156  1.00  0.00     0.156 HD
HETATM   16  H   UNL     1      68.201   7.763   8.262  1.00  0.00     0.156 HD
ENDBRANCH   2  14
TORSDOF 3
ENDMDL
MODEL 7
REMARK VINA RESULT:      -4.0      2.657      4.185
REMARK  3 active torsions:
REMARK  status: ('A' for Active; 'I' for Inactive)
REMARK    1  A    between atoms: N_3  and  C_7 
REMARK    2  A    between atoms: C_7  and  C_8 
REMARK    3  A    between atoms: C_9  and  N_10 
ROOT
HETATM    1  C   UNL     1      61.799   8.643   3.550  1.00  0.00    -0.040 A 
HETATM    2  C   UNL     1      63.181  10.474   5.207  1.00  0.00     0.025 A 
HETATM    3  C   UNL     1      63.410   9.102   5.314  1.00  0.00     0.029 A 
HETATM    4  C   UNL     1      62.228  10.920   4.290  1.00  0.00     0.029 A 
HETATM    5  C   UNL     1      62.746   8.194   4.480  1.00  0.00     0.011 A 
HETATM    6  C   UNL     1      61.553  10.019   3.457  1.00  0.00     0.011 A 
ENDROOT
BRANCH   1   7
HETATM    7  C   UNL     1      61.002   7.660   2.733  1.00  0.00     0.167 C 
BRANCH   7   8
HETATM    8  N   UNL     1      61.864   6.863   1.872  1.00  0.00    -0.347 N 
HETATM    9  C   UNL     1      62.540   7.320   0.776  1.00  0.00     0.182 A 
HETATM   10  N   UNL     1      63.233   6.359   0.205  1.00  0.00    -0.361 N 
HETATM   11  C   UNL     1      63.001   5.245   0.970  1.00  0.00     0.106 A 
ATOM     12  HN  UNL     1      63.818   6.429  -0.628  1.00  0.00     0.166 HD
HETATM   13  C   UNL     1      62.172   5.542   2.027  1.00  0.00     0.109 A 
ENDBRANCH   7   8
ENDBRANCH   1   7
BRANCH   2  14
HETATM   14  N   UNL     1      63.703  11.352   6.163  1.00  0.00    -0.399 N 
HETATM   15  H   UNL     1      63.901  12.285   5.920  1.00  0.00     0.156 HD
HETATM   16  H   UNL     1      63.873  11.036   7.080  1.00  0.00     0.156 HD
ENDBRANCH   2  14
TORSDOF 3
ENDMDL
MODEL 8
REMARK VINA RESULT:      -3.8      2.440      4.909
REMARK  3 active torsions:
REMARK  status: ('A' for Active; 'I' for Inactive)
REMARK    1  A    between atoms: N_3  and  C_7 
REMARK    2  A    between atoms: C_7  and  C_8 
REMARK    3  A    between atoms: C_9  and  N_10 
ROOT
HETATM    1  C   UNL     1      63.561   7.453   3.346  1.00  0.00    -0.040 A 
HETATM    2  C   UNL     1      65.381   8.152   5.397  1.00  0.00     0.025 A 
HETATM    3  C   UNL     1      65.513   6.946   4.706  1.00  0.00     0.029 A 
HETATM    4  C   UNL     1      64.309   8.987   5.078  1.00  0.00     0.029 A 
HETATM    5  C   UNL     1      64.629   6.607   3.675  1.00  0.00     0.011 A 
HETATM    6  C   UNL     1      63.415   8.653   4.053  1.00  0.00     0.011 A 
ENDROOT
BRANCH   1   7
HETATM    7  C   UNL     1      62.543   7.036   2.316  1.00  0.00     0.167 C 
BRANCH   7   8
HETATM    8  N   UNL     1      61.185   7.190   2.818  1.00  0.00    -0.347 N 
HETATM    9  C   UNL     1      60.231   8.018   2.297  1.00  0.00     0.182 A 
HETATM   10  N   UNL     1      59.105   7.936   2.971  1.00  0.00    -0.361 N 
HETATM   11  C   UNL     1      59.342   7.013   3.957  1.00  0.00     0.106 A 
ATOM     12  HN  UNL     1      58.240   8.450   2.798  1.00  0.00     0.166 HD
HETATM   13  C   UNL     1      60.623   6.518   3.864  1.00  0.00     0.109 A 
ENDBRANCH   7   8
ENDBRANCH   1   7
BRANCH   2  14
HETATM   14  N   UNL     1      66.147   8.394   6.542  1.00  0.00    -0.399 N 
HETATM   15  H   UNL     1      65.998   7.863   7.357  1.00  0.00     0.156 HD
HETATM   16  H   UNL     1      66.837   9.097   6.533  1.00  0.00     0.156 HD
ENDBRANCH   2  14
TORSDOF 3
ENDMDL
MODEL 9
REMARK VINA RESULT:      -3.8     12.209     13.078
REMARK  3 active torsions:
REMARK  status: ('A' for Active; 'I' for Inactive)
REMARK    1  A    between atoms: N_3  and  C_7 
REMARK    2  A    between atoms: C_7  and  C_8 
REMARK    3  A    between atoms: C_9  and  N_10 
ROOT
HETATM    1  C   UNL     1      60.376  -0.642  12.712  1.00  0.00    -0.040 A 
HETATM    2  C   UNL     1      58.467   0.996  14.008  1.00  0.00     0.025 A 
HETATM    3  C   UNL     1      58.454  -0.389  14.181  1.00  0.00     0.029 A 
HETATM    4  C   UNL     1      59.421   1.551  13.153  1.00  0.00     0.029 A 
HETATM    5  C   UNL     1      59.411  -1.201  13.560  1.00  0.00     0.011 A 
HETATM    6  C   UNL     1      60.378   0.746  12.523  1.00  0.00     0.011 A 
ENDROOT
BRANCH   1   7
HETATM    7  C   UNL     1      61.334  -1.525  11.955  1.00  0.00     0.167 C 
BRANCH   7   8
HETATM    8  N   UNL     1      62.703  -1.042  12.067  1.00  0.00    -0.347 N 
HETATM    9  C   UNL     1      63.429  -0.962  13.223  1.00  0.00     0.182 A 
HETATM   10  N   UNL     1      64.633  -0.484  13.001  1.00  0.00    -0.361 N 
HETATM   11  C   UNL     1      64.687  -0.257  11.649  1.00  0.00     0.106 A 
ATOM     12  HN  UNL     1      65.370  -0.317  13.687  1.00  0.00     0.166 HD
HETATM   13  C   UNL     1      63.505  -0.622  11.046  1.00  0.00     0.109 A 
ENDBRANCH   7   8
ENDBRANCH   1   7
BRANCH   2  14
HETATM   14  N   UNL     1      57.403   1.773  14.476  1.00  0.00    -0.399 N 
HETATM   15  H   UNL     1      56.972   2.428  13.881  1.00  0.00     0.156 HD
HETATM   16  H   UNL     1      57.084   1.666  15.401  1.00  0.00     0.156 HD
ENDBRANCH   2  14
TORSDOF 3
ENDMDL
