MODEL 1
REMARK VINA RESULT:      -5.1      0.000      0.000
REMARK  3 active torsions:
REMARK  status: ('A' for Active; 'I' for Inactive)
REMARK    1  A    between atoms: N_3  and  C_7 
REMARK    2  A    between atoms: C_7  and  C_8 
REMARK    3  A    between atoms: C_10  and  N_11 
ROOT
HETATM    1  C   UNL     1      63.920   8.316   4.305  1.00  0.00    -0.038 A 
HETATM    2  C   UNL     1      63.977   9.354   5.249  1.00  0.00     0.037 A 
HETATM    3  C   UNL     1      63.067  10.416   5.213  1.00  0.00     0.026 A 
HETATM    4  C   UNL     1      62.132   9.495   3.174  1.00  0.00     0.003 A 
HETATM    5  C   UNL     1      62.987   8.398   3.263  1.00  0.00     0.009 A 
HETATM    6  C   UNL     1      62.181  10.502   4.139  1.00  0.00     0.029 A 
ENDROOT
BRANCH   1   7
HETATM    7  C   UNL     1      64.823   7.118   4.438  1.00  0.00     0.167 C 
BRANCH   7   8
HETATM    8  N   UNL     1      65.523   7.124   5.714  1.00  0.00    -0.347 N 
HETATM    9  C   UNL     1      66.753   7.670   5.949  1.00  0.00     0.182 A 
HETATM   10  N   UNL     1      67.147   7.451   7.181  1.00  0.00    -0.361 N 
HETATM   11  C   UNL     1      66.129   6.751   7.771  1.00  0.00     0.106 A 
ATOM     12  HN  UNL     1      68.027   7.741   7.609  1.00  0.00     0.166 HD
HETATM   13  C   UNL     1      65.105   6.540   6.877  1.00  0.00     0.109 A 
ENDBRANCH   7   8
ENDBRANCH   1   7
BRANCH   3  14
HETATM   14  N   UNL     1      63.195  11.480   6.115  1.00  0.00    -0.399 N 
HETATM   15  H   UNL     1      64.045  11.622   6.592  1.00  0.00     0.156 HD
HETATM   16  H   UNL     1      62.436  12.086   6.272  1.00  0.00     0.156 HD
ENDBRANCH   3  14
TORSDOF 3
ENDMDL
MODEL 2
REMARK VINA RESULT:      -5.0      1.723      2.497
REMARK  3 active torsions:
REMARK  status: ('A' for Active; 'I' for Inactive)
REMARK    1  A    between atoms: N_3  and  C_7 
REMARK    2  A    between atoms: C_7  and  C_8 
REMARK    3  A    between atoms: C_10  and  N_11 
ROOT
HETATM    1  C   UNL     1      62.557   8.752   3.955  1.00  0.00    -0.038 A 
HETATM    2  C   UNL     1      62.188  10.075   3.662  1.00  0.00     0.037 A 
HETATM    3  C   UNL     1      61.864  10.464   2.358  1.00  0.00     0.026 A 
HETATM    4  C   UNL     1      62.440   8.236   1.591  1.00  0.00     0.003 A 
HETATM    5  C   UNL     1      62.682   7.834   2.904  1.00  0.00     0.009 A 
HETATM    6  C   UNL     1      62.044   9.547   1.321  1.00  0.00     0.029 A 
ENDROOT
BRANCH   1   7
HETATM    7  C   UNL     1      62.775   8.323   5.383  1.00  0.00     0.167 C 
BRANCH   7   8
HETATM    8  N   UNL     1      64.120   7.805   5.578  1.00  0.00    -0.347 N 
HETATM    9  C   UNL     1      64.439   6.565   6.055  1.00  0.00     0.182 A 
HETATM   10  N   UNL     1      65.736   6.420   6.186  1.00  0.00    -0.361 N 
HETATM   11  C   UNL     1      66.279   7.604   5.764  1.00  0.00     0.106 A 
ATOM     12  HN  UNL     1      66.235   5.599   6.530  1.00  0.00     0.166 HD
HETATM   13  C   UNL     1      65.292   8.480   5.376  1.00  0.00     0.109 A 
ENDBRANCH   7   8
ENDBRANCH   1   7
BRANCH   3  14
HETATM   14  N   UNL     1      61.579  11.806   2.077  1.00  0.00    -0.399 N 
HETATM   15  H   UNL     1      61.591  12.474   2.800  1.00  0.00     0.156 HD
HETATM   16  H   UNL     1      61.366  12.082   1.156  1.00  0.00     0.156 HD
ENDBRANCH   3  14
TORSDOF 3
ENDMDL
MODEL 3
REMARK VINA RESULT:      -4.9      1.460      1.981
REMARK  3 active torsions:
REMARK  status: ('A' for Active; 'I' for Inactive)
REMARK    1  A    between atoms: N_3  and  C_7 
REMARK    2  A    between atoms: C_7  and  C_8 
REMARK    3  A    between atoms: C_10  and  N_11 
ROOT
HETATM    1  C   UNL     1      63.621   8.442   4.263  1.00  0.00    -0.038 A 
HETATM    2  C   UNL     1      62.825   8.610   3.117  1.00  0.00     0.037 A 
HETATM    3  C   UNL     1      62.099   9.787   2.907  1.00  0.00     0.026 A 
HETATM    4  C   UNL     1      62.825  10.579   5.081  1.00  0.00     0.003 A 
HETATM    5  C   UNL     1      63.612   9.440   5.246  1.00  0.00     0.009 A 
HETATM    6  C   UNL     1      62.065  10.744   3.922  1.00  0.00     0.029 A 
ENDROOT
BRANCH   1   7
HETATM    7  C   UNL     1      64.497   7.225   4.407  1.00  0.00     0.167 C 
BRANCH   7   8
HETATM    8  N   UNL     1      65.451   7.389   5.493  1.00  0.00    -0.347 N 
HETATM    9  C   UNL     1      66.660   8.020   5.407  1.00  0.00     0.182 A 
HETATM   10  N   UNL     1      67.325   7.940   6.535  1.00  0.00    -0.361 N 
HETATM   11  C   UNL     1      66.511   7.245   7.389  1.00  0.00     0.106 A 
ATOM     12  HN  UNL     1      68.252   8.316   6.734  1.00  0.00     0.166 HD
HETATM   13  C   UNL     1      65.337   6.895   6.763  1.00  0.00     0.109 A 
ENDBRANCH   7   8
ENDBRANCH   1   7
BRANCH   3  14
HETATM   14  N   UNL     1      61.249   9.898   1.798  1.00  0.00    -0.399 N 
HETATM   15  H   UNL     1      61.610  10.191   0.930  1.00  0.00     0.156 HD
HETATM   16  H   UNL     1      60.293   9.684   1.888  1.00  0.00     0.156 HD
ENDBRANCH   3  14
TORSDOF 3
ENDMDL
MODEL 4
REMARK VINA RESULT:      -4.7      2.793      3.579
REMARK  3 active torsions:
REMARK  status: ('A' for Active; 'I' for Inactive)
REMARK    1  A    between atoms: N_3  and  C_7 
REMARK    2  A    between atoms: C_7  and  C_8 
REMARK    3  A    between atoms: C_10  and  N_11 
ROOT
HETATM    1  C   UNL     1      62.575   8.619   4.187  1.00  0.00    -0.038 A 
HETATM    2  C   UNL     1      63.137   9.359   5.240  1.00  0.00     0.037 A 
HETATM    3  C   UNL     1      62.941  10.740   5.340  1.00  0.00     0.026 A 
HETATM    4  C   UNL     1      61.749  10.685   3.228  1.00  0.00     0.003 A 
HETATM    5  C   UNL     1      61.878   9.298   3.178  1.00  0.00     0.009 A 
HETATM    6  C   UNL     1      62.288  11.401   4.299  1.00  0.00     0.029 A 
ENDROOT
BRANCH   1   7
HETATM    7  C   UNL     1      62.688   7.117   4.168  1.00  0.00     0.167 C 
BRANCH   7   8
HETATM    8  N   UNL     1      61.712   6.504   5.056  1.00  0.00    -0.347 N 
HETATM    9  C   UNL     1      61.965   6.014   6.306  1.00  0.00     0.182 A 
HETATM   10  N   UNL     1      60.897   5.457   6.827  1.00  0.00    -0.361 N 
HETATM   11  C   UNL     1      59.913   5.605   5.887  1.00  0.00     0.106 A 
ATOM     12  HN  UNL     1      60.818   5.008   7.740  1.00  0.00     0.166 HD
HETATM   13  C   UNL     1      60.396   6.258   4.778  1.00  0.00     0.109 A 
ENDBRANCH   7   8
ENDBRANCH   1   7
BRANCH   3  14
HETATM   14  N   UNL     1      63.579  11.467   6.353  1.00  0.00    -0.399 N 
HETATM   15  H   UNL     1      63.172  12.297   6.694  1.00  0.00     0.156 HD
HETATM   16  H   UNL     1      64.433  11.150   6.723  1.00  0.00     0.156 HD
ENDBRANCH   3  14
TORSDOF 3
ENDMDL
MODEL 5
REMARK VINA RESULT:      -4.5      1.313      4.843
REMARK  3 active torsions:
REMARK  status: ('A' for Active; 'I' for Inactive)
REMARK    1  A    between atoms: N_3  and  C_7 
REMARK    2  A    between atoms: C_7  and  C_8 
REMARK    3  A    between atoms: C_10  and  N_11 
ROOT
HETATM    1  C   UNL     1      64.636   7.471   5.632  1.00  0.00    -0.038 A 
HETATM    2  C   UNL     1      65.324   7.305   6.845  1.00  0.00     0.037 A 
HETATM    3  C   UNL     1      66.718   7.195   6.878  1.00  0.00     0.026 A 
HETATM    4  C   UNL     1      66.742   7.249   4.454  1.00  0.00     0.003 A 
HETATM    5  C   UNL     1      65.361   7.441   4.433  1.00  0.00     0.009 A 
HETATM    6  C   UNL     1      67.412   7.117   5.671  1.00  0.00     0.029 A 
ENDROOT
BRANCH   1   7
HETATM    7  C   UNL     1      63.150   7.717   5.628  1.00  0.00     0.167 C 
BRANCH   7   8
HETATM    8  N   UNL     1      62.832   9.008   5.037  1.00  0.00    -0.347 N 
HETATM    9  C   UNL     1      63.125  10.229   5.576  1.00  0.00     0.182 A 
HETATM   10  N   UNL     1      62.644  11.205   4.843  1.00  0.00    -0.361 N 
HETATM   11  C   UNL     1      62.030  10.596   3.782  1.00  0.00     0.106 A 
ATOM     12  HN  UNL     1      62.714  12.206   5.026  1.00  0.00     0.166 HD
HETATM   13  C   UNL     1      62.138   9.228   3.880  1.00  0.00     0.109 A 
ENDBRANCH   7   8
ENDBRANCH   1   7
BRANCH   3  14
HETATM   14  N   UNL     1      67.373   6.949   8.092  1.00  0.00    -0.399 N 
HETATM   15  H   UNL     1      67.028   6.261   8.707  1.00  0.00     0.156 HD
HETATM   16  H   UNL     1      68.178   7.462   8.330  1.00  0.00     0.156 HD
ENDBRANCH   3  14
TORSDOF 3
ENDMDL
MODEL 6
REMARK VINA RESULT:      -4.3      1.702      2.285
REMARK  3 active torsions:
REMARK  status: ('A' for Active; 'I' for Inactive)
REMARK    1  A    between atoms: N_3  and  C_7 
REMARK    2  A    between atoms: C_7  and  C_8 
REMARK    3  A    between atoms: C_10  and  N_11 
ROOT
HETATM    1  C   UNL     1      64.208   7.771   4.316  1.00  0.00    -0.038 A 
HETATM    2  C   UNL     1      63.244   7.175   3.485  1.00  0.00     0.037 A 
HETATM    3  C   UNL     1      62.056   7.839   3.164  1.00  0.00     0.026 A 
HETATM    4  C   UNL     1      62.708   9.645   4.646  1.00  0.00     0.003 A 
HETATM    5  C   UNL     1      63.927   9.015   4.896  1.00  0.00     0.009 A 
HETATM    6  C   UNL     1      61.775   9.053   3.792  1.00  0.00     0.029 A 
ENDROOT
BRANCH   1   7
HETATM    7  C   UNL     1      65.535   7.097   4.544  1.00  0.00     0.167 C 
BRANCH   7   8
HETATM    8  N   UNL     1      65.878   7.073   5.958  1.00  0.00    -0.347 N 
HETATM    9  C   UNL     1      66.930   7.725   6.537  1.00  0.00     0.182 A 
HETATM   10  N   UNL     1      67.019   7.449   7.817  1.00  0.00    -0.361 N 
HETATM   11  C   UNL     1      65.978   6.600   8.079  1.00  0.00     0.106 A 
ATOM     12  HN  UNL     1      67.716   7.795   8.476  1.00  0.00     0.166 HD
HETATM   13  C   UNL     1      65.251   6.355   6.938  1.00  0.00     0.109 A 
ENDBRANCH   7   8
ENDBRANCH   1   7
BRANCH   3  14
HETATM   14  N   UNL     1      61.076   7.192   2.400  1.00  0.00    -0.399 N 
HETATM   15  H   UNL     1      61.339   6.535   1.715  1.00  0.00     0.156 HD
HETATM   16  H   UNL     1      60.124   7.393   2.548  1.00  0.00     0.156 HD
ENDBRANCH   3  14
TORSDOF 3
ENDMDL
MODEL 7
REMARK VINA RESULT:      -4.3      2.069      5.324
REMARK  3 active torsions:
REMARK  status: ('A' for Active; 'I' for Inactive)
REMARK    1  A    between atoms: N_3  and  C_7 
REMARK    2  A    between atoms: C_7  and  C_8 
REMARK    3  A    between atoms: C_10  and  N_11 
ROOT
HETATM    1  C   UNL     1      63.621   8.477   5.276  1.00  0.00    -0.038 A 
HETATM    2  C   UNL     1      63.106   7.254   5.738  1.00  0.00     0.037 A 
HETATM    3  C   UNL     1      63.939   6.148   5.939  1.00  0.00     0.026 A 
HETATM    4  C   UNL     1      65.795   7.433   5.054  1.00  0.00     0.003 A 
HETATM    5  C   UNL     1      64.977   8.555   4.934  1.00  0.00     0.009 A 
HETATM    6  C   UNL     1      65.274   6.234   5.544  1.00  0.00     0.029 A 
ENDROOT
BRANCH   1   7
HETATM    7  C   UNL     1      62.733   9.691   5.191  1.00  0.00     0.167 C 
BRANCH   7   8
HETATM    8  N   UNL     1      62.357   9.972   3.814  1.00  0.00    -0.347 N 
HETATM    9  C   UNL     1      61.912  11.173   3.336  1.00  0.00     0.182 A 
HETATM   10  N   UNL     1      61.584  11.092   2.068  1.00  0.00    -0.361 N 
HETATM   11  C   UNL     1      61.839   9.796   1.707  1.00  0.00     0.106 A 
ATOM     12  HN  UNL     1      61.216  11.837   1.476  1.00  0.00     0.166 HD
HETATM   13  C   UNL     1      62.325   9.081   2.777  1.00  0.00     0.109 A 
ENDBRANCH   7   8
ENDBRANCH   1   7
BRANCH   3  14
HETATM   14  N   UNL     1      63.389   4.917   6.322  1.00  0.00    -0.399 N 
HETATM   15  H   UNL     1      62.865   4.391   5.676  1.00  0.00     0.156 HD
HETATM   16  H   UNL     1      63.528   4.580   7.236  1.00  0.00     0.156 HD
ENDBRANCH   3  14
TORSDOF 3
ENDMDL
MODEL 8
REMARK VINA RESULT:      -4.3      1.701      2.226
REMARK  3 active torsions:
REMARK  status: ('A' for Active; 'I' for Inactive)
REMARK    1  A    between atoms: N_3  and  C_7 
REMARK    2  A    between atoms: C_7  and  C_8 
REMARK    3  A    between atoms: C_10  and  N_11 
ROOT
HETATM    1  C   UNL     1      65.711   7.017   4.384  1.00  0.00    -0.038 A 
HETATM    2  C   UNL     1      65.367   8.164   5.117  1.00  0.00     0.037 A 
HETATM    3  C   UNL     1      64.133   8.797   4.932  1.00  0.00     0.026 A 
HETATM    4  C   UNL     1      63.640   7.233   3.147  1.00  0.00     0.003 A 
HETATM    5  C   UNL     1      64.834   6.557   3.392  1.00  0.00     0.009 A 
HETATM    6  C   UNL     1      63.299   8.353   3.907  1.00  0.00     0.029 A 
ENDROOT
BRANCH   1   7
HETATM    7  C   UNL     1      66.986   6.274   4.689  1.00  0.00     0.167 C 
BRANCH   7   8
HETATM    8  N   UNL     1      66.973   5.738   6.041  1.00  0.00    -0.347 N 
HETATM    9  C   UNL     1      67.865   6.041   7.031  1.00  0.00     0.182 A 
HETATM   10  N   UNL     1      67.633   5.342   8.116  1.00  0.00    -0.361 N 
HETATM   11  C   UNL     1      66.542   4.568   7.825  1.00  0.00     0.106 A 
ATOM     12  HN  UNL     1      68.155   5.369   8.992  1.00  0.00     0.166 HD
HETATM   13  C   UNL     1      66.111   4.801   6.540  1.00  0.00     0.109 A 
ENDBRANCH   7   8
ENDBRANCH   1   7
BRANCH   3  14
HETATM   14  N   UNL     1      63.846   9.986   5.617  1.00  0.00    -0.399 N 
HETATM   15  H   UNL     1      62.923  10.179   5.901  1.00  0.00     0.156 HD
HETATM   16  H   UNL     1      64.566  10.627   5.813  1.00  0.00     0.156 HD
ENDBRANCH   3  14
TORSDOF 3
ENDMDL
MODEL 9
REMARK VINA RESULT:      -4.2      2.788      3.729
REMARK  3 active torsions:
REMARK  status: ('A' for Active; 'I' for Inactive)
REMARK    1  A    between atoms: N_3  and  C_7 
REMARK    2  A    between atoms: C_7  and  C_8 
REMARK    3  A    between atoms: C_10  and  N_11 
ROOT
HETATM    1  C   UNL     1      61.775   9.121   3.187  1.00  0.00    -0.038 A 
HETATM    2  C   UNL     1      60.677   8.245   3.229  1.00  0.00     0.037 A 
HETATM    3  C   UNL     1      60.199   7.627   2.069  1.00  0.00     0.026 A 
HETATM    4  C   UNL     1      61.814   8.892   0.775  1.00  0.00     0.003 A 
HETATM    5  C   UNL     1      62.339   9.440   1.945  1.00  0.00     0.009 A 
HETATM    6  C   UNL     1      60.743   7.999   0.840  1.00  0.00     0.029 A 
ENDROOT
BRANCH   1   7
HETATM    7  C   UNL     1      62.356   9.673   4.462  1.00  0.00     0.167 C 
BRANCH   7   8
HETATM    8  N   UNL     1      63.215   8.697   5.116  1.00  0.00    -0.347 N 
HETATM    9  C   UNL     1      64.560   8.556   4.918  1.00  0.00     0.182 A 
HETATM   10  N   UNL     1      65.040   7.541   5.597  1.00  0.00    -0.361 N 
HETATM   11  C   UNL     1      63.970   7.014   6.270  1.00  0.00     0.106 A 
ATOM     12  HN  UNL     1      66.006   7.213   5.618  1.00  0.00     0.166 HD
HETATM   13  C   UNL     1      62.824   7.721   5.989  1.00  0.00     0.109 A 
ENDBRANCH   7   8
ENDBRANCH   1   7
BRANCH   3  14
HETATM   14  N   UNL     1      59.054   6.822   2.125  1.00  0.00    -0.399 N 
HETATM   15  H   UNL     1      59.141   5.841   2.118  1.00  0.00     0.156 HD
HETATM   16  H   UNL     1      58.163   7.237   2.171  1.00  0.00     0.156 HD
ENDBRANCH   3  14
TORSDOF 3
ENDMDL
