MODEL 1
REMARK VINA RESULT:      -5.1      0.000      0.000
REMARK  3 active torsions:
REMARK  status: ('A' for Active; 'I' for Inactive)
REMARK    1  A    between atoms: C_1  and  N_2 
REMARK    2  A    between atoms: C_7  and  C_14 
REMARK    3  A    between atoms: O_11  and  C_14 
ROOT
HETATM    1  C   UNL     1      63.054   8.188   3.492  1.00  0.00     0.103 A 
HETATM    2  N   UNL     1      62.920   7.352   2.447  1.00  0.00    -0.352 N 
ATOM      3  HN  UNL     1      63.240   6.384   2.498  1.00  0.00     0.166 HD
HETATM    4  C   UNL     1      62.649   9.520   3.409  1.00  0.00     0.057 A 
HETATM    5  C   UNL     1      62.089  10.029   2.237  1.00  0.00    -0.030 A 
HETATM    6  C   UNL     1      62.343   7.843   1.323  1.00  0.00     0.090 A 
HETATM    7  C   UNL     1      61.920   9.154   1.167  1.00  0.00     0.026 A 
ENDROOT
BRANCH   1   8
HETATM    8  N   UNL     1      63.683   7.785   4.653  1.00  0.00    -0.363 N 
HETATM    9  C   UNL     1      62.912   7.124   5.705  1.00  0.00     0.150 C 
HETATM   10  C   UNL     1      63.913   6.261   6.502  1.00  0.00     0.187 C 
HETATM   11  O   UNL     1      65.002   7.048   7.036  1.00  0.00    -0.388 OA
HETATM   12  C   UNL     1      65.696   7.750   5.987  1.00  0.00     0.187 C 
HETATM   13  C   UNL     1      64.737   8.652   5.195  1.00  0.00     0.150 C 
ENDBRANCH   1   8
BRANCH   5  14
HETATM   14  C   UNL     1      61.716  11.476   2.142  1.00  0.00     0.203 C 
BRANCH  14  15
HETATM   15  O   UNL     1      61.801  12.090   3.421  1.00  0.00    -0.396 OA
HETATM   16  H   UNL     1      62.427  11.598   3.975  1.00  0.00     0.209 HD
ENDBRANCH  14  15
ENDBRANCH   5  14
TORSDOF 3
ENDMDL
MODEL 2
REMARK VINA RESULT:      -5.1      2.257      3.027
REMARK  3 active torsions:
REMARK  status: ('A' for Active; 'I' for Inactive)
REMARK    1  A    between atoms: C_1  and  N_2 
REMARK    2  A    between atoms: C_7  and  C_14 
REMARK    3  A    between atoms: O_11  and  C_14 
ROOT
HETATM    1  C   UNL     1      64.506   7.985   4.577  1.00  0.00     0.103 A 
HETATM    2  N   UNL     1      63.722   7.705   3.520  1.00  0.00    -0.352 N 
ATOM      3  HN  UNL     1      63.894   6.886   2.936  1.00  0.00     0.166 HD
HETATM    4  C   UNL     1      64.293   9.123   5.354  1.00  0.00     0.057 A 
HETATM    5  C   UNL     1      63.257  10.011   5.059  1.00  0.00    -0.030 A 
HETATM    6  C   UNL     1      62.697   8.551   3.260  1.00  0.00     0.090 A 
HETATM    7  C   UNL     1      62.426   9.701   3.985  1.00  0.00     0.026 A 
ENDROOT
BRANCH   1   8
HETATM    8  N   UNL     1      65.606   7.207   4.877  1.00  0.00    -0.363 N 
HETATM    9  C   UNL     1      66.648   7.731   5.759  1.00  0.00     0.150 C 
HETATM   10  C   UNL     1      67.337   6.505   6.396  1.00  0.00     0.187 C 
HETATM   11  O   UNL     1      67.869   5.603   5.398  1.00  0.00    -0.388 OA
HETATM   12  C   UNL     1      66.836   5.164   4.496  1.00  0.00     0.187 C 
HETATM   13  C   UNL     1      66.152   6.357   3.811  1.00  0.00     0.150 C 
ENDBRANCH   1   8
BRANCH   5  14
HETATM   14  C   UNL     1      63.079  11.260   5.863  1.00  0.00     0.203 C 
BRANCH  14  15
HETATM   15  O   UNL     1      64.305  11.626   6.481  1.00  0.00    -0.396 OA
HETATM   16  H   UNL     1      64.425  11.109   7.293  1.00  0.00     0.209 HD
ENDBRANCH  14  15
ENDBRANCH   5  14
TORSDOF 3
ENDMDL
MODEL 3
REMARK VINA RESULT:      -5.0      1.905      2.942
REMARK  3 active torsions:
REMARK  status: ('A' for Active; 'I' for Inactive)
REMARK    1  A    between atoms: C_1  and  N_2 
REMARK    2  A    between atoms: C_7  and  C_14 
REMARK    3  A    between atoms: O_11  and  C_14 
ROOT
HETATM    1  C   UNL     1      64.180   8.890   5.118  1.00  0.00     0.103 A 
HETATM    2  N   UNL     1      63.805  10.022   5.741  1.00  0.00    -0.352 N 
ATOM      3  HN  UNL     1      64.253  10.323   6.607  1.00  0.00     0.166 HD
HETATM    4  C   UNL     1      63.543   8.461   3.953  1.00  0.00     0.057 A 
HETATM    5  C   UNL     1      62.495   9.194   3.396  1.00  0.00    -0.030 A 
HETATM    6  C   UNL     1      62.811  10.748   5.175  1.00  0.00     0.090 A 
HETATM    7  C   UNL     1      62.131  10.382   4.023  1.00  0.00     0.026 A 
ENDROOT
BRANCH   1   8
HETATM    8  N   UNL     1      65.144   8.062   5.658  1.00  0.00    -0.363 N 
HETATM    9  C   UNL     1      66.336   7.731   4.878  1.00  0.00     0.150 C 
HETATM   10  C   UNL     1      67.441   7.386   5.898  1.00  0.00     0.187 C 
HETATM   11  O   UNL     1      67.049   6.309   6.781  1.00  0.00    -0.388 OA
HETATM   12  C   UNL     1      65.830   6.631   7.478  1.00  0.00     0.187 C 
HETATM   13  C   UNL     1      64.692   6.942   6.493  1.00  0.00     0.150 C 
ENDBRANCH   1   8
BRANCH   5  14
HETATM   14  C   UNL     1      61.781   8.689   2.181  1.00  0.00     0.203 C 
BRANCH  14  15
HETATM   15  O   UNL     1      60.892   9.681   1.686  1.00  0.00    -0.396 OA
HETATM   16  H   UNL     1      61.403  10.403   1.289  1.00  0.00     0.209 HD
ENDBRANCH  14  15
ENDBRANCH   5  14
TORSDOF 3
ENDMDL
MODEL 4
REMARK VINA RESULT:      -4.9      1.713      2.424
REMARK  3 active torsions:
REMARK  status: ('A' for Active; 'I' for Inactive)
REMARK    1  A    between atoms: C_1  and  N_2 
REMARK    2  A    between atoms: C_7  and  C_14 
REMARK    3  A    between atoms: O_11  and  C_14 
ROOT
HETATM    1  C   UNL     1      63.570   8.946   4.885  1.00  0.00     0.103 A 
HETATM    2  N   UNL     1      63.317  10.063   5.591  1.00  0.00    -0.352 N 
ATOM      3  HN  UNL     1      63.679  10.184   6.537  1.00  0.00     0.166 HD
HETATM    4  C   UNL     1      63.046   8.765   3.605  1.00  0.00     0.057 A 
HETATM    5  C   UNL     1      62.240   9.740   3.015  1.00  0.00    -0.030 A 
HETATM    6  C   UNL     1      62.564  11.021   4.999  1.00  0.00     0.090 A 
HETATM    7  C   UNL     1      62.008  10.909   3.734  1.00  0.00     0.026 A 
ENDROOT
BRANCH   1   8
HETATM    8  N   UNL     1      64.279   7.897   5.436  1.00  0.00    -0.363 N 
HETATM    9  C   UNL     1      63.624   6.992   6.379  1.00  0.00     0.150 C 
HETATM   10  C   UNL     1      64.387   5.653   6.300  1.00  0.00     0.187 C 
HETATM   11  O   UNL     1      65.796   5.814   6.586  1.00  0.00    -0.388 OA
HETATM   12  C   UNL     1      66.399   6.769   5.692  1.00  0.00     0.187 C 
HETATM   13  C   UNL     1      65.690   8.130   5.772  1.00  0.00     0.150 C 
ENDBRANCH   1   8
BRANCH   5  14
HETATM   14  C   UNL     1      61.634   9.506   1.667  1.00  0.00     0.203 C 
BRANCH  14  15
HETATM   15  O   UNL     1      60.381   8.849   1.798  1.00  0.00    -0.396 OA
HETATM   16  H   UNL     1      60.006   8.689   0.919  1.00  0.00     0.209 HD
ENDBRANCH  14  15
ENDBRANCH   5  14
TORSDOF 3
ENDMDL
MODEL 5
REMARK VINA RESULT:      -4.7      1.624      2.372
REMARK  3 active torsions:
REMARK  status: ('A' for Active; 'I' for Inactive)
REMARK    1  A    between atoms: C_1  and  N_2 
REMARK    2  A    between atoms: C_7  and  C_14 
REMARK    3  A    between atoms: O_11  and  C_14 
ROOT
HETATM    1  C   UNL     1      64.462   7.757   4.406  1.00  0.00     0.103 A 
HETATM    2  N   UNL     1      64.088   7.052   3.322  1.00  0.00    -0.352 N 
ATOM      3  HN  UNL     1      64.567   6.190   3.060  1.00  0.00     0.166 HD
HETATM    4  C   UNL     1      63.829   8.952   4.745  1.00  0.00     0.057 A 
HETATM    5  C   UNL     1      62.785   9.458   3.969  1.00  0.00    -0.030 A 
HETATM    6  C   UNL     1      63.050   7.529   2.593  1.00  0.00     0.090 A 
HETATM    7  C   UNL     1      62.377   8.710   2.867  1.00  0.00     0.026 A 
ENDROOT
BRANCH   1   8
HETATM    8  N   UNL     1      65.546   7.372   5.169  1.00  0.00    -0.363 N 
HETATM    9  C   UNL     1      66.758   6.880   4.515  1.00  0.00     0.150 C 
HETATM   10  C   UNL     1      67.921   7.152   5.492  1.00  0.00     0.187 C 
HETATM   11  O   UNL     1      67.705   6.530   6.780  1.00  0.00    -0.388 OA
HETATM   12  C   UNL     1      66.466   6.974   7.366  1.00  0.00     0.187 C 
HETATM   13  C   UNL     1      65.277   6.683   6.438  1.00  0.00     0.150 C 
ENDBRANCH   1   8
BRANCH   5  14
HETATM   14  C   UNL     1      62.157  10.773   4.309  1.00  0.00     0.203 C 
BRANCH  14  15
HETATM   15  O   UNL     1      61.421  11.268   3.199  1.00  0.00    -0.396 OA
HETATM   16  H   UNL     1      61.960  11.913   2.716  1.00  0.00     0.209 HD
ENDBRANCH  14  15
ENDBRANCH   5  14
TORSDOF 3
ENDMDL
MODEL 6
REMARK VINA RESULT:      -4.5      2.644      5.078
REMARK  3 active torsions:
REMARK  status: ('A' for Active; 'I' for Inactive)
REMARK    1  A    between atoms: C_1  and  N_2 
REMARK    2  A    between atoms: C_7  and  C_14 
REMARK    3  A    between atoms: O_11  and  C_14 
ROOT
HETATM    1  C   UNL     1      61.733   8.804   3.346  1.00  0.00     0.103 A 
HETATM    2  N   UNL     1      61.422  10.083   3.625  1.00  0.00    -0.352 N 
ATOM      3  HN  UNL     1      60.607  10.533   3.207  1.00  0.00     0.166 HD
HETATM    4  C   UNL     1      62.868   8.201   3.890  1.00  0.00     0.057 A 
HETATM    5  C   UNL     1      63.718   8.907   4.741  1.00  0.00    -0.030 A 
HETATM    6  C   UNL     1      62.233  10.752   4.480  1.00  0.00     0.090 A 
HETATM    7  C   UNL     1      63.377  10.220   5.055  1.00  0.00     0.026 A 
ENDROOT
BRANCH   1   8
HETATM    8  N   UNL     1      60.994   8.070   2.440  1.00  0.00    -0.363 N 
HETATM    9  C   UNL     1      60.967   6.611   2.538  1.00  0.00     0.150 C 
HETATM   10  C   UNL     1      59.644   6.156   1.886  1.00  0.00     0.187 C 
HETATM   11  O   UNL     1      59.526   6.614   0.520  1.00  0.00    -0.388 OA
HETATM   12  C   UNL     1      59.635   8.049   0.445  1.00  0.00     0.187 C 
HETATM   13  C   UNL     1      60.960   8.538   1.049  1.00  0.00     0.150 C 
ENDBRANCH   1   8
BRANCH   5  14
HETATM   14  C   UNL     1      64.965   8.266   5.267  1.00  0.00     0.203 C 
BRANCH  14  15
HETATM   15  O   UNL     1      65.660   9.167   6.117  1.00  0.00    -0.396 OA
HETATM   16  H   UNL     1      65.077   9.443   6.841  1.00  0.00     0.209 HD
ENDBRANCH  14  15
ENDBRANCH   5  14
TORSDOF 3
ENDMDL
MODEL 7
REMARK VINA RESULT:      -4.2      2.041      2.482
REMARK  3 active torsions:
REMARK  status: ('A' for Active; 'I' for Inactive)
REMARK    1  A    between atoms: C_1  and  N_2 
REMARK    2  A    between atoms: C_7  and  C_14 
REMARK    3  A    between atoms: O_11  and  C_14 
ROOT
HETATM    1  C   UNL     1      61.856   7.549   3.188  1.00  0.00     0.103 A 
HETATM    2  N   UNL     1      62.086   7.158   1.921  1.00  0.00    -0.352 N 
ATOM      3  HN  UNL     1      62.185   6.171   1.681  1.00  0.00     0.166 HD
HETATM    4  C   UNL     1      61.756   8.900   3.521  1.00  0.00     0.057 A 
HETATM    5  C   UNL     1      61.892   9.891   2.549  1.00  0.00    -0.030 A 
HETATM    6  C   UNL     1      62.181   8.124   0.976  1.00  0.00     0.090 A 
HETATM    7  C   UNL     1      62.096   9.484   1.233  1.00  0.00     0.026 A 
ENDROOT
BRANCH   1   8
HETATM    8  N   UNL     1      61.804   6.634   4.220  1.00  0.00    -0.363 N 
HETATM    9  C   UNL     1      62.103   7.061   5.586  1.00  0.00     0.150 C 
HETATM   10  C   UNL     1      61.365   6.079   6.521  1.00  0.00     0.187 C 
HETATM   11  O   UNL     1      61.752   4.706   6.281  1.00  0.00    -0.388 OA
HETATM   12  C   UNL     1      61.519   4.336   4.908  1.00  0.00     0.187 C 
HETATM   13  C   UNL     1      62.271   5.269   3.946  1.00  0.00     0.150 C 
ENDBRANCH   1   8
BRANCH   5  14
HETATM   14  C   UNL     1      61.843  11.337   2.931  1.00  0.00     0.203 C 
BRANCH  14  15
HETATM   15  O   UNL     1      62.074  12.155   1.792  1.00  0.00    -0.396 OA
HETATM   16  H   UNL     1      61.238  12.295   1.320  1.00  0.00     0.209 HD
ENDBRANCH  14  15
ENDBRANCH   5  14
TORSDOF 3
ENDMDL
MODEL 8
REMARK VINA RESULT:      -4.2      3.309      4.491
REMARK  3 active torsions:
REMARK  status: ('A' for Active; 'I' for Inactive)
REMARK    1  A    between atoms: C_1  and  N_2 
REMARK    2  A    between atoms: C_7  and  C_14 
REMARK    3  A    between atoms: O_11  and  C_14 
ROOT
HETATM    1  C   UNL     1      65.031   7.190   6.292  1.00  0.00     0.103 A 
HETATM    2  N   UNL     1      65.210   8.412   5.758  1.00  0.00    -0.352 N 
ATOM      3  HN  UNL     1      66.114   8.882   5.804  1.00  0.00     0.166 HD
HETATM    4  C   UNL     1      63.786   6.562   6.260  1.00  0.00     0.057 A 
HETATM    5  C   UNL     1      62.683   7.183   5.673  1.00  0.00    -0.030 A 
HETATM    6  C   UNL     1      64.144   8.994   5.158  1.00  0.00     0.090 A 
HETATM    7  C   UNL     1      62.878   8.433   5.092  1.00  0.00     0.026 A 
ENDROOT
BRANCH   1   8
HETATM    8  N   UNL     1      66.048   6.551   6.972  1.00  0.00    -0.363 N 
HETATM    9  C   UNL     1      66.643   5.336   6.417  1.00  0.00     0.150 C 
HETATM   10  C   UNL     1      68.072   5.247   6.993  1.00  0.00     0.187 C 
HETATM   11  O   UNL     1      68.075   5.245   8.439  1.00  0.00    -0.388 OA
HETATM   12  C   UNL     1      67.415   6.415   8.959  1.00  0.00     0.187 C 
HETATM   13  C   UNL     1      65.972   6.516   8.438  1.00  0.00     0.150 C 
ENDBRANCH   1   8
BRANCH   5  14
HETATM   14  C   UNL     1      61.339   6.525   5.702  1.00  0.00     0.203 C 
BRANCH  14  15
HETATM   15  O   UNL     1      60.904   6.353   7.044  1.00  0.00    -0.396 OA
HETATM   16  H   UNL     1      61.329   7.017   7.608  1.00  0.00     0.209 HD
ENDBRANCH  14  15
ENDBRANCH   5  14
TORSDOF 3
ENDMDL
MODEL 9
REMARK VINA RESULT:      -4.1      2.329      2.639
REMARK  3 active torsions:
REMARK  status: ('A' for Active; 'I' for Inactive)
REMARK    1  A    between atoms: C_1  and  N_2 
REMARK    2  A    between atoms: C_7  and  C_14 
REMARK    3  A    between atoms: O_11  and  C_14 
ROOT
HETATM    1  C   UNL     1      62.786   7.842   2.705  1.00  0.00     0.103 A 
HETATM    2  N   UNL     1      62.384   8.236   1.483  1.00  0.00    -0.352 N 
ATOM      3  HN  UNL     1      62.411   7.600   0.686  1.00  0.00     0.166 HD
HETATM    4  C   UNL     1      62.783   8.724   3.786  1.00  0.00     0.057 A 
HETATM    5  C   UNL     1      62.362  10.045   3.634  1.00  0.00    -0.030 A 
HETATM    6  C   UNL     1      61.943   9.511   1.349  1.00  0.00     0.090 A 
HETATM    7  C   UNL     1      61.915  10.442   2.376  1.00  0.00     0.026 A 
ENDROOT
BRANCH   1   8
HETATM    8  N   UNL     1      63.303   6.580   2.915  1.00  0.00    -0.363 N 
HETATM    9  C   UNL     1      62.484   5.557   3.564  1.00  0.00     0.150 C 
HETATM   10  C   UNL     1      63.029   4.195   3.086  1.00  0.00     0.187 C 
HETATM   11  O   UNL     1      64.435   4.038   3.384  1.00  0.00    -0.388 OA
HETATM   12  C   UNL     1      65.209   5.102   2.797  1.00  0.00     0.187 C 
HETATM   13  C   UNL     1      64.722   6.476   3.281  1.00  0.00     0.150 C 
ENDBRANCH   1   8
BRANCH   5  14
HETATM   14  C   UNL     1      62.423  10.996   4.789  1.00  0.00     0.203 C 
BRANCH  14  15
HETATM   15  O   UNL     1      62.048  12.301   4.371  1.00  0.00    -0.396 OA
HETATM   16  H   UNL     1      61.455  12.694   5.030  1.00  0.00     0.209 HD
ENDBRANCH  14  15
ENDBRANCH   5  14
TORSDOF 3
ENDMDL
