MODEL 1
REMARK VINA RESULT:      -5.2      0.000      0.000
REMARK  4 active torsions:
REMARK  status: ('A' for Active; 'I' for Inactive)
REMARK    1  A    between atoms: N_3  and  C_7 
REMARK    2  A    between atoms: C_7  and  C_8 
REMARK    3  A    between atoms: C_9  and  C_15 
REMARK    4  A    between atoms: O_14  and  C_15 
ROOT
HETATM    1  C   UNL     1      62.206   9.322   2.114  1.00  0.00    -0.040 A 
HETATM    2  C   UNL     1      62.646  10.557   4.617  1.00  0.00    -0.035 A 
HETATM    3  C   UNL     1      61.757  10.629   2.355  1.00  0.00     0.009 A 
HETATM    4  C   UNL     1      62.850   8.631   3.149  1.00  0.00     0.009 A 
HETATM    5  C   UNL     1      63.064   9.241   4.390  1.00  0.00     0.010 A 
HETATM    6  C   UNL     1      61.976  11.239   3.594  1.00  0.00     0.010 A 
ENDROOT
BRANCH   1   7
HETATM    7  C   UNL     1      62.028   8.685   0.757  1.00  0.00     0.167 C 
BRANCH   7   8
HETATM    8  N   UNL     1      60.881   7.794   0.729  1.00  0.00    -0.347 N 
HETATM    9  C   UNL     1      59.577   8.177   0.584  1.00  0.00     0.182 A 
HETATM   10  N   UNL     1      58.769   7.141   0.569  1.00  0.00    -0.361 N 
HETATM   11  C   UNL     1      59.586   6.046   0.691  1.00  0.00     0.106 A 
ATOM     12  HN  UNL     1      57.753   7.149   0.484  1.00  0.00     0.166 HD
HETATM   13  C   UNL     1      60.906   6.427   0.769  1.00  0.00     0.109 A 
ENDBRANCH   7   8
ENDBRANCH   1   7
BRANCH   2  14
HETATM   14  C   UNL     1      62.923  11.240   5.931  1.00  0.00     0.202 C 
BRANCH  14  15
HETATM   15  O   UNL     1      64.324  11.309   6.167  1.00  0.00    -0.396 OA
HETATM   16  H   UNL     1      64.797  10.882   5.435  1.00  0.00     0.209 HD
ENDBRANCH  14  15
ENDBRANCH   2  14
TORSDOF 4
ENDMDL
MODEL 2
REMARK VINA RESULT:      -5.0      3.969      5.934
REMARK  4 active torsions:
REMARK  status: ('A' for Active; 'I' for Inactive)
REMARK    1  A    between atoms: N_3  and  C_7 
REMARK    2  A    between atoms: C_7  and  C_8 
REMARK    3  A    between atoms: C_9  and  C_15 
REMARK    4  A    between atoms: O_14  and  C_15 
ROOT
HETATM    1  C   UNL     1      63.493   8.213   4.813  1.00  0.00    -0.040 A 
HETATM    2  C   UNL     1      62.263   9.855   2.869  1.00  0.00    -0.035 A 
HETATM    3  C   UNL     1      63.275   7.738   3.511  1.00  0.00     0.009 A 
HETATM    4  C   UNL     1      63.061   9.507   5.138  1.00  0.00     0.009 A 
HETATM    5  C   UNL     1      62.449  10.317   4.177  1.00  0.00     0.010 A 
HETATM    6  C   UNL     1      62.667   8.552   2.551  1.00  0.00     0.010 A 
ENDROOT
BRANCH   1   7
HETATM    7  C   UNL     1      64.208   7.360   5.834  1.00  0.00     0.167 C 
BRANCH   7   8
HETATM    8  N   UNL     1      65.652   7.473   5.711  1.00  0.00    -0.347 N 
HETATM    9  C   UNL     1      66.471   8.174   6.550  1.00  0.00     0.182 A 
HETATM   10  N   UNL     1      67.731   8.064   6.195  1.00  0.00    -0.361 N 
HETATM   11  C   UNL     1      67.725   7.246   5.094  1.00  0.00     0.106 A 
ATOM     12  HN  UNL     1      68.541   8.494   6.643  1.00  0.00     0.166 HD
HETATM   13  C   UNL     1      66.444   6.848   4.789  1.00  0.00     0.109 A 
ENDBRANCH   7   8
ENDBRANCH   1   7
BRANCH   2  14
HETATM   14  C   UNL     1      61.657  10.741   1.814  1.00  0.00     0.202 C 
BRANCH  14  15
HETATM   15  O   UNL     1      62.111  12.080   1.971  1.00  0.00    -0.396 OA
HETATM   16  H   UNL     1      61.713  12.639   1.285  1.00  0.00     0.209 HD
ENDBRANCH  14  15
ENDBRANCH   2  14
TORSDOF 4
ENDMDL
MODEL 3
REMARK VINA RESULT:      -4.8      4.692      6.568
REMARK  4 active torsions:
REMARK  status: ('A' for Active; 'I' for Inactive)
REMARK    1  A    between atoms: N_3  and  C_7 
REMARK    2  A    between atoms: C_7  and  C_8 
REMARK    3  A    between atoms: C_9  and  C_15 
REMARK    4  A    between atoms: O_14  and  C_15 
ROOT
HETATM    1  C   UNL     1      65.182   7.582   4.764  1.00  0.00    -0.040 A 
HETATM    2  C   UNL     1      62.791   8.647   3.697  1.00  0.00    -0.035 A 
HETATM    3  C   UNL     1      64.524   6.940   3.704  1.00  0.00     0.009 A 
HETATM    4  C   UNL     1      64.613   8.744   5.303  1.00  0.00     0.009 A 
HETATM    5  C   UNL     1      63.428   9.269   4.777  1.00  0.00     0.010 A 
HETATM    6  C   UNL     1      63.342   7.468   3.177  1.00  0.00     0.010 A 
ENDROOT
BRANCH   1   7
HETATM    7  C   UNL     1      66.492   7.049   5.292  1.00  0.00     0.167 C 
BRANCH   7   8
HETATM    8  N   UNL     1      66.335   6.440   6.602  1.00  0.00    -0.347 N 
HETATM    9  C   UNL     1      65.806   5.204   6.848  1.00  0.00     0.182 A 
HETATM   10  N   UNL     1      65.822   4.920   8.131  1.00  0.00    -0.361 N 
HETATM   11  C   UNL     1      66.399   6.008   8.733  1.00  0.00     0.106 A 
ATOM     12  HN  UNL     1      65.480   4.071   8.582  1.00  0.00     0.166 HD
HETATM   13  C   UNL     1      66.746   6.957   7.799  1.00  0.00     0.109 A 
ENDBRANCH   7   8
ENDBRANCH   1   7
BRANCH   2  14
HETATM   14  C   UNL     1      61.546   9.236   3.089  1.00  0.00     0.202 C 
BRANCH  14  15
HETATM   15  O   UNL     1      61.251  10.493   3.686  1.00  0.00    -0.396 OA
HETATM   16  H   UNL     1      61.715  11.197   3.206  1.00  0.00     0.209 HD
ENDBRANCH  14  15
ENDBRANCH   2  14
TORSDOF 4
ENDMDL
MODEL 4
REMARK VINA RESULT:      -4.4      3.617      4.836
REMARK  4 active torsions:
REMARK  status: ('A' for Active; 'I' for Inactive)
REMARK    1  A    between atoms: N_3  and  C_7 
REMARK    2  A    between atoms: C_7  and  C_8 
REMARK    3  A    between atoms: C_9  and  C_15 
REMARK    4  A    between atoms: O_14  and  C_15 
ROOT
HETATM    1  C   UNL     1      63.341   8.332   4.869  1.00  0.00    -0.040 A 
HETATM    2  C   UNL     1      62.199   9.995   2.890  1.00  0.00    -0.035 A 
HETATM    3  C   UNL     1      62.898   9.624   5.189  1.00  0.00     0.009 A 
HETATM    4  C   UNL     1      63.233   7.894   3.542  1.00  0.00     0.009 A 
HETATM    5  C   UNL     1      62.671   8.719   2.562  1.00  0.00     0.010 A 
HETATM    6  C   UNL     1      62.333  10.445   4.209  1.00  0.00     0.010 A 
ENDROOT
BRANCH   1   7
HETATM    7  C   UNL     1      63.892   7.420   5.939  1.00  0.00     0.167 C 
BRANCH   7   8
HETATM    8  N   UNL     1      63.012   6.291   6.186  1.00  0.00    -0.347 N 
HETATM    9  C   UNL     1      63.402   4.985   6.296  1.00  0.00     0.182 A 
HETATM   10  N   UNL     1      62.380   4.198   6.548  1.00  0.00    -0.361 N 
HETATM   11  C   UNL     1      61.293   5.030   6.620  1.00  0.00     0.106 A 
ATOM     12  HN  UNL     1      62.394   3.184   6.666  1.00  0.00     0.166 HD
HETATM   13  C   UNL     1      61.666   6.339   6.420  1.00  0.00     0.109 A 
ENDBRANCH   7   8
ENDBRANCH   1   7
BRANCH   2  14
HETATM   14  C   UNL     1      61.542  10.867   1.853  1.00  0.00     0.202 C 
BRANCH  14  15
HETATM   15  O   UNL     1      62.143  12.155   1.835  1.00  0.00    -0.396 OA
HETATM   16  H   UNL     1      63.021  12.097   1.425  1.00  0.00     0.209 HD
ENDBRANCH  14  15
ENDBRANCH   2  14
TORSDOF 4
ENDMDL
MODEL 5
REMARK VINA RESULT:      -4.3      3.412      4.971
REMARK  4 active torsions:
REMARK  status: ('A' for Active; 'I' for Inactive)
REMARK    1  A    between atoms: N_3  and  C_7 
REMARK    2  A    between atoms: C_7  and  C_8 
REMARK    3  A    between atoms: C_9  and  C_15 
REMARK    4  A    between atoms: O_14  and  C_15 
ROOT
HETATM    1  C   UNL     1      63.952   7.522   4.733  1.00  0.00    -0.040 A 
HETATM    2  C   UNL     1      66.021   6.886   6.550  1.00  0.00    -0.035 A 
HETATM    3  C   UNL     1      65.286   7.834   4.434  1.00  0.00     0.009 A 
HETATM    4  C   UNL     1      63.662   6.916   5.964  1.00  0.00     0.009 A 
HETATM    5  C   UNL     1      64.686   6.605   6.864  1.00  0.00     0.010 A 
HETATM    6  C   UNL     1      66.309   7.518   5.333  1.00  0.00     0.010 A 
ENDROOT
BRANCH   1   7
HETATM    7  C   UNL     1      62.853   7.802   3.736  1.00  0.00     0.167 C 
BRANCH   7   8
HETATM    8  N   UNL     1      62.503   9.212   3.706  1.00  0.00    -0.347 N 
HETATM    9  C   UNL     1      61.945   9.873   2.648  1.00  0.00     0.182 A 
HETATM   10  N   UNL     1      61.718  11.135   2.934  1.00  0.00    -0.361 N 
HETATM   11  C   UNL     1      62.131  11.290   4.232  1.00  0.00     0.106 A 
ATOM     12  HN  UNL     1      61.320  11.847   2.321  1.00  0.00     0.166 HD
HETATM   13  C   UNL     1      62.602  10.101   4.740  1.00  0.00     0.109 A 
ENDBRANCH   7   8
ENDBRANCH   1   7
BRANCH   2  14
HETATM   14  C   UNL     1      67.134   6.503   7.489  1.00  0.00     0.202 C 
BRANCH  14  15
HETATM   15  O   UNL     1      67.331   7.520   8.463  1.00  0.00    -0.396 OA
HETATM   16  H   UNL     1      66.805   8.301   8.227  1.00  0.00     0.209 HD
ENDBRANCH  14  15
ENDBRANCH   2  14
TORSDOF 4
ENDMDL
MODEL 6
REMARK VINA RESULT:      -4.1      3.810      5.440
REMARK  4 active torsions:
REMARK  status: ('A' for Active; 'I' for Inactive)
REMARK    1  A    between atoms: N_3  and  C_7 
REMARK    2  A    between atoms: C_7  and  C_8 
REMARK    3  A    between atoms: C_9  and  C_15 
REMARK    4  A    between atoms: O_14  and  C_15 
ROOT
HETATM    1  C   UNL     1      63.415   6.869   3.198  1.00  0.00    -0.040 A 
HETATM    2  C   UNL     1      62.338   9.365   2.424  1.00  0.00    -0.035 A 
HETATM    3  C   UNL     1      62.889   7.052   1.911  1.00  0.00     0.009 A 
HETATM    4  C   UNL     1      63.368   7.940   4.102  1.00  0.00     0.009 A 
HETATM    5  C   UNL     1      62.832   9.174   3.720  1.00  0.00     0.010 A 
HETATM    6  C   UNL     1      62.357   8.288   1.529  1.00  0.00     0.010 A 
ENDROOT
BRANCH   1   7
HETATM    7  C   UNL     1      64.049   5.557   3.592  1.00  0.00     0.167 C 
BRANCH   7   8
HETATM    8  N   UNL     1      65.371   5.749   4.163  1.00  0.00    -0.347 N 
HETATM    9  C   UNL     1      66.506   6.049   3.463  1.00  0.00     0.182 A 
HETATM   10  N   UNL     1      67.540   6.189   4.261  1.00  0.00    -0.361 N 
HETATM   11  C   UNL     1      67.049   5.989   5.525  1.00  0.00     0.106 A 
ATOM     12  HN  UNL     1      68.502   6.402   3.996  1.00  0.00     0.166 HD
HETATM   13  C   UNL     1      65.698   5.737   5.491  1.00  0.00     0.109 A 
ENDBRANCH   7   8
ENDBRANCH   1   7
BRANCH   2  14
HETATM   14  C   UNL     1      61.811  10.706   1.987  1.00  0.00     0.202 C 
BRANCH  14  15
HETATM   15  O   UNL     1      61.457  11.491   3.119  1.00  0.00    -0.396 OA
HETATM   16  H   UNL     1      62.247  11.659   3.656  1.00  0.00     0.209 HD
ENDBRANCH  14  15
ENDBRANCH   2  14
TORSDOF 4
ENDMDL
MODEL 7
REMARK VINA RESULT:      -4.1      1.831      2.376
REMARK  4 active torsions:
REMARK  status: ('A' for Active; 'I' for Inactive)
REMARK    1  A    between atoms: N_3  and  C_7 
REMARK    2  A    between atoms: C_7  and  C_8 
REMARK    3  A    between atoms: C_9  and  C_15 
REMARK    4  A    between atoms: O_14  and  C_15 
ROOT
HETATM    1  C   UNL     1      62.505   8.720   2.797  1.00  0.00    -0.040 A 
HETATM    2  C   UNL     1      64.240   7.959   4.894  1.00  0.00    -0.035 A 
HETATM    3  C   UNL     1      62.603   9.497   3.961  1.00  0.00     0.009 A 
HETATM    4  C   UNL     1      63.261   7.543   2.708  1.00  0.00     0.009 A 
HETATM    5  C   UNL     1      64.117   7.165   3.748  1.00  0.00     0.010 A 
HETATM    6  C   UNL     1      63.462   9.119   4.997  1.00  0.00     0.010 A 
ENDROOT
BRANCH   1   7
HETATM    7  C   UNL     1      61.627   9.160   1.650  1.00  0.00     0.167 C 
BRANCH   7   8
HETATM    8  N   UNL     1      60.453   8.312   1.518  1.00  0.00    -0.347 N 
HETATM    9  C   UNL     1      59.898   7.900   0.339  1.00  0.00     0.182 A 
HETATM   10  N   UNL     1      58.861   7.119   0.544  1.00  0.00    -0.361 N 
HETATM   11  C   UNL     1      58.755   7.010   1.906  1.00  0.00     0.106 A 
ATOM     12  HN  UNL     1      58.263   6.685  -0.160  1.00  0.00     0.166 HD
HETATM   13  C   UNL     1      59.749   7.726   2.532  1.00  0.00     0.109 A 
ENDBRANCH   7   8
ENDBRANCH   1   7
BRANCH   2  14
HETATM   14  C   UNL     1      65.201   7.588   5.992  1.00  0.00     0.202 C 
BRANCH  14  15
HETATM   15  O   UNL     1      64.491   7.206   7.163  1.00  0.00    -0.396 OA
HETATM   16  H   UNL     1      64.743   7.787   7.899  1.00  0.00     0.209 HD
ENDBRANCH  14  15
ENDBRANCH   2  14
TORSDOF 4
ENDMDL
MODEL 8
REMARK VINA RESULT:      -3.9      3.638      5.035
REMARK  4 active torsions:
REMARK  status: ('A' for Active; 'I' for Inactive)
REMARK    1  A    between atoms: N_3  and  C_7 
REMARK    2  A    between atoms: C_7  and  C_8 
REMARK    3  A    between atoms: C_9  and  C_15 
REMARK    4  A    between atoms: O_14  and  C_15 
ROOT
HETATM    1  C   UNL     1      63.620   7.452   4.711  1.00  0.00    -0.040 A 
HETATM    2  C   UNL     1      62.524   9.856   3.709  1.00  0.00    -0.035 A 
HETATM    3  C   UNL     1      63.555   8.598   5.517  1.00  0.00     0.009 A 
HETATM    4  C   UNL     1      63.158   7.532   3.390  1.00  0.00     0.009 A 
HETATM    5  C   UNL     1      62.619   8.723   2.893  1.00  0.00     0.010 A 
HETATM    6  C   UNL     1      63.012   9.787   5.020  1.00  0.00     0.010 A 
ENDROOT
BRANCH   1   7
HETATM    7  C   UNL     1      64.145   6.149   5.266  1.00  0.00     0.167 C 
BRANCH   7   8
HETATM    8  N   UNL     1      65.187   5.588   4.421  1.00  0.00    -0.347 N 
HETATM    9  C   UNL     1      65.081   4.445   3.679  1.00  0.00     0.182 A 
HETATM   10  N   UNL     1      66.180   4.211   2.998  1.00  0.00    -0.361 N 
HETATM   11  C   UNL     1      67.020   5.253   3.300  1.00  0.00     0.106 A 
ATOM     12  HN  UNL     1      66.369   3.424   2.377  1.00  0.00     0.166 HD
HETATM   13  C   UNL     1      66.414   6.133   4.165  1.00  0.00     0.109 A 
ENDBRANCH   7   8
ENDBRANCH   1   7
BRANCH   2  14
HETATM   14  C   UNL     1      61.894  11.125   3.199  1.00  0.00     0.202 C 
BRANCH  14  15
HETATM   15  O   UNL     1      62.026  12.164   4.161  1.00  0.00    -0.396 OA
HETATM   16  H   UNL     1      61.503  11.944   4.949  1.00  0.00     0.209 HD
ENDBRANCH  14  15
ENDBRANCH   2  14
TORSDOF 4
ENDMDL
MODEL 9
REMARK VINA RESULT:      -3.8      3.924      5.292
REMARK  4 active torsions:
REMARK  status: ('A' for Active; 'I' for Inactive)
REMARK    1  A    between atoms: N_3  and  C_7 
REMARK    2  A    between atoms: C_7  and  C_8 
REMARK    3  A    between atoms: C_9  and  C_15 
REMARK    4  A    between atoms: O_14  and  C_15 
ROOT
HETATM    1  C   UNL     1      62.509   7.436   4.865  1.00  0.00    -0.040 A 
HETATM    2  C   UNL     1      62.086  10.052   3.885  1.00  0.00    -0.035 A 
HETATM    3  C   UNL     1      61.667   7.660   3.765  1.00  0.00     0.009 A 
HETATM    4  C   UNL     1      63.111   8.539   5.486  1.00  0.00     0.009 A 
HETATM    5  C   UNL     1      62.899   9.834   5.003  1.00  0.00     0.010 A 
HETATM    6  C   UNL     1      61.460   8.955   3.281  1.00  0.00     0.010 A 
ENDROOT
BRANCH   1   7
HETATM    7  C   UNL     1      62.786   6.033   5.349  1.00  0.00     0.167 C 
BRANCH   7   8
HETATM    8  N   UNL     1      64.212   5.761   5.419  1.00  0.00    -0.347 N 
HETATM    9  C   UNL     1      64.923   5.530   6.563  1.00  0.00     0.182 A 
HETATM   10  N   UNL     1      66.188   5.288   6.301  1.00  0.00    -0.361 N 
HETATM   11  C   UNL     1      66.292   5.350   4.935  1.00  0.00     0.106 A 
ATOM     12  HN  UNL     1      66.934   5.095   6.971  1.00  0.00     0.166 HD
HETATM   13  C   UNL     1      65.070   5.621   4.365  1.00  0.00     0.109 A 
ENDBRANCH   7   8
ENDBRANCH   1   7
BRANCH   2  14
HETATM   14  C   UNL     1      61.898  11.437   3.325  1.00  0.00     0.202 C 
BRANCH  14  15
HETATM   15  O   UNL     1      61.331  11.372   2.022  1.00  0.00    -0.396 OA
HETATM   16  H   UNL     1      61.989  11.022   1.400  1.00  0.00     0.209 HD
ENDBRANCH  14  15
ENDBRANCH   2  14
TORSDOF 4
ENDMDL
