MODEL 1
REMARK VINA RESULT:      -5.1      0.000      0.000
REMARK  2 active torsions:
REMARK  status: ('A' for Active; 'I' for Inactive)
REMARK    1  A    between atoms: N_1  and  C_2 
REMARK    2  A    between atoms: C_4  and  N_5 
ROOT
HETATM    1  C   UNL     1      63.040   9.267   4.475  1.00  0.00     0.056 A 
HETATM    2  C   UNL     1      62.789  10.634   4.786  1.00  0.00     0.052 A 
HETATM    3  C   UNL     1      62.662   8.845   3.183  1.00  0.00     0.031 A 
HETATM    4  C   UNL     1      62.066  11.449   3.895  1.00  0.00     0.031 A 
HETATM    5  C   UNL     1      62.027   9.692   2.266  1.00  0.00     0.002 A 
HETATM    6  C   UNL     1      61.710  10.992   2.631  1.00  0.00     0.002 A 
ENDROOT
BRANCH   1   7
HETATM    7  N   UNL     1      63.624   8.364   5.362  1.00  0.00    -0.376 N 
HETATM    8  C   UNL     1      65.079   8.166   5.449  1.00  0.00     0.150 C 
HETATM    9  C   UNL     1      65.447   6.665   5.369  1.00  0.00     0.252 C 
HETATM   10  N   UNL     1      64.741   5.838   6.369  1.00  0.00    -0.072 N 
HETATM   11  C   UNL     1      63.289   6.022   6.170  1.00  0.00     0.252 C 
HETATM   12  H   UNL     1      65.002   6.133   7.309  1.00  0.00     0.277 HD
HETATM   13  H   UNL     1      64.992   4.855   6.256  1.00  0.00     0.277 HD
HETATM   14  C   UNL     1      62.818   7.494   6.241  1.00  0.00     0.150 C 
ENDBRANCH   1   7
BRANCH   2  15
HETATM   15  N   UNL     1      63.126  11.197   6.043  1.00  0.00    -0.397 N 
HETATM   16  H   UNL     1      63.206  12.174   6.140  1.00  0.00     0.156 HD
HETATM   17  H   UNL     1      63.280  10.612   6.819  1.00  0.00     0.156 HD
ENDBRANCH   2  15
TORSDOF 2
ENDMDL
MODEL 2
REMARK VINA RESULT:      -4.9      0.878      1.618
REMARK  2 active torsions:
REMARK  status: ('A' for Active; 'I' for Inactive)
REMARK    1  A    between atoms: N_1  and  C_2 
REMARK    2  A    between atoms: C_4  and  N_5 
ROOT
HETATM    1  C   UNL     1      62.784   9.033   3.692  1.00  0.00     0.056 A 
HETATM    2  C   UNL     1      62.630  10.274   4.374  1.00  0.00     0.052 A 
HETATM    3  C   UNL     1      62.445   9.031   2.322  1.00  0.00     0.031 A 
HETATM    4  C   UNL     1      62.027  11.372   3.732  1.00  0.00     0.031 A 
HETATM    5  C   UNL     1      61.934  10.159   1.668  1.00  0.00     0.002 A 
HETATM    6  C   UNL     1      61.705  11.326   2.381  1.00  0.00     0.002 A 
ENDROOT
BRANCH   1   7
HETATM    7  N   UNL     1      63.242   7.865   4.300  1.00  0.00    -0.376 N 
HETATM    8  C   UNL     1      62.332   6.848   4.851  1.00  0.00     0.150 C 
HETATM    9  C   UNL     1      62.721   6.473   6.301  1.00  0.00     0.252 C 
HETATM   10  N   UNL     1      64.130   6.049   6.435  1.00  0.00    -0.072 N 
HETATM   11  C   UNL     1      64.986   7.147   5.941  1.00  0.00     0.252 C 
HETATM   12  H   UNL     1      64.292   5.208   5.882  1.00  0.00     0.277 HD
HETATM   13  H   UNL     1      64.347   5.843   7.410  1.00  0.00     0.277 HD
HETATM   14  C   UNL     1      64.679   7.591   4.491  1.00  0.00     0.150 C 
ENDBRANCH   1   7
BRANCH   2  15
HETATM   15  N   UNL     1      62.942  10.424   5.749  1.00  0.00    -0.397 N 
HETATM   16  H   UNL     1      63.171  11.312   6.107  1.00  0.00     0.156 HD
HETATM   17  H   UNL     1      62.930   9.641   6.344  1.00  0.00     0.156 HD
ENDBRANCH   2  15
TORSDOF 2
ENDMDL
MODEL 3
REMARK VINA RESULT:      -4.9      1.009      2.039
REMARK  2 active torsions:
REMARK  status: ('A' for Active; 'I' for Inactive)
REMARK    1  A    between atoms: N_1  and  C_2 
REMARK    2  A    between atoms: C_4  and  N_5 
ROOT
HETATM    1  C   UNL     1      62.865   9.210   4.044  1.00  0.00     0.056 A 
HETATM    2  C   UNL     1      62.678   8.662   2.742  1.00  0.00     0.052 A 
HETATM    3  C   UNL     1      62.406  10.530   4.233  1.00  0.00     0.031 A 
HETATM    4  C   UNL     1      62.203   9.466   1.689  1.00  0.00     0.031 A 
HETATM    5  C   UNL     1      61.846  11.292   3.200  1.00  0.00     0.002 A 
HETATM    6  C   UNL     1      61.764  10.765   1.920  1.00  0.00     0.002 A 
ENDROOT
BRANCH   1   7
HETATM    7  N   UNL     1      63.459   8.518   5.098  1.00  0.00    -0.376 N 
HETATM    8  C   UNL     1      64.914   8.505   5.319  1.00  0.00     0.150 C 
HETATM    9  C   UNL     1      65.442   7.062   5.495  1.00  0.00     0.252 C 
HETATM   10  N   UNL     1      64.740   6.310   6.556  1.00  0.00    -0.072 N 
HETATM   11  C   UNL     1      63.300   6.293   6.227  1.00  0.00     0.252 C 
HETATM   12  H   UNL     1      64.885   6.765   7.457  1.00  0.00     0.277 HD
HETATM   13  H   UNL     1      65.101   5.358   6.613  1.00  0.00     0.277 HD
HETATM   14  C   UNL     1      62.674   7.695   6.038  1.00  0.00     0.150 C 
ENDBRANCH   1   7
BRANCH   2  15
HETATM   15  N   UNL     1      63.082   7.344   2.412  1.00  0.00    -0.397 N 
HETATM   16  H   UNL     1      63.703   7.192   1.664  1.00  0.00     0.156 HD
HETATM   17  H   UNL     1      62.740   6.580   2.931  1.00  0.00     0.156 HD
ENDBRANCH   2  15
TORSDOF 2
ENDMDL
MODEL 4
REMARK VINA RESULT:      -4.6      1.491      2.643
REMARK  2 active torsions:
REMARK  status: ('A' for Active; 'I' for Inactive)
REMARK    1  A    between atoms: N_1  and  C_2 
REMARK    2  A    between atoms: C_4  and  N_5 
ROOT
HETATM    1  C   UNL     1      62.593   8.993   3.623  1.00  0.00     0.056 A 
HETATM    2  C   UNL     1      62.290   9.018   2.231  1.00  0.00     0.052 A 
HETATM    3  C   UNL     1      62.386  10.200   4.324  1.00  0.00     0.031 A 
HETATM    4  C   UNL     1      61.957  10.227   1.593  1.00  0.00     0.031 A 
HETATM    5  C   UNL     1      61.962  11.377   3.695  1.00  0.00     0.002 A 
HETATM    6  C   UNL     1      61.767  11.395   2.322  1.00  0.00     0.002 A 
ENDROOT
BRANCH   1   7
HETATM    7  N   UNL     1      63.064   7.866   4.294  1.00  0.00    -0.376 N 
HETATM    8  C   UNL     1      62.174   6.792   4.764  1.00  0.00     0.150 C 
HETATM    9  C   UNL     1      62.435   6.459   6.252  1.00  0.00     0.252 C 
HETATM   10  N   UNL     1      63.848   6.136   6.538  1.00  0.00    -0.072 N 
HETATM   11  C   UNL     1      64.672   7.287   6.118  1.00  0.00     0.252 C 
HETATM   12  H   UNL     1      64.125   5.303   6.019  1.00  0.00     0.277 HD
HETATM   13  H   UNL     1      63.975   5.954   7.534  1.00  0.00     0.277 HD
HETATM   14  C   UNL     1      64.489   7.696   4.637  1.00  0.00     0.150 C 
ENDBRANCH   1   7
BRANCH   2  15
HETATM   15  N   UNL     1      62.441   7.875   1.405  1.00  0.00    -0.397 N 
HETATM   16  H   UNL     1      63.141   7.856   0.713  1.00  0.00     0.156 HD
HETATM   17  H   UNL     1      61.845   7.101   1.522  1.00  0.00     0.156 HD
ENDBRANCH   2  15
TORSDOF 2
ENDMDL
MODEL 5
REMARK VINA RESULT:      -4.3      1.868      2.589
REMARK  2 active torsions:
REMARK  status: ('A' for Active; 'I' for Inactive)
REMARK    1  A    between atoms: N_1  and  C_2 
REMARK    2  A    between atoms: C_4  and  N_5 
ROOT
HETATM    1  C   UNL     1      64.622   7.762   4.787  1.00  0.00     0.056 A 
HETATM    2  C   UNL     1      63.771   8.902   4.696  1.00  0.00     0.052 A 
HETATM    3  C   UNL     1      64.499   6.813   3.751  1.00  0.00     0.031 A 
HETATM    4  C   UNL     1      62.773   8.972   3.707  1.00  0.00     0.031 A 
HETATM    5  C   UNL     1      63.565   6.938   2.716  1.00  0.00     0.002 A 
HETATM    6  C   UNL     1      62.685   8.011   2.706  1.00  0.00     0.002 A 
ENDROOT
BRANCH   1   7
HETATM    7  N   UNL     1      65.537   7.558   5.818  1.00  0.00    -0.376 N 
HETATM    8  C   UNL     1      66.927   8.037   5.752  1.00  0.00     0.150 C 
HETATM    9  C   UNL     1      67.927   6.907   6.093  1.00  0.00     0.252 C 
HETATM   10  N   UNL     1      67.653   6.259   7.392  1.00  0.00    -0.072 N 
HETATM   11  C   UNL     1      66.274   5.731   7.357  1.00  0.00     0.252 C 
HETATM   12  H   UNL     1      67.744   6.940   8.145  1.00  0.00     0.277 HD
HETATM   13  H   UNL     1      68.317   5.502   7.558  1.00  0.00     0.277 HD
HETATM   14  C   UNL     1      65.195   6.790   7.031  1.00  0.00     0.150 C 
ENDBRANCH   1   7
BRANCH   2  15
HETATM   15  N   UNL     1      63.794   9.940   5.661  1.00  0.00    -0.397 N 
HETATM   16  H   UNL     1      64.482   9.942   6.366  1.00  0.00     0.156 HD
HETATM   17  H   UNL     1      63.123  10.658   5.627  1.00  0.00     0.156 HD
ENDBRANCH   2  15
TORSDOF 2
ENDMDL
MODEL 6
REMARK VINA RESULT:      -4.1      2.632      4.484
REMARK  2 active torsions:
REMARK  status: ('A' for Active; 'I' for Inactive)
REMARK    1  A    between atoms: N_1  and  C_2 
REMARK    2  A    between atoms: C_4  and  N_5 
ROOT
HETATM    1  C   UNL     1      62.181   9.337   3.195  1.00  0.00     0.056 A 
HETATM    2  C   UNL     1      63.158   8.774   4.065  1.00  0.00     0.052 A 
HETATM    3  C   UNL     1      61.787  10.661   3.480  1.00  0.00     0.031 A 
HETATM    4  C   UNL     1      63.571   9.464   5.220  1.00  0.00     0.031 A 
HETATM    5  C   UNL     1      62.276  11.377   4.580  1.00  0.00     0.002 A 
HETATM    6  C   UNL     1      63.154  10.768   5.464  1.00  0.00     0.002 A 
ENDROOT
BRANCH   1   7
HETATM    7  N   UNL     1      61.622   8.659   2.114  1.00  0.00    -0.376 N 
HETATM    8  C   UNL     1      60.399   7.849   2.231  1.00  0.00     0.150 C 
HETATM    9  C   UNL     1      60.600   6.439   1.627  1.00  0.00     0.252 C 
HETATM   10  N   UNL     1      61.083   6.465   0.231  1.00  0.00    -0.072 N 
HETATM   11  C   UNL     1      62.352   7.222   0.202  1.00  0.00     0.252 C 
HETATM   12  H   UNL     1      60.394   6.922  -0.365  1.00  0.00     0.277 HD
HETATM   13  H   UNL     1      61.230   5.516  -0.111  1.00  0.00     0.277 HD
HETATM   14  C   UNL     1      62.253   8.653   0.779  1.00  0.00     0.150 C 
ENDBRANCH   1   7
BRANCH   2  15
HETATM   15  N   UNL     1      63.654   7.457   3.892  1.00  0.00    -0.397 N 
HETATM   16  H   UNL     1      63.028   6.708   3.763  1.00  0.00     0.156 HD
HETATM   17  H   UNL     1      64.624   7.291   3.902  1.00  0.00     0.156 HD
ENDBRANCH   2  15
TORSDOF 2
ENDMDL
MODEL 7
REMARK VINA RESULT:      -4.0      2.678      3.946
REMARK  2 active torsions:
REMARK  status: ('A' for Active; 'I' for Inactive)
REMARK    1  A    between atoms: N_1  and  C_2 
REMARK    2  A    between atoms: C_4  and  N_5 
ROOT
HETATM    1  C   UNL     1      61.207   8.433   2.712  1.00  0.00     0.056 A 
HETATM    2  C   UNL     1      61.080   8.418   1.293  1.00  0.00     0.052 A 
HETATM    3  C   UNL     1      60.127   7.889   3.437  1.00  0.00     0.031 A 
HETATM    4  C   UNL     1      59.874   8.020   0.687  1.00  0.00     0.031 A 
HETATM    5  C   UNL     1      58.966   7.408   2.819  1.00  0.00     0.002 A 
HETATM    6  C   UNL     1      58.831   7.493   1.441  1.00  0.00     0.002 A 
ENDROOT
BRANCH   1   7
HETATM    7  N   UNL     1      62.316   8.943   3.386  1.00  0.00    -0.376 N 
HETATM    8  C   UNL     1      63.484   8.117   3.730  1.00  0.00     0.150 C 
HETATM    9  C   UNL     1      63.858   8.268   5.223  1.00  0.00     0.252 C 
HETATM   10  N   UNL     1      64.065   9.673   5.633  1.00  0.00    -0.072 N 
HETATM   11  C   UNL     1      62.827  10.422   5.335  1.00  0.00     0.252 C 
HETATM   12  H   UNL     1      64.846  10.073   5.115  1.00  0.00     0.277 HD
HETATM   13  H   UNL     1      64.278   9.723   6.630  1.00  0.00     0.277 HD
HETATM   14  C   UNL     1      62.373  10.340   3.859  1.00  0.00     0.150 C 
ENDBRANCH   1   7
BRANCH   2  15
HETATM   15  N   UNL     1      62.093   8.922   0.439  1.00  0.00    -0.397 N 
HETATM   16  H   UNL     1      62.547   9.767   0.659  1.00  0.00     0.156 HD
HETATM   17  H   UNL     1      62.341   8.428  -0.375  1.00  0.00     0.156 HD
ENDBRANCH   2  15
TORSDOF 2
ENDMDL
MODEL 8
REMARK VINA RESULT:      -4.0      2.084      3.482
REMARK  2 active torsions:
REMARK  status: ('A' for Active; 'I' for Inactive)
REMARK    1  A    between atoms: N_1  and  C_2 
REMARK    2  A    between atoms: C_4  and  N_5 
ROOT
HETATM    1  C   UNL     1      64.152   7.473   5.156  1.00  0.00     0.056 A 
HETATM    2  C   UNL     1      63.024   6.740   4.687  1.00  0.00     0.052 A 
HETATM    3  C   UNL     1      64.068   8.877   5.047  1.00  0.00     0.031 A 
HETATM    4  C   UNL     1      61.972   7.394   4.020  1.00  0.00     0.031 A 
HETATM    5  C   UNL     1      62.972   9.526   4.466  1.00  0.00     0.002 A 
HETATM    6  C   UNL     1      61.931   8.781   3.932  1.00  0.00     0.002 A 
ENDROOT
BRANCH   1   7
HETATM    7  N   UNL     1      65.291   6.881   5.699  1.00  0.00    -0.376 N 
HETATM    8  C   UNL     1      65.423   6.581   7.134  1.00  0.00     0.150 C 
HETATM    9  C   UNL     1      66.752   7.131   7.702  1.00  0.00     0.252 C 
HETATM   10  N   UNL     1      67.941   6.668   6.956  1.00  0.00    -0.072 N 
HETATM   11  C   UNL     1      67.779   7.074   5.545  1.00  0.00     0.252 C 
HETATM   12  H   UNL     1      68.016   5.653   7.019  1.00  0.00     0.277 HD
HETATM   13  H   UNL     1      68.788   7.080   7.348  1.00  0.00     0.277 HD
HETATM   14  C   UNL     1      66.478   6.564   4.881  1.00  0.00     0.150 C 
ENDBRANCH   1   7
BRANCH   2  15
HETATM   15  N   UNL     1      62.967   5.324   4.744  1.00  0.00    -0.397 N 
HETATM   16  H   UNL     1      63.795   4.795   4.680  1.00  0.00     0.156 HD
HETATM   17  H   UNL     1      62.100   4.870   4.847  1.00  0.00     0.156 HD
ENDBRANCH   2  15
TORSDOF 2
ENDMDL
MODEL 9
REMARK VINA RESULT:      -3.9      2.055      5.360
REMARK  2 active torsions:
REMARK  status: ('A' for Active; 'I' for Inactive)
REMARK    1  A    between atoms: N_1  and  C_2 
REMARK    2  A    between atoms: C_4  and  N_5 
ROOT
HETATM    1  C   UNL     1      65.528   6.546   5.968  1.00  0.00     0.056 A 
HETATM    2  C   UNL     1      66.682   6.981   6.681  1.00  0.00     0.052 A 
HETATM    3  C   UNL     1      65.533   5.201   5.541  1.00  0.00     0.031 A 
HETATM    4  C   UNL     1      67.807   6.144   6.801  1.00  0.00     0.031 A 
HETATM    5  C   UNL     1      66.623   4.346   5.748  1.00  0.00     0.002 A 
HETATM    6  C   UNL     1      67.770   4.825   6.361  1.00  0.00     0.002 A 
ENDROOT
BRANCH   1   7
HETATM    7  N   UNL     1      64.434   7.363   5.689  1.00  0.00    -0.376 N 
HETATM    8  C   UNL     1      63.110   7.154   6.297  1.00  0.00     0.150 C 
HETATM    9  C   UNL     1      61.998   7.130   5.223  1.00  0.00     0.252 C 
HETATM   10  N   UNL     1      61.997   8.327   4.357  1.00  0.00    -0.072 N 
HETATM   11  C   UNL     1      63.325   8.429   3.719  1.00  0.00     0.252 C 
HETATM   12  H   UNL     1      61.817   9.160   4.918  1.00  0.00     0.277 HD
HETATM   13  H   UNL     1      61.267   8.251   3.648  1.00  0.00     0.277 HD
HETATM   14  C   UNL     1      64.509   8.468   4.713  1.00  0.00     0.150 C 
ENDBRANCH   1   7
BRANCH   2  15
HETATM   15  N   UNL     1      66.808   8.303   7.179  1.00  0.00    -0.397 N 
HETATM   16  H   UNL     1      66.545   9.067   6.617  1.00  0.00     0.156 HD
HETATM   17  H   UNL     1      67.158   8.456   8.085  1.00  0.00     0.156 HD
ENDBRANCH   2  15
TORSDOF 2
ENDMDL
