MODEL 1
REMARK VINA RESULT:      -4.7      0.000      0.000
REMARK  2 active torsions:
REMARK  status: ('A' for Active; 'I' for Inactive)
REMARK    1  A    between atoms: C_5  and  C_11 
REMARK    2  A    between atoms: C_11  and  O_13 
ROOT
HETATM    1  C   UNL     1      62.815   9.202   3.999  1.00  0.00     0.018 A 
HETATM    2  N   UNL     1      62.878   7.691   2.308  1.00  0.00    -0.298 N 
ATOM      3  HN  UNL     1      62.797   7.224   1.404  1.00  0.00     0.187 HD
HETATM    4  N   UNL     1      63.362   7.175   3.459  1.00  0.00    -0.297 N 
HETATM    5  C   UNL     1      63.344   8.047   4.523  1.00  0.00     0.064 A 
HETATM    6  C   UNL     1      62.528   8.949   2.609  1.00  0.00     0.060 A 
HETATM    7  C   UNL     1      62.594  10.395   4.686  1.00  0.00     0.016 A 
HETATM    8  C   UNL     1      61.967   9.946   1.793  1.00  0.00     0.032 A 
HETATM    9  C   UNL     1      62.030  11.376   3.844  1.00  0.00     0.001 A 
HETATM   10  C   UNL     1      61.728  11.165   2.464  1.00  0.00     0.002 A 
HETATM   11  C   UNL     1      63.800   5.797   3.439  1.00  0.00     0.177 C 
ENDROOT
BRANCH   5  12
HETATM   12  C   UNL     1      63.823   7.697   5.877  1.00  0.00     0.223 C 
BRANCH  12  13
HETATM   13  O   UNL     1      62.692   7.682   6.731  1.00  0.00    -0.395 OA
HETATM   14  H   UNL     1      61.891   7.850   6.210  1.00  0.00     0.209 HD
ENDBRANCH  12  13
ENDBRANCH   5  12
TORSDOF 2
ENDMDL
MODEL 2
REMARK VINA RESULT:      -4.6      2.013      3.236
REMARK  2 active torsions:
REMARK  status: ('A' for Active; 'I' for Inactive)
REMARK    1  A    between atoms: C_5  and  C_11 
REMARK    2  A    between atoms: C_11  and  O_13 
ROOT
HETATM    1  C   UNL     1      62.824   8.481   3.034  1.00  0.00     0.018 A 
HETATM    2  N   UNL     1      61.893  10.550   3.089  1.00  0.00    -0.298 N 
ATOM      3  HN  UNL     1      61.395  11.409   2.856  1.00  0.00     0.187 HD
HETATM    4  N   UNL     1      62.526  10.255   4.245  1.00  0.00    -0.297 N 
HETATM    5  C   UNL     1      63.116   9.012   4.269  1.00  0.00     0.064 A 
HETATM    6  C   UNL     1      62.060   9.469   2.314  1.00  0.00     0.060 A 
HETATM    7  C   UNL     1      63.202   7.224   2.566  1.00  0.00     0.016 A 
HETATM    8  C   UNL     1      61.614   9.225   1.004  1.00  0.00     0.032 A 
HETATM    9  C   UNL     1      62.741   7.005   1.250  1.00  0.00     0.001 A 
HETATM   10  C   UNL     1      61.985   7.958   0.502  1.00  0.00     0.002 A 
HETATM   11  C   UNL     1      62.532  11.266   5.279  1.00  0.00     0.177 C 
ENDROOT
BRANCH   5  12
HETATM   12  C   UNL     1      63.862   8.480   5.428  1.00  0.00     0.223 C 
BRANCH  12  13
HETATM   13  O   UNL     1      65.106   9.158   5.473  1.00  0.00    -0.395 OA
HETATM   14  H   UNL     1      65.801   8.583   5.117  1.00  0.00     0.209 HD
ENDBRANCH  12  13
ENDBRANCH   5  12
TORSDOF 2
ENDMDL
MODEL 3
REMARK VINA RESULT:      -4.6      1.654      2.555
REMARK  2 active torsions:
REMARK  status: ('A' for Active; 'I' for Inactive)
REMARK    1  A    between atoms: C_5  and  C_11 
REMARK    2  A    between atoms: C_11  and  O_13 
ROOT
HETATM    1  C   UNL     1      62.734   8.812   3.343  1.00  0.00     0.018 A 
HETATM    2  N   UNL     1      63.081   9.187   5.553  1.00  0.00    -0.298 N 
ATOM      3  HN  UNL     1      63.139   9.607   6.481  1.00  0.00     0.187 HD
HETATM    4  N   UNL     1      63.424   7.929   5.199  1.00  0.00    -0.297 N 
HETATM    5  C   UNL     1      63.239   7.645   3.865  1.00  0.00     0.064 A 
HETATM    6  C   UNL     1      62.650   9.763   4.423  1.00  0.00     0.060 A 
HETATM    7  C   UNL     1      62.375   9.034   2.014  1.00  0.00     0.016 A 
HETATM    8  C   UNL     1      62.173  11.066   4.203  1.00  0.00     0.032 A 
HETATM    9  C   UNL     1      61.901  10.349   1.823  1.00  0.00     0.001 A 
HETATM   10  C   UNL     1      61.804  11.322   2.864  1.00  0.00     0.002 A 
HETATM   11  C   UNL     1      63.957   7.068   6.231  1.00  0.00     0.177 C 
ENDROOT
BRANCH   5  12
HETATM   12  C   UNL     1      63.547   6.334   3.257  1.00  0.00     0.223 C 
BRANCH  12  13
HETATM   13  O   UNL     1      62.329   5.611   3.181  1.00  0.00    -0.395 OA
HETATM   14  H   UNL     1      61.867   5.840   2.359  1.00  0.00     0.209 HD
ENDBRANCH  12  13
ENDBRANCH   5  12
TORSDOF 2
ENDMDL
MODEL 4
REMARK VINA RESULT:      -4.3      1.855      3.899
REMARK  2 active torsions:
REMARK  status: ('A' for Active; 'I' for Inactive)
REMARK    1  A    between atoms: C_5  and  C_11 
REMARK    2  A    between atoms: C_11  and  O_13 
ROOT
HETATM    1  C   UNL     1      64.144   8.585   4.928  1.00  0.00     0.018 A 
HETATM    2  N   UNL     1      62.967   8.583   2.989  1.00  0.00    -0.298 N 
ATOM      3  HN  UNL     1      62.574   8.342   2.078  1.00  0.00     0.187 HD
HETATM    4  N   UNL     1      62.690   9.670   3.741  1.00  0.00    -0.297 N 
HETATM    5  C   UNL     1      63.381   9.729   4.930  1.00  0.00     0.064 A 
HETATM    6  C   UNL     1      63.869   7.888   3.697  1.00  0.00     0.060 A 
HETATM    7  C   UNL     1      65.025   8.180   5.929  1.00  0.00     0.016 A 
HETATM    8  C   UNL     1      64.508   6.675   3.394  1.00  0.00     0.032 A 
HETATM    9  C   UNL     1      65.653   6.960   5.599  1.00  0.00     0.001 A 
HETATM   10  C   UNL     1      65.410   6.240   4.390  1.00  0.00     0.002 A 
HETATM   11  C   UNL     1      61.750  10.629   3.205  1.00  0.00     0.177 C 
ENDROOT
BRANCH   5  12
HETATM   12  C   UNL     1      63.236  10.827   5.908  1.00  0.00     0.223 C 
BRANCH  12  13
HETATM   13  O   UNL     1      64.531  11.359   6.134  1.00  0.00    -0.395 OA
HETATM   14  H   UNL     1      65.146  10.638   6.339  1.00  0.00     0.209 HD
ENDBRANCH  12  13
ENDBRANCH   5  12
TORSDOF 2
ENDMDL
MODEL 5
REMARK VINA RESULT:      -4.2      2.085      4.356
REMARK  2 active torsions:
REMARK  status: ('A' for Active; 'I' for Inactive)
REMARK    1  A    between atoms: C_5  and  C_11 
REMARK    2  A    between atoms: C_11  and  O_13 
ROOT
HETATM    1  C   UNL     1      63.643   8.080   3.742  1.00  0.00     0.018 A 
HETATM    2  N   UNL     1      64.410   9.208   5.555  1.00  0.00    -0.298 N 
ATOM      3  HN  UNL     1      64.938   9.505   6.377  1.00  0.00     0.187 HD
HETATM    4  N   UNL     1      63.356   9.833   4.986  1.00  0.00    -0.297 N 
HETATM    5  C   UNL     1      62.844   9.190   3.882  1.00  0.00     0.064 A 
HETATM    6  C   UNL     1      64.613   8.114   4.808  1.00  0.00     0.060 A 
HETATM    7  C   UNL     1      63.530   7.102   2.756  1.00  0.00     0.016 A 
HETATM    8  C   UNL     1      65.576   7.100   4.941  1.00  0.00     0.032 A 
HETATM    9  C   UNL     1      64.508   6.097   2.914  1.00  0.00     0.001 A 
HETATM   10  C   UNL     1      65.485   6.092   3.957  1.00  0.00     0.002 A 
HETATM   11  C   UNL     1      62.889  11.052   5.608  1.00  0.00     0.177 C 
ENDROOT
BRANCH   5  12
HETATM   12  C   UNL     1      61.693   9.692   3.103  1.00  0.00     0.223 C 
BRANCH  12  13
HETATM   13  O   UNL     1      60.547   8.984   3.546  1.00  0.00    -0.395 OA
HETATM   14  H   UNL     1      60.376   8.239   2.948  1.00  0.00     0.209 HD
ENDBRANCH  12  13
ENDBRANCH   5  12
TORSDOF 2
ENDMDL
MODEL 6
REMARK VINA RESULT:      -4.2      2.635      3.694
REMARK  2 active torsions:
REMARK  status: ('A' for Active; 'I' for Inactive)
REMARK    1  A    between atoms: C_5  and  C_11 
REMARK    2  A    between atoms: C_11  and  O_13 
ROOT
HETATM    1  C   UNL     1      64.432   7.427   4.024  1.00  0.00     0.018 A 
HETATM    2  N   UNL     1      64.773   8.928   5.691  1.00  0.00    -0.298 N 
ATOM      3  HN  UNL     1      64.705   9.725   6.324  1.00  0.00     0.187 HD
HETATM    4  N   UNL     1      65.677   7.924   5.728  1.00  0.00    -0.297 N 
HETATM    5  C   UNL     1      65.523   6.984   4.735  1.00  0.00     0.064 A 
HETATM    6  C   UNL     1      63.986   8.650   4.642  1.00  0.00     0.060 A 
HETATM    7  C   UNL     1      63.868   6.810   2.908  1.00  0.00     0.016 A 
HETATM    8  C   UNL     1      62.883   9.356   4.135  1.00  0.00     0.032 A 
HETATM    9  C   UNL     1      62.764   7.539   2.421  1.00  0.00     0.001 A 
HETATM   10  C   UNL     1      62.292   8.756   3.002  1.00  0.00     0.002 A 
HETATM   11  C   UNL     1      66.688   7.976   6.760  1.00  0.00     0.177 C 
ENDROOT
BRANCH   5  12
HETATM   12  C   UNL     1      66.396   5.802   4.582  1.00  0.00     0.223 C 
BRANCH  12  13
HETATM   13  O   UNL     1      67.427   6.158   3.675  1.00  0.00    -0.395 OA
HETATM   14  H   UNL     1      68.264   5.764   3.967  1.00  0.00     0.209 HD
ENDBRANCH  12  13
ENDBRANCH   5  12
TORSDOF 2
ENDMDL
MODEL 7
REMARK VINA RESULT:      -4.1      2.052      3.755
REMARK  2 active torsions:
REMARK  status: ('A' for Active; 'I' for Inactive)
REMARK    1  A    between atoms: C_5  and  C_11 
REMARK    2  A    between atoms: C_11  and  O_13 
ROOT
HETATM    1  C   UNL     1      63.436   8.697   3.926  1.00  0.00     0.018 A 
HETATM    2  N   UNL     1      62.784   7.446   2.150  1.00  0.00    -0.298 N 
ATOM      3  HN  UNL     1      62.695   6.718   1.441  1.00  0.00     0.187 HD
HETATM    4  N   UNL     1      62.041   8.568   2.272  1.00  0.00    -0.297 N 
HETATM    5  C   UNL     1      62.395   9.371   3.332  1.00  0.00     0.064 A 
HETATM    6  C   UNL     1      63.661   7.496   3.162  1.00  0.00     0.060 A 
HETATM    7  C   UNL     1      64.144   9.105   5.056  1.00  0.00     0.016 A 
HETATM    8  C   UNL     1      64.676   6.592   3.518  1.00  0.00     0.032 A 
HETATM    9  C   UNL     1      65.156   8.179   5.390  1.00  0.00     0.001 A 
HETATM   10  C   UNL     1      65.413   6.980   4.658  1.00  0.00     0.002 A 
HETATM   11  C   UNL     1      61.011   8.796   1.283  1.00  0.00     0.177 C 
ENDROOT
BRANCH   5  12
HETATM   12  C   UNL     1      61.721  10.645   3.656  1.00  0.00     0.223 C 
BRANCH  12  13
HETATM   13  O   UNL     1      62.116  11.589   2.674  1.00  0.00    -0.395 OA
HETATM   14  H   UNL     1      61.440  11.636   1.979  1.00  0.00     0.209 HD
ENDBRANCH  12  13
ENDBRANCH   5  12
TORSDOF 2
ENDMDL
MODEL 8
REMARK VINA RESULT:      -4.0     12.449     13.964
REMARK  2 active torsions:
REMARK  status: ('A' for Active; 'I' for Inactive)
REMARK    1  A    between atoms: C_5  and  C_11 
REMARK    2  A    between atoms: C_11  and  O_13 
ROOT
HETATM    1  C   UNL     1      56.728   1.997  13.041  1.00  0.00     0.018 A 
HETATM    2  N   UNL     1      56.019   0.688  14.753  1.00  0.00    -0.298 N 
ATOM      3  HN  UNL     1      55.971   0.032  15.533  1.00  0.00     0.187 HD
HETATM    4  N   UNL     1      55.002   1.388  14.204  1.00  0.00    -0.297 N 
HETATM    5  C   UNL     1      55.372   2.198  13.155  1.00  0.00     0.064 A 
HETATM    6  C   UNL     1      57.106   1.042  14.053  1.00  0.00     0.060 A 
HETATM    7  C   UNL     1      57.577   2.602  12.115  1.00  0.00     0.016 A 
HETATM    8  C   UNL     1      58.439   0.622  14.188  1.00  0.00     0.032 A 
HETATM    9  C   UNL     1      58.908   2.162  12.274  1.00  0.00     0.001 A 
HETATM   10  C   UNL     1      59.322   1.216  13.261  1.00  0.00     0.002 A 
HETATM   11  C   UNL     1      53.680   1.183  14.752  1.00  0.00     0.177 C 
ENDROOT
BRANCH   5  12
HETATM   12  C   UNL     1      54.427   3.051  12.406  1.00  0.00     0.223 C 
BRANCH  12  13
HETATM   13  O   UNL     1      54.447   4.332  13.014  1.00  0.00    -0.395 OA
HETATM   14  H   UNL     1      54.273   4.242  13.964  1.00  0.00     0.209 HD
ENDBRANCH  12  13
ENDBRANCH   5  12
TORSDOF 2
ENDMDL
MODEL 9
REMARK VINA RESULT:      -4.0      2.239      2.795
REMARK  2 active torsions:
REMARK  status: ('A' for Active; 'I' for Inactive)
REMARK    1  A    between atoms: C_5  and  C_11 
REMARK    2  A    between atoms: C_11  and  O_13 
ROOT
HETATM    1  C   UNL     1      64.641   8.116   4.750  1.00  0.00     0.018 A 
HETATM    2  N   UNL     1      65.220   6.283   3.544  1.00  0.00    -0.298 N 
ATOM      3  HN  UNL     1      65.255   5.532   2.855  1.00  0.00     0.187 HD
HETATM    4  N   UNL     1      66.073   6.498   4.570  1.00  0.00    -0.297 N 
HETATM    5  C   UNL     1      65.769   7.596   5.341  1.00  0.00     0.064 A 
HETATM    6  C   UNL     1      64.317   7.270   3.629  1.00  0.00     0.060 A 
HETATM    7  C   UNL     1      63.940   9.248   5.163  1.00  0.00     0.016 A 
HETATM    8  C   UNL     1      63.200   7.538   2.820  1.00  0.00     0.032 A 
HETATM    9  C   UNL     1      62.825   9.493   4.334  1.00  0.00     0.001 A 
HETATM   10  C   UNL     1      62.468   8.678   3.216  1.00  0.00     0.002 A 
HETATM   11  C   UNL     1      67.156   5.556   4.744  1.00  0.00     0.177 C 
ENDROOT
BRANCH   5  12
HETATM   12  C   UNL     1      66.563   8.020   6.513  1.00  0.00     0.223 C 
BRANCH  12  13
HETATM   13  O   UNL     1      66.063   7.313   7.635  1.00  0.00    -0.395 OA
HETATM   14  H   UNL     1      66.665   7.432   8.387  1.00  0.00     0.209 HD
ENDBRANCH  12  13
ENDBRANCH   5  12
TORSDOF 2
ENDMDL
