MODEL 1
REMARK VINA RESULT:      -5.2      0.000      0.000
REMARK  3 active torsions:
REMARK  status: ('A' for Active; 'I' for Inactive)
REMARK    1  A    between atoms: C_1  and  C_3 
REMARK    2  A    between atoms: C_8  and  C_12 
REMARK    3  A    between atoms: N_9  and  C_12 
ROOT
HETATM    1  C   UNL     1      63.398   9.074   4.639  1.00  0.00    -0.018 A 
HETATM    2  C   UNL     1      62.951   8.717   3.355  1.00  0.00     0.021 A 
HETATM    3  C   UNL     1      62.139   9.569   2.586  1.00  0.00    -0.032 A 
HETATM    4  C   UNL     1      63.043  10.338   5.129  1.00  0.00     0.013 A 
HETATM    5  C   UNL     1      62.249  11.204   4.371  1.00  0.00     0.001 A 
HETATM    6  C   UNL     1      61.796  10.820   3.109  1.00  0.00     0.009 A 
ENDROOT
BRANCH   1   7
HETATM    7  C   UNL     1      64.204   8.116   5.421  1.00  0.00     0.015 A 
HETATM    8  S   UNL     1      63.467   6.788   6.229  1.00  0.00    -0.101 SA
HETATM    9  C   UNL     1      64.967   6.185   6.776  1.00  0.00     0.050 A 
HETATM   10  C   UNL     1      66.018   6.964   6.363  1.00  0.00     0.008 A 
HETATM   11  C   UNL     1      65.580   8.077   5.591  1.00  0.00     0.020 A 
ENDBRANCH   1   7
BRANCH   3  12
HETATM   12  C   UNL     1      61.647   9.135   1.225  1.00  0.00     0.270 C 
BRANCH  12  13
HETATM   13  N   UNL     1      60.229   8.775   1.262  1.00  0.00    -0.075 N 
HETATM   14  C   UNL     1      59.926   7.721   0.307  1.00  0.00     0.267 C 
HETATM   15  H   UNL     1      59.672   9.598   1.036  1.00  0.00     0.277 HD
HETATM   16  H   UNL     1      60.009   8.434   2.198  1.00  0.00     0.277 HD
ENDBRANCH  12  13
ENDBRANCH   3  12
TORSDOF 3
ENDMDL
MODEL 2
REMARK VINA RESULT:      -4.9      3.123      6.043
REMARK  3 active torsions:
REMARK  status: ('A' for Active; 'I' for Inactive)
REMARK    1  A    between atoms: C_1  and  C_3 
REMARK    2  A    between atoms: C_8  and  C_12 
REMARK    3  A    between atoms: N_9  and  C_12 
ROOT
HETATM    1  C   UNL     1      63.302   8.289   4.585  1.00  0.00    -0.018 A 
HETATM    2  C   UNL     1      64.657   8.460   4.914  1.00  0.00     0.021 A 
HETATM    3  C   UNL     1      65.273   7.722   5.941  1.00  0.00    -0.032 A 
HETATM    4  C   UNL     1      62.573   7.321   5.289  1.00  0.00     0.013 A 
HETATM    5  C   UNL     1      63.174   6.566   6.301  1.00  0.00     0.001 A 
HETATM    6  C   UNL     1      64.514   6.769   6.629  1.00  0.00     0.009 A 
ENDROOT
BRANCH   1   7
HETATM    7  C   UNL     1      62.696   9.131   3.535  1.00  0.00     0.015 A 
HETATM    8  S   UNL     1      62.170  10.733   3.875  1.00  0.00    -0.101 SA
HETATM    9  C   UNL     1      61.713  11.013   2.254  1.00  0.00     0.050 A 
HETATM   10  C   UNL     1      61.948   9.922   1.456  1.00  0.00     0.008 A 
HETATM   11  C   UNL     1      62.506   8.838   2.193  1.00  0.00     0.020 A 
ENDBRANCH   1   7
BRANCH   3  12
HETATM   12  C   UNL     1      66.724   7.959   6.291  1.00  0.00     0.270 C 
BRANCH  12  13
HETATM   13  N   UNL     1      67.128   7.163   7.450  1.00  0.00    -0.075 N 
HETATM   14  C   UNL     1      67.957   6.036   7.054  1.00  0.00     0.267 C 
HETATM   15  H   UNL     1      66.293   6.814   7.919  1.00  0.00     0.277 HD
HETATM   16  H   UNL     1      67.673   7.759   8.074  1.00  0.00     0.277 HD
ENDBRANCH  12  13
ENDBRANCH   3  12
TORSDOF 3
ENDMDL
MODEL 3
REMARK VINA RESULT:      -4.8      2.603      5.533
REMARK  3 active torsions:
REMARK  status: ('A' for Active; 'I' for Inactive)
REMARK    1  A    between atoms: C_1  and  C_3 
REMARK    2  A    between atoms: C_8  and  C_12 
REMARK    3  A    between atoms: N_9  and  C_12 
ROOT
HETATM    1  C   UNL     1      61.985   8.948   3.343  1.00  0.00    -0.018 A 
HETATM    2  C   UNL     1      63.122   8.230   3.754  1.00  0.00     0.021 A 
HETATM    3  C   UNL     1      64.025   8.743   4.701  1.00  0.00    -0.032 A 
HETATM    4  C   UNL     1      61.747  10.194   3.940  1.00  0.00     0.013 A 
HETATM    5  C   UNL     1      62.627  10.713   4.896  1.00  0.00     0.001 A 
HETATM    6  C   UNL     1      63.762   9.994   5.270  1.00  0.00     0.009 A 
ENDROOT
BRANCH   1   7
HETATM    7  C   UNL     1      61.101   8.382   2.306  1.00  0.00     0.015 A 
HETATM    8  S   UNL     1      59.746   7.411   2.729  1.00  0.00    -0.101 SA
HETATM    9  C   UNL     1      59.256   7.245   1.102  1.00  0.00     0.050 A 
HETATM   10  C   UNL     1      60.094   7.907   0.241  1.00  0.00     0.008 A 
HETATM   11  C   UNL     1      61.158   8.555   0.932  1.00  0.00     0.020 A 
ENDBRANCH   1   7
BRANCH   3  12
HETATM   12  C   UNL     1      65.256   7.957   5.090  1.00  0.00     0.270 C 
BRANCH  12  13
HETATM   13  N   UNL     1      65.840   8.463   6.332  1.00  0.00    -0.075 N 
HETATM   14  C   UNL     1      66.545   7.415   7.051  1.00  0.00     0.267 C 
HETATM   15  H   UNL     1      65.094   8.828   6.924  1.00  0.00     0.277 HD
HETATM   16  H   UNL     1      66.508   9.198   6.098  1.00  0.00     0.277 HD
ENDBRANCH  12  13
ENDBRANCH   3  12
TORSDOF 3
ENDMDL
MODEL 4
REMARK VINA RESULT:      -4.5      3.247      6.284
REMARK  3 active torsions:
REMARK  status: ('A' for Active; 'I' for Inactive)
REMARK    1  A    between atoms: C_1  and  C_3 
REMARK    2  A    between atoms: C_8  and  C_12 
REMARK    3  A    between atoms: N_9  and  C_12 
ROOT
HETATM    1  C   UNL     1      64.781   7.519   4.310  1.00  0.00    -0.018 A 
HETATM    2  C   UNL     1      65.709   7.489   5.366  1.00  0.00     0.021 A 
HETATM    3  C   UNL     1      66.645   6.449   5.504  1.00  0.00    -0.032 A 
HETATM    4  C   UNL     1      64.836   6.490   3.360  1.00  0.00     0.013 A 
HETATM    5  C   UNL     1      65.772   5.457   3.473  1.00  0.00     0.001 A 
HETATM    6  C   UNL     1      66.668   5.434   4.542  1.00  0.00     0.009 A 
ENDROOT
BRANCH   1   7
HETATM    7  C   UNL     1      63.786   8.607   4.247  1.00  0.00     0.015 A 
HETATM    8  S   UNL     1      62.609   8.661   2.993  1.00  0.00    -0.101 SA
HETATM    9  C   UNL     1      61.868  10.056   3.639  1.00  0.00     0.050 A 
HETATM   10  C   UNL     1      62.489  10.487   4.784  1.00  0.00     0.008 A 
HETATM   11  C   UNL     1      63.595   9.659   5.130  1.00  0.00     0.020 A 
ENDBRANCH   1   7
BRANCH   3  12
HETATM   12  C   UNL     1      67.604   6.432   6.673  1.00  0.00     0.270 C 
BRANCH  12  13
HETATM   13  N   UNL     1      67.167   7.341   7.732  1.00  0.00    -0.075 N 
HETATM   14  C   UNL     1      66.913   6.627   8.972  1.00  0.00     0.267 C 
HETATM   15  H   UNL     1      66.310   7.808   7.435  1.00  0.00     0.277 HD
HETATM   16  H   UNL     1      67.910   8.021   7.898  1.00  0.00     0.277 HD
ENDBRANCH  12  13
ENDBRANCH   3  12
TORSDOF 3
ENDMDL
MODEL 5
REMARK VINA RESULT:      -4.3      1.575      2.481
REMARK  3 active torsions:
REMARK  status: ('A' for Active; 'I' for Inactive)
REMARK    1  A    between atoms: C_1  and  C_3 
REMARK    2  A    between atoms: C_8  and  C_12 
REMARK    3  A    between atoms: N_9  and  C_12 
ROOT
HETATM    1  C   UNL     1      64.044   7.537   5.056  1.00  0.00    -0.018 A 
HETATM    2  C   UNL     1      63.687   8.707   4.364  1.00  0.00     0.021 A 
HETATM    3  C   UNL     1      62.379   8.923   3.894  1.00  0.00    -0.032 A 
HETATM    4  C   UNL     1      63.041   6.592   5.308  1.00  0.00     0.013 A 
HETATM    5  C   UNL     1      61.732   6.799   4.863  1.00  0.00     0.001 A 
HETATM    6  C   UNL     1      61.404   7.955   4.155  1.00  0.00     0.009 A 
ENDROOT
BRANCH   1   7
HETATM    7  C   UNL     1      65.445   7.341   5.478  1.00  0.00     0.015 A 
HETATM    8  S   UNL     1      65.825   6.493   6.926  1.00  0.00    -0.101 SA
HETATM    9  C   UNL     1      67.505   6.628   6.659  1.00  0.00     0.050 A 
HETATM   10  C   UNL     1      67.791   7.301   5.498  1.00  0.00     0.008 A 
HETATM   11  C   UNL     1      66.608   7.717   4.823  1.00  0.00     0.020 A 
ENDBRANCH   1   7
BRANCH   3  12
HETATM   12  C   UNL     1      62.041  10.177   3.121  1.00  0.00     0.270 C 
BRANCH  12  13
HETATM   13  N   UNL     1      61.315   9.863   1.890  1.00  0.00    -0.075 N 
HETATM   14  C   UNL     1      62.184   9.238   0.907  1.00  0.00     0.267 C 
HETATM   15  H   UNL     1      60.937  10.726   1.500  1.00  0.00     0.277 HD
HETATM   16  H   UNL     1      60.565   9.210   2.118  1.00  0.00     0.277 HD
ENDBRANCH  12  13
ENDBRANCH   3  12
TORSDOF 3
ENDMDL
MODEL 6
REMARK VINA RESULT:      -4.1     10.279     12.223
REMARK  3 active torsions:
REMARK  status: ('A' for Active; 'I' for Inactive)
REMARK    1  A    between atoms: C_1  and  C_3 
REMARK    2  A    between atoms: C_8  and  C_12 
REMARK    3  A    between atoms: N_9  and  C_12 
ROOT
HETATM    1  C   UNL     1      58.310   2.359  11.680  1.00  0.00    -0.018 A 
HETATM    2  C   UNL     1      56.979   2.448  12.122  1.00  0.00     0.021 A 
HETATM    3  C   UNL     1      56.590   2.021  13.404  1.00  0.00    -0.032 A 
HETATM    4  C   UNL     1      59.266   1.862  12.577  1.00  0.00     0.013 A 
HETATM    5  C   UNL     1      58.900   1.450  13.861  1.00  0.00     0.001 A 
HETATM    6  C   UNL     1      57.569   1.524  14.271  1.00  0.00     0.009 A 
ENDROOT
BRANCH   1   7
HETATM    7  C   UNL     1      58.649   2.772  10.304  1.00  0.00     0.015 A 
HETATM    8  S   UNL     1      59.133   1.616   9.125  1.00  0.00    -0.101 SA
HETATM    9  C   UNL     1      59.251   2.798   7.899  1.00  0.00     0.050 A 
HETATM   10  C   UNL     1      58.934   4.051   8.359  1.00  0.00     0.008 A 
HETATM   11  C   UNL     1      58.595   4.038   9.742  1.00  0.00     0.020 A 
ENDBRANCH   1   7
BRANCH   3  12
HETATM   12  C   UNL     1      55.142   2.099  13.831  1.00  0.00     0.270 C 
BRANCH  12  13
HETATM   13  N   UNL     1      54.909   3.240  14.715  1.00  0.00    -0.075 N 
HETATM   14  C   UNL     1      54.357   4.371  13.986  1.00  0.00     0.267 C 
HETATM   15  H   UNL     1      55.794   3.518  15.139  1.00  0.00     0.277 HD
HETATM   16  H   UNL     1      54.237   2.961  15.430  1.00  0.00     0.277 HD
ENDBRANCH  12  13
ENDBRANCH   3  12
TORSDOF 3
ENDMDL
MODEL 7
REMARK VINA RESULT:      -4.1      3.153      6.249
REMARK  3 active torsions:
REMARK  status: ('A' for Active; 'I' for Inactive)
REMARK    1  A    between atoms: C_1  and  C_3 
REMARK    2  A    between atoms: C_8  and  C_12 
REMARK    3  A    between atoms: N_9  and  C_12 
ROOT
HETATM    1  C   UNL     1      64.778   7.898   5.353  1.00  0.00    -0.018 A 
HETATM    2  C   UNL     1      64.467   6.664   5.949  1.00  0.00     0.021 A 
HETATM    3  C   UNL     1      65.437   5.892   6.612  1.00  0.00    -0.032 A 
HETATM    4  C   UNL     1      66.093   8.369   5.469  1.00  0.00     0.013 A 
HETATM    5  C   UNL     1      67.066   7.622   6.140  1.00  0.00     0.001 A 
HETATM    6  C   UNL     1      66.742   6.388   6.703  1.00  0.00     0.009 A 
ENDROOT
BRANCH   1   7
HETATM    7  C   UNL     1      63.730   8.639   4.624  1.00  0.00     0.015 A 
HETATM    8  S   UNL     1      63.031   8.004   3.185  1.00  0.00    -0.101 SA
HETATM    9  C   UNL     1      61.950   9.316   3.036  1.00  0.00     0.050 A 
HETATM   10  C   UNL     1      62.102  10.228   4.050  1.00  0.00     0.008 A 
HETATM   11  C   UNL     1      63.129   9.843   4.958  1.00  0.00     0.020 A 
ENDBRANCH   1   7
BRANCH   3  12
HETATM   12  C   UNL     1      65.073   4.552   7.209  1.00  0.00     0.270 C 
BRANCH  12  13
HETATM   13  N   UNL     1      66.162   4.022   8.030  1.00  0.00    -0.075 N 
HETATM   14  C   UNL     1      66.676   2.775   7.487  1.00  0.00     0.267 C 
HETATM   15  H   UNL     1      65.814   3.856   8.974  1.00  0.00     0.277 HD
HETATM   16  H   UNL     1      66.920   4.705   8.038  1.00  0.00     0.277 HD
ENDBRANCH  12  13
ENDBRANCH   3  12
TORSDOF 3
ENDMDL
MODEL 8
REMARK VINA RESULT:      -4.0      3.745      5.829
REMARK  3 active torsions:
REMARK  status: ('A' for Active; 'I' for Inactive)
REMARK    1  A    between atoms: C_1  and  C_3 
REMARK    2  A    between atoms: C_8  and  C_12 
REMARK    3  A    between atoms: N_9  and  C_12 
ROOT
HETATM    1  C   UNL     1      62.926   6.753   6.064  1.00  0.00    -0.018 A 
HETATM    2  C   UNL     1      64.259   6.516   6.442  1.00  0.00     0.021 A 
HETATM    3  C   UNL     1      65.311   7.350   6.023  1.00  0.00    -0.032 A 
HETATM    4  C   UNL     1      62.659   7.882   5.277  1.00  0.00     0.013 A 
HETATM    5  C   UNL     1      63.691   8.731   4.866  1.00  0.00     0.001 A 
HETATM    6  C   UNL     1      65.010   8.463   5.232  1.00  0.00     0.009 A 
ENDROOT
BRANCH   1   7
HETATM    7  C   UNL     1      61.871   5.814   6.489  1.00  0.00     0.015 A 
HETATM    8  S   UNL     1      62.148   4.116   6.504  1.00  0.00    -0.101 SA
HETATM    9  C   UNL     1      60.598   3.788   7.142  1.00  0.00     0.050 A 
HETATM   10  C   UNL     1      59.871   4.934   7.345  1.00  0.00     0.008 A 
HETATM   11  C   UNL     1      60.599   6.097   6.964  1.00  0.00     0.020 A 
ENDBRANCH   1   7
BRANCH   3  12
HETATM   12  C   UNL     1      66.737   7.041   6.420  1.00  0.00     0.270 C 
BRANCH  12  13
HETATM   13  N   UNL     1      67.087   7.684   7.686  1.00  0.00    -0.075 N 
HETATM   14  C   UNL     1      67.085   6.729   8.783  1.00  0.00     0.267 C 
HETATM   15  H   UNL     1      66.408   8.418   7.884  1.00  0.00     0.277 HD
HETATM   16  H   UNL     1      68.026   8.073   7.601  1.00  0.00     0.277 HD
ENDBRANCH  12  13
ENDBRANCH   3  12
TORSDOF 3
ENDMDL
MODEL 9
REMARK VINA RESULT:      -3.9      3.740      6.349
REMARK  3 active torsions:
REMARK  status: ('A' for Active; 'I' for Inactive)
REMARK    1  A    between atoms: C_1  and  C_3 
REMARK    2  A    between atoms: C_8  and  C_12 
REMARK    3  A    between atoms: N_9  and  C_12 
ROOT
HETATM    1  C   UNL     1      63.438   7.349   5.479  1.00  0.00    -0.018 A 
HETATM    2  C   UNL     1      63.982   6.524   6.478  1.00  0.00     0.021 A 
HETATM    3  C   UNL     1      65.322   6.638   6.889  1.00  0.00    -0.032 A 
HETATM    4  C   UNL     1      64.264   8.332   4.918  1.00  0.00     0.013 A 
HETATM    5  C   UNL     1      65.594   8.471   5.327  1.00  0.00     0.001 A 
HETATM    6  C   UNL     1      66.122   7.625   6.303  1.00  0.00     0.009 A 
ENDROOT
BRANCH   1   7
HETATM    7  C   UNL     1      62.040   7.148   5.050  1.00  0.00     0.015 A 
HETATM    8  S   UNL     1      61.419   7.933   3.651  1.00  0.00    -0.101 SA
HETATM    9  C   UNL     1      59.899   7.170   3.800  1.00  0.00     0.050 A 
HETATM   10  C   UNL     1      59.846   6.333   4.885  1.00  0.00     0.008 A 
HETATM   11  C   UNL     1      61.073   6.325   5.608  1.00  0.00     0.020 A 
ENDBRANCH   1   7
BRANCH   3  12
HETATM   12  C   UNL     1      65.882   5.708   7.940  1.00  0.00     0.270 C 
BRANCH  12  13
HETATM   13  N   UNL     1      66.577   6.451   8.991  1.00  0.00    -0.075 N 
HETATM   14  C   UNL     1      67.936   5.967   9.173  1.00  0.00     0.267 C 
HETATM   15  H   UNL     1      66.065   6.343   9.867  1.00  0.00     0.277 HD
HETATM   16  H   UNL     1      66.620   7.433   8.716  1.00  0.00     0.277 HD
ENDBRANCH  12  13
ENDBRANCH   3  12
TORSDOF 3
ENDMDL
