MODEL 1
REMARK VINA RESULT:      -5.6      0.000      0.000
REMARK  2 active torsions:
REMARK  status: ('A' for Active; 'I' for Inactive)
REMARK    1  A    between atoms: C_8  and  C_12 
REMARK    2  A    between atoms: O_11  and  C_12 
ROOT
HETATM    1  N   UNL     1      62.947   7.624   2.367  1.00  0.00    -0.360 N 
HETATM    2  C   UNL     1      62.697   8.848   2.952  1.00  0.00     0.044 A 
HETATM    3  C   UNL     1      62.498   7.615   1.073  1.00  0.00     0.091 A 
HETATM    4  C   UNL     1      61.954   8.852   0.808  1.00  0.00     0.031 A 
HETATM    5  C   UNL     1      62.076   9.640   1.985  1.00  0.00    -0.008 A 
HETATM    6  C   UNL     1      62.966   9.326   4.246  1.00  0.00     0.039 A 
HETATM    7  C   UNL     1      61.714  10.959   2.314  1.00  0.00     0.014 A 
HETATM    8  C   UNL     1      62.598  10.647   4.563  1.00  0.00    -0.033 A 
HETATM    9  C   UNL     1      61.979  11.449   3.599  1.00  0.00     0.010 A 
HETATM   10  C   UNL     1      63.601   6.510   3.018  1.00  0.00     0.155 C 
ENDROOT
BRANCH   8  11
HETATM   11  C   UNL     1      62.880  11.187   5.941  1.00  0.00     0.203 C 
BRANCH  11  12
HETATM   12  O   UNL     1      64.280  11.334   6.144  1.00  0.00    -0.396 OA
HETATM   13  H   UNL     1      64.588  12.142   5.705  1.00  0.00     0.209 HD
ENDBRANCH  11  12
ENDBRANCH   8  11
TORSDOF 2
ENDMDL
MODEL 2
REMARK VINA RESULT:      -5.0      1.772      2.597
REMARK  2 active torsions:
REMARK  status: ('A' for Active; 'I' for Inactive)
REMARK    1  A    between atoms: C_8  and  C_12 
REMARK    2  A    between atoms: O_11  and  C_12 
ROOT
HETATM    1  N   UNL     1      65.294   6.916   4.535  1.00  0.00    -0.360 N 
HETATM    2  C   UNL     1      64.395   7.962   4.486  1.00  0.00     0.044 A 
HETATM    3  C   UNL     1      65.034   6.019   3.532  1.00  0.00     0.091 A 
HETATM    4  C   UNL     1      63.956   6.489   2.817  1.00  0.00     0.031 A 
HETATM    5  C   UNL     1      63.545   7.715   3.407  1.00  0.00    -0.008 A 
HETATM    6  C   UNL     1      64.260   9.101   5.296  1.00  0.00     0.039 A 
HETATM    7  C   UNL     1      62.525   8.640   3.118  1.00  0.00     0.014 A 
HETATM    8  C   UNL     1      63.235  10.019   4.998  1.00  0.00    -0.033 A 
HETATM    9  C   UNL     1      62.381   9.782   3.916  1.00  0.00     0.010 A 
HETATM   10  C   UNL     1      66.367   6.787   5.496  1.00  0.00     0.155 C 
ENDROOT
BRANCH   8  11
HETATM   11  C   UNL     1      63.070  11.253   5.847  1.00  0.00     0.203 C 
BRANCH  11  12
HETATM   12  O   UNL     1      64.302  11.602   6.466  1.00  0.00    -0.396 OA
HETATM   13  H   UNL     1      64.876  12.041   5.819  1.00  0.00     0.209 HD
ENDBRANCH  11  12
ENDBRANCH   8  11
TORSDOF 2
ENDMDL
MODEL 3
REMARK VINA RESULT:      -4.6      1.728      2.939
REMARK  2 active torsions:
REMARK  status: ('A' for Active; 'I' for Inactive)
REMARK    1  A    between atoms: C_8  and  C_12 
REMARK    2  A    between atoms: O_11  and  C_12 
ROOT
HETATM    1  N   UNL     1      62.946   7.161   4.474  1.00  0.00    -0.360 N 
HETATM    2  C   UNL     1      62.632   8.029   3.448  1.00  0.00     0.044 A 
HETATM    3  C   UNL     1      63.166   5.902   3.981  1.00  0.00     0.091 A 
HETATM    4  C   UNL     1      62.999   5.950   2.615  1.00  0.00     0.031 A 
HETATM    5  C   UNL     1      62.665   7.287   2.266  1.00  0.00    -0.008 A 
HETATM    6  C   UNL     1      62.326   9.399   3.459  1.00  0.00     0.039 A 
HETATM    7  C   UNL     1      62.389   7.933   1.048  1.00  0.00     0.014 A 
HETATM    8  C   UNL     1      62.050  10.035   2.234  1.00  0.00    -0.033 A 
HETATM    9  C   UNL     1      62.084   9.301   1.044  1.00  0.00     0.010 A 
HETATM   10  C   UNL     1      63.044   7.526   5.870  1.00  0.00     0.155 C 
ENDROOT
BRANCH   8  11
HETATM   11  C   UNL     1      61.724  11.506   2.216  1.00  0.00     0.203 C 
BRANCH  11  12
HETATM   12  O   UNL     1      61.893  12.072   3.509  1.00  0.00    -0.396 OA
HETATM   13  H   UNL     1      62.236  11.397   4.115  1.00  0.00     0.209 HD
ENDBRANCH  11  12
ENDBRANCH   8  11
TORSDOF 2
ENDMDL
MODEL 4
REMARK VINA RESULT:      -4.5      1.500      2.179
REMARK  2 active torsions:
REMARK  status: ('A' for Active; 'I' for Inactive)
REMARK    1  A    between atoms: C_8  and  C_12 
REMARK    2  A    between atoms: O_11  and  C_12 
ROOT
HETATM    1  N   UNL     1      62.519   7.644   1.363  1.00  0.00    -0.360 N 
HETATM    2  C   UNL     1      62.891   8.136   2.598  1.00  0.00     0.044 A 
HETATM    3  C   UNL     1      61.624   8.491   0.765  1.00  0.00     0.091 A 
HETATM    4  C   UNL     1      61.415   9.552   1.616  1.00  0.00     0.031 A 
HETATM    5  C   UNL     1      62.211   9.341   2.775  1.00  0.00    -0.008 A 
HETATM    6  C   UNL     1      63.768   7.625   3.569  1.00  0.00     0.039 A 
HETATM    7  C   UNL     1      62.414  10.070   3.961  1.00  0.00     0.014 A 
HETATM    8  C   UNL     1      63.963   8.363   4.752  1.00  0.00    -0.033 A 
HETATM    9  C   UNL     1      63.288   9.574   4.937  1.00  0.00     0.010 A 
HETATM   10  C   UNL     1      63.010   6.417   0.776  1.00  0.00     0.155 C 
ENDROOT
BRANCH   8  11
HETATM   11  C   UNL     1      64.903   7.842   5.808  1.00  0.00     0.203 C 
BRANCH  11  12
HETATM   12  O   UNL     1      65.813   8.856   6.213  1.00  0.00    -0.396 OA
HETATM   13  H   UNL     1      65.769   8.965   7.175  1.00  0.00     0.209 HD
ENDBRANCH  11  12
ENDBRANCH   8  11
TORSDOF 2
ENDMDL
MODEL 5
REMARK VINA RESULT:      -4.5      1.930      3.462
REMARK  2 active torsions:
REMARK  status: ('A' for Active; 'I' for Inactive)
REMARK    1  A    between atoms: C_8  and  C_12 
REMARK    2  A    between atoms: O_11  and  C_12 
ROOT
HETATM    1  N   UNL     1      62.271   9.794   3.243  1.00  0.00    -0.360 N 
HETATM    2  C   UNL     1      63.171   8.839   3.670  1.00  0.00     0.044 A 
HETATM    3  C   UNL     1      61.680   9.399   2.071  1.00  0.00     0.091 A 
HETATM    4  C   UNL     1      62.195   8.168   1.734  1.00  0.00     0.031 A 
HETATM    5  C   UNL     1      63.135   7.802   2.736  1.00  0.00    -0.008 A 
HETATM    6  C   UNL     1      64.008   8.798   4.797  1.00  0.00     0.039 A 
HETATM    7  C   UNL     1      63.959   6.679   2.933  1.00  0.00     0.014 A 
HETATM    8  C   UNL     1      64.829   7.669   4.982  1.00  0.00    -0.033 A 
HETATM    9  C   UNL     1      64.797   6.624   4.054  1.00  0.00     0.010 A 
HETATM   10  C   UNL     1      61.981  11.030   3.935  1.00  0.00     0.155 C 
ENDROOT
BRANCH   8  11
HETATM   11  C   UNL     1      65.733   7.596   6.186  1.00  0.00     0.203 C 
BRANCH  11  12
HETATM   12  O   UNL     1      66.250   8.882   6.503  1.00  0.00    -0.396 OA
HETATM   13  H   UNL     1      66.698   8.848   7.362  1.00  0.00     0.209 HD
ENDBRANCH  11  12
ENDBRANCH   8  11
TORSDOF 2
ENDMDL
MODEL 6
REMARK VINA RESULT:      -4.4      2.131      3.977
REMARK  2 active torsions:
REMARK  status: ('A' for Active; 'I' for Inactive)
REMARK    1  A    between atoms: C_8  and  C_12 
REMARK    2  A    between atoms: O_11  and  C_12 
ROOT
HETATM    1  N   UNL     1      62.408  10.521   3.951  1.00  0.00    -0.360 N 
HETATM    2  C   UNL     1      62.490   9.449   3.086  1.00  0.00     0.044 A 
HETATM    3  C   UNL     1      61.915  11.621   3.298  1.00  0.00     0.091 A 
HETATM    4  C   UNL     1      61.665  11.259   1.993  1.00  0.00     0.031 A 
HETATM    5  C   UNL     1      62.022   9.891   1.847  1.00  0.00    -0.008 A 
HETATM    6  C   UNL     1      62.932   8.131   3.288  1.00  0.00     0.039 A 
HETATM    7  C   UNL     1      61.986   8.987   0.770  1.00  0.00     0.014 A 
HETATM    8  C   UNL     1      62.893   7.236   2.202  1.00  0.00    -0.033 A 
HETATM    9  C   UNL     1      62.422   7.669   0.958  1.00  0.00     0.010 A 
HETATM   10  C   UNL     1      62.776  10.490   5.348  1.00  0.00     0.155 C 
ENDROOT
BRANCH   8  11
HETATM   11  C   UNL     1      63.356   5.815   2.392  1.00  0.00     0.203 C 
BRANCH  11  12
HETATM   12  O   UNL     1      64.163   5.703   3.558  1.00  0.00    -0.396 OA
HETATM   13  H   UNL     1      64.400   4.774   3.698  1.00  0.00     0.209 HD
ENDBRANCH  11  12
ENDBRANCH   8  11
TORSDOF 2
ENDMDL
MODEL 7
REMARK VINA RESULT:      -4.4      2.148      2.330
REMARK  2 active torsions:
REMARK  status: ('A' for Active; 'I' for Inactive)
REMARK    1  A    between atoms: C_8  and  C_12 
REMARK    2  A    between atoms: O_11  and  C_12 
ROOT
HETATM    1  N   UNL     1      60.279   6.731   2.777  1.00  0.00    -0.360 N 
HETATM    2  C   UNL     1      60.888   7.970   2.766  1.00  0.00     0.044 A 
HETATM    3  C   UNL     1      60.031   6.313   1.496  1.00  0.00     0.091 A 
HETATM    4  C   UNL     1      60.489   7.288   0.639  1.00  0.00     0.031 A 
HETATM    5  C   UNL     1      61.034   8.338   1.427  1.00  0.00    -0.008 A 
HETATM    6  C   UNL     1      61.323   8.794   3.817  1.00  0.00     0.039 A 
HETATM    7  C   UNL     1      61.641   9.569   1.121  1.00  0.00     0.014 A 
HETATM    8  C   UNL     1      61.928  10.025   3.498  1.00  0.00    -0.033 A 
HETATM    9  C   UNL     1      62.082  10.400   2.160  1.00  0.00     0.010 A 
HETATM   10  C   UNL     1      59.960   5.974   3.966  1.00  0.00     0.155 C 
ENDROOT
BRANCH   8  11
HETATM   11  C   UNL     1      62.409  10.926   4.606  1.00  0.00     0.203 C 
BRANCH  11  12
HETATM   12  O   UNL     1      62.057  12.278   4.340  1.00  0.00    -0.396 OA
HETATM   13  H   UNL     1      62.064  12.783   5.168  1.00  0.00     0.209 HD
ENDBRANCH  11  12
ENDBRANCH   8  11
TORSDOF 2
ENDMDL
MODEL 8
REMARK VINA RESULT:      -4.2      2.233      3.476
REMARK  2 active torsions:
REMARK  status: ('A' for Active; 'I' for Inactive)
REMARK    1  A    between atoms: C_8  and  C_12 
REMARK    2  A    between atoms: O_11  and  C_12 
ROOT
HETATM    1  N   UNL     1      62.016   6.451   4.417  1.00  0.00    -0.360 N 
HETATM    2  C   UNL     1      62.142   7.799   4.149  1.00  0.00     0.044 A 
HETATM    3  C   UNL     1      62.462   6.174   5.683  1.00  0.00     0.091 A 
HETATM    4  C   UNL     1      62.877   7.357   6.251  1.00  0.00     0.031 A 
HETATM    5  C   UNL     1      62.679   8.390   5.295  1.00  0.00    -0.008 A 
HETATM    6  C   UNL     1      61.828   8.546   3.002  1.00  0.00     0.039 A 
HETATM    7  C   UNL     1      62.906   9.778   5.302  1.00  0.00     0.014 A 
HETATM    8  C   UNL     1      62.062   9.934   3.021  1.00  0.00    -0.033 A 
HETATM    9  C   UNL     1      62.595  10.536   4.165  1.00  0.00     0.010 A 
HETATM   10  C   UNL     1      61.479   5.469   3.501  1.00  0.00     0.155 C 
ENDROOT
BRANCH   8  11
HETATM   11  C   UNL     1      61.729  10.761   1.806  1.00  0.00     0.203 C 
BRANCH  11  12
HETATM   12  O   UNL     1      62.110  12.117   2.003  1.00  0.00    -0.396 OA
HETATM   13  H   UNL     1      61.329  12.640   2.245  1.00  0.00     0.209 HD
ENDBRANCH  11  12
ENDBRANCH   8  11
TORSDOF 2
ENDMDL
MODEL 9
REMARK VINA RESULT:      -4.1      3.139      4.368
REMARK  2 active torsions:
REMARK  status: ('A' for Active; 'I' for Inactive)
REMARK    1  A    between atoms: C_8  and  C_12 
REMARK    2  A    between atoms: O_11  and  C_12 
ROOT
HETATM    1  N   UNL     1      61.953   7.305   5.090  1.00  0.00    -0.360 N 
HETATM    2  C   UNL     1      61.631   7.824   3.852  1.00  0.00     0.044 A 
HETATM    3  C   UNL     1      63.010   7.990   5.630  1.00  0.00     0.091 A 
HETATM    4  C   UNL     1      63.377   8.971   4.738  1.00  0.00     0.031 A 
HETATM    5  C   UNL     1      62.513   8.879   3.613  1.00  0.00    -0.008 A 
HETATM    6  C   UNL     1      60.639   7.457   2.927  1.00  0.00     0.039 A 
HETATM    7  C   UNL     1      62.401   9.601   2.410  1.00  0.00     0.014 A 
HETATM    8  C   UNL     1      60.538   8.186   1.727  1.00  0.00    -0.033 A 
HETATM    9  C   UNL     1      61.415   9.247   1.480  1.00  0.00     0.010 A 
HETATM   10  C   UNL     1      61.269   6.206   5.733  1.00  0.00     0.155 C 
ENDROOT
BRANCH   8  11
HETATM   11  C   UNL     1      59.480   7.818   0.720  1.00  0.00     0.203 C 
BRANCH  11  12
HETATM   12  O   UNL     1      58.200   8.261   1.154  1.00  0.00    -0.396 OA
HETATM   13  H   UNL     1      57.994   7.860   2.013  1.00  0.00     0.209 HD
ENDBRANCH  11  12
ENDBRANCH   8  11
TORSDOF 2
ENDMDL
