MODEL 1
REMARK VINA RESULT:      -5.4      0.000      0.000
REMARK  1 active torsions:
REMARK  status: ('A' for Active; 'I' for Inactive)
REMARK    1  A    between atoms: C_5  and  C_6 
ROOT
HETATM    1  C   UNL     1      62.889   7.960   2.424  1.00  0.00     0.045 A 
HETATM    2  N   UNL     1      63.329   6.691   2.109  1.00  0.00    -0.360 N 
HETATM    3  C   UNL     1      62.986   8.699   3.615  1.00  0.00     0.049 A 
HETATM    4  C   UNL     1      62.998   6.380   0.818  1.00  0.00     0.091 A 
HETATM    5  C   UNL     1      62.451   9.996   3.632  1.00  0.00     0.043 A 
HETATM    6  C   UNL     1      62.347   7.466   0.278  1.00  0.00     0.031 A 
HETATM    7  C   UNL     1      62.274   8.472   1.279  1.00  0.00    -0.008 A 
HETATM    8  C   UNL     1      61.838  10.528   2.493  1.00  0.00     0.019 A 
HETATM    9  C   UNL     1      61.742   9.776   1.314  1.00  0.00     0.015 A 
HETATM   10  C   UNL     1      64.056   5.822   3.009  1.00  0.00     0.155 C 
ENDROOT
BRANCH   5  11
HETATM   11  C   UNL     1      62.519  10.842   4.850  1.00  0.00     0.209 C 
HETATM   12  O   UNL     1      63.010  10.522   5.916  1.00  0.00    -0.644 OA
HETATM   13  O   UNL     1      61.964  12.055   4.676  1.00  0.00    -0.644 OA
ENDBRANCH   5  11
TORSDOF 1
ENDMDL
MODEL 2
REMARK VINA RESULT:      -5.2      1.354      2.149
REMARK  1 active torsions:
REMARK  status: ('A' for Active; 'I' for Inactive)
REMARK    1  A    between atoms: C_5  and  C_6 
ROOT
HETATM    1  C   UNL     1      63.052   7.770   3.226  1.00  0.00     0.045 A 
HETATM    2  N   UNL     1      63.599   6.762   3.991  1.00  0.00    -0.360 N 
HETATM    3  C   UNL     1      62.750   9.107   3.542  1.00  0.00     0.049 A 
HETATM    4  C   UNL     1      63.699   5.610   3.257  1.00  0.00     0.091 A 
HETATM    5  C   UNL     1      62.206   9.916   2.533  1.00  0.00     0.043 A 
HETATM    6  C   UNL     1      63.226   5.875   1.992  1.00  0.00     0.031 A 
HETATM    7  C   UNL     1      62.817   7.236   1.956  1.00  0.00    -0.008 A 
HETATM    8  C   UNL     1      61.971   9.399   1.255  1.00  0.00     0.019 A 
HETATM    9  C   UNL     1      62.270   8.063   0.956  1.00  0.00     0.015 A 
HETATM   10  C   UNL     1      64.025   6.907   5.365  1.00  0.00     0.155 C 
ENDROOT
BRANCH   5  11
HETATM   11  C   UNL     1      61.866  11.338   2.787  1.00  0.00     0.209 C 
HETATM   12  O   UNL     1      61.751  12.207   1.943  1.00  0.00    -0.644 OA
HETATM   13  O   UNL     1      61.686  11.609   4.092  1.00  0.00    -0.644 OA
ENDBRANCH   5  11
TORSDOF 1
ENDMDL
MODEL 3
REMARK VINA RESULT:      -5.1      1.892      2.655
REMARK  1 active torsions:
REMARK  status: ('A' for Active; 'I' for Inactive)
REMARK    1  A    between atoms: C_5  and  C_6 
ROOT
HETATM    1  C   UNL     1      64.646   7.754   4.514  1.00  0.00     0.045 A 
HETATM    2  N   UNL     1      65.647   6.832   4.744  1.00  0.00    -0.360 N 
HETATM    3  C   UNL     1      64.316   8.942   5.190  1.00  0.00     0.049 A 
HETATM    4  C   UNL     1      65.576   5.817   3.828  1.00  0.00     0.091 A 
HETATM    5  C   UNL     1      63.235   9.696   4.707  1.00  0.00     0.043 A 
HETATM    6  C   UNL     1      64.526   6.087   2.981  1.00  0.00     0.031 A 
HETATM    7  C   UNL     1      63.932   7.309   3.399  1.00  0.00    -0.008 A 
HETATM    8  C   UNL     1      62.513   9.269   3.588  1.00  0.00     0.019 A 
HETATM    9  C   UNL     1      62.850   8.079   2.929  1.00  0.00     0.015 A 
HETATM   10  C   UNL     1      66.641   6.936   5.789  1.00  0.00     0.155 C 
ENDROOT
BRANCH   5  11
HETATM   11  C   UNL     1      62.828  10.964   5.361  1.00  0.00     0.209 C 
HETATM   12  O   UNL     1      63.143  11.325   6.479  1.00  0.00    -0.644 OA
HETATM   13  O   UNL     1      62.038  11.725   4.581  1.00  0.00    -0.644 OA
ENDBRANCH   5  11
TORSDOF 1
ENDMDL
MODEL 4
REMARK VINA RESULT:      -5.0      1.898      2.596
REMARK  1 active torsions:
REMARK  status: ('A' for Active; 'I' for Inactive)
REMARK    1  A    between atoms: C_5  and  C_6 
ROOT
HETATM    1  C   UNL     1      62.880   7.981   2.484  1.00  0.00     0.045 A 
HETATM    2  N   UNL     1      62.642   7.352   1.280  1.00  0.00    -0.360 N 
HETATM    3  C   UNL     1      63.699   7.617   3.567  1.00  0.00     0.049 A 
HETATM    4  C   UNL     1      61.753   8.078   0.533  1.00  0.00     0.091 A 
HETATM    5  C   UNL     1      63.754   8.481   4.671  1.00  0.00     0.043 A 
HETATM    6  C   UNL     1      61.419   9.203   1.252  1.00  0.00     0.031 A 
HETATM    7  C   UNL     1      62.126   9.157   2.485  1.00  0.00    -0.008 A 
HETATM    8  C   UNL     1      63.011   9.666   4.686  1.00  0.00     0.019 A 
HETATM    9  C   UNL     1      62.194  10.012   3.601  1.00  0.00     0.015 A 
HETATM   10  C   UNL     1      63.260   6.114   0.858  1.00  0.00     0.155 C 
ENDROOT
BRANCH   5  11
HETATM   11  C   UNL     1      64.599   8.170   5.851  1.00  0.00     0.209 C 
HETATM   12  O   UNL     1      64.396   7.288   6.664  1.00  0.00    -0.644 OA
HETATM   13  O   UNL     1      65.665   8.984   5.961  1.00  0.00    -0.644 OA
ENDBRANCH   5  11
TORSDOF 1
ENDMDL
MODEL 5
REMARK VINA RESULT:      -4.9      1.857      1.947
REMARK  1 active torsions:
REMARK  status: ('A' for Active; 'I' for Inactive)
REMARK    1  A    between atoms: C_5  and  C_6 
ROOT
HETATM    1  C   UNL     1      60.862   7.954   2.666  1.00  0.00     0.045 A 
HETATM    2  N   UNL     1      60.242   6.725   2.573  1.00  0.00    -0.360 N 
HETATM    3  C   UNL     1      61.282   8.691   3.787  1.00  0.00     0.049 A 
HETATM    4  C   UNL     1      60.012   6.407   1.261  1.00  0.00     0.091 A 
HETATM    5  C   UNL     1      61.912   9.926   3.565  1.00  0.00     0.043 A 
HETATM    6  C   UNL     1      60.502   7.435   0.488  1.00  0.00     0.031 A 
HETATM    7  C   UNL     1      61.046   8.416   1.361  1.00  0.00    -0.008 A 
HETATM    8  C   UNL     1      62.110  10.401   2.265  1.00  0.00     0.019 A 
HETATM    9  C   UNL     1      61.680   9.657   1.157  1.00  0.00     0.015 A 
HETATM   10  C   UNL     1      59.903   5.884   3.700  1.00  0.00     0.155 C 
ENDROOT
BRANCH   5  11
HETATM   11  C   UNL     1      62.388  10.761   4.696  1.00  0.00     0.209 C 
HETATM   12  O   UNL     1      63.059  10.377   5.635  1.00  0.00    -0.644 OA
HETATM   13  O   UNL     1      61.998  12.045   4.599  1.00  0.00    -0.644 OA
ENDBRANCH   5  11
TORSDOF 1
ENDMDL
MODEL 6
REMARK VINA RESULT:      -4.9      2.510      3.971
REMARK  1 active torsions:
REMARK  status: ('A' for Active; 'I' for Inactive)
REMARK    1  A    between atoms: C_5  and  C_6 
ROOT
HETATM    1  C   UNL     1      63.219   8.814   3.676  1.00  0.00     0.045 A 
HETATM    2  N   UNL     1      62.294   9.735   3.229  1.00  0.00    -0.360 N 
HETATM    3  C   UNL     1      64.074   8.833   4.791  1.00  0.00     0.049 A 
HETATM    4  C   UNL     1      61.697   9.289   2.080  1.00  0.00     0.091 A 
HETATM    5  C   UNL     1      64.907   7.724   5.003  1.00  0.00     0.043 A 
HETATM    6  C   UNL     1      62.227   8.054   1.783  1.00  0.00     0.031 A 
HETATM    7  C   UNL     1      63.186   7.739   2.783  1.00  0.00    -0.008 A 
HETATM    8  C   UNL     1      64.883   6.637   4.123  1.00  0.00     0.019 A 
HETATM    9  C   UNL     1      64.029   6.635   3.011  1.00  0.00     0.015 A 
HETATM   10  C   UNL     1      61.986  10.982   3.891  1.00  0.00     0.155 C 
ENDROOT
BRANCH   5  11
HETATM   11  C   UNL     1      65.834   7.667   6.161  1.00  0.00     0.209 C 
HETATM   12  O   UNL     1      66.184   6.661   6.748  1.00  0.00    -0.644 OA
HETATM   13  O   UNL     1      66.280   8.880   6.535  1.00  0.00    -0.644 OA
ENDBRANCH   5  11
TORSDOF 1
ENDMDL
MODEL 7
REMARK VINA RESULT:      -4.7      1.527      2.611
REMARK  1 active torsions:
REMARK  status: ('A' for Active; 'I' for Inactive)
REMARK    1  A    between atoms: C_5  and  C_6 
ROOT
HETATM    1  C   UNL     1      62.069   7.968   3.126  1.00  0.00     0.045 A 
HETATM    2  N   UNL     1      61.323   7.187   2.267  1.00  0.00    -0.360 N 
HETATM    3  C   UNL     1      61.829   9.250   3.648  1.00  0.00     0.049 A 
HETATM    4  C   UNL     1      61.965   6.002   2.024  1.00  0.00     0.091 A 
HETATM    5  C   UNL     1      62.778   9.793   4.528  1.00  0.00     0.043 A 
HETATM    6  C   UNL     1      63.137   6.003   2.745  1.00  0.00     0.031 A 
HETATM    7  C   UNL     1      63.215   7.236   3.449  1.00  0.00    -0.008 A 
HETATM    8  C   UNL     1      63.927   9.072   4.868  1.00  0.00     0.019 A 
HETATM    9  C   UNL     1      64.157   7.796   4.334  1.00  0.00     0.015 A 
HETATM   10  C   UNL     1      60.037   7.558   1.721  1.00  0.00     0.155 C 
ENDROOT
BRANCH   5  11
HETATM   11  C   UNL     1      62.593  11.138   5.126  1.00  0.00     0.209 C 
HETATM   12  O   UNL     1      61.964  12.058   4.637  1.00  0.00    -0.644 OA
HETATM   13  O   UNL     1      63.211  11.273   6.314  1.00  0.00    -0.644 OA
ENDBRANCH   5  11
TORSDOF 1
ENDMDL
MODEL 8
REMARK VINA RESULT:      -4.7      2.409      3.344
REMARK  1 active torsions:
REMARK  status: ('A' for Active; 'I' for Inactive)
REMARK    1  A    between atoms: C_5  and  C_6 
ROOT
HETATM    1  C   UNL     1      61.339   7.614   3.983  1.00  0.00     0.045 A 
HETATM    2  N   UNL     1      60.626   6.458   3.742  1.00  0.00    -0.360 N 
HETATM    3  C   UNL     1      61.186   8.914   3.472  1.00  0.00     0.049 A 
HETATM    4  C   UNL     1      61.149   5.418   4.463  1.00  0.00     0.091 A 
HETATM    5  C   UNL     1      62.068   9.908   3.923  1.00  0.00     0.043 A 
HETATM    6  C   UNL     1      62.207   5.905   5.196  1.00  0.00     0.031 A 
HETATM    7  C   UNL     1      62.337   7.291   4.906  1.00  0.00    -0.008 A 
HETATM    8  C   UNL     1      63.068   9.604   4.852  1.00  0.00     0.019 A 
HETATM    9  C   UNL     1      63.213   8.301   5.348  1.00  0.00     0.015 A 
HETATM   10  C   UNL     1      59.477   6.364   2.870  1.00  0.00     0.155 C 
ENDROOT
BRANCH   5  11
HETATM   11  C   UNL     1      61.967  11.306   3.436  1.00  0.00     0.209 C 
HETATM   12  O   UNL     1      62.002  11.662   2.273  1.00  0.00    -0.644 OA
HETATM   13  O   UNL     1      61.828  12.200   4.432  1.00  0.00    -0.644 OA
ENDBRANCH   5  11
TORSDOF 1
ENDMDL
MODEL 9
REMARK VINA RESULT:      -4.5      1.974      2.276
REMARK  1 active torsions:
REMARK  status: ('A' for Active; 'I' for Inactive)
REMARK    1  A    between atoms: C_5  and  C_6 
ROOT
HETATM    1  C   UNL     1      60.960   7.796   2.666  1.00  0.00     0.045 A 
HETATM    2  N   UNL     1      60.269   6.682   2.235  1.00  0.00    -0.360 N 
HETATM    3  C   UNL     1      61.575   8.079   3.897  1.00  0.00     0.049 A 
HETATM    4  C   UNL     1      59.835   6.860   0.949  1.00  0.00     0.091 A 
HETATM    5  C   UNL     1      62.230   9.312   4.039  1.00  0.00     0.043 A 
HETATM    6  C   UNL     1      60.261   8.099   0.529  1.00  0.00     0.031 A 
HETATM    7  C   UNL     1      60.976   8.701   1.601  1.00  0.00    -0.008 A 
HETATM    8  C   UNL     1      62.261  10.227   2.981  1.00  0.00     0.019 A 
HETATM    9  C   UNL     1      61.637   9.933   1.761  1.00  0.00     0.015 A 
HETATM   10  C   UNL     1      60.054   5.489   3.023  1.00  0.00     0.155 C 
ENDROOT
BRANCH   5  11
HETATM   11  C   UNL     1      62.908   9.683   5.306  1.00  0.00     0.209 C 
HETATM   12  O   UNL     1      63.156  10.814   5.680  1.00  0.00    -0.644 OA
HETATM   13  O   UNL     1      63.247   8.615   6.050  1.00  0.00    -0.644 OA
ENDBRANCH   5  11
TORSDOF 1
ENDMDL
