MODEL 1
REMARK VINA RESULT:      -5.5      0.000      0.000
REMARK  3 active torsions:
REMARK  status: ('A' for Active; 'I' for Inactive)
REMARK    1  A    between atoms: N_1  and  C_2 
REMARK    2  A    between atoms: C_3  and  C_6 
REMARK    3  A    between atoms: C_6  and  O_7 
ROOT
HETATM    1  C   UNL     1      63.187   9.167   4.419  1.00  0.00     0.038 A 
HETATM    2  C   UNL     1      62.732  10.486   4.665  1.00  0.00    -0.008 A 
HETATM    3  C   UNL     1      62.821   8.631   3.157  1.00  0.00     0.030 A 
HETATM    4  C   UNL     1      62.058  11.216   3.647  1.00  0.00     0.011 A 
HETATM    5  C   UNL     1      62.145   9.352   2.167  1.00  0.00     0.002 A 
HETATM    6  C   UNL     1      61.771  10.658   2.408  1.00  0.00     0.001 A 
ENDROOT
BRANCH   1   7
HETATM    7  N   UNL     1      63.914   8.380   5.305  1.00  0.00    -0.380 N 
HETATM    8  C   UNL     1      65.361   8.152   5.254  1.00  0.00     0.123 C 
HETATM    9  C   UNL     1      65.514   6.660   5.537  1.00  0.00     0.021 C 
HETATM   10  C   UNL     1      64.427   6.410   6.558  1.00  0.00     0.021 C 
HETATM   11  C   UNL     1      63.279   7.283   6.062  1.00  0.00     0.123 C 
ENDBRANCH   1   7
BRANCH   2  12
HETATM   12  C   UNL     1      62.891  11.242   5.963  1.00  0.00     0.205 C 
BRANCH  12  13
HETATM   13  O   UNL     1      64.263  11.506   6.241  1.00  0.00    -0.396 OA
HETATM   14  H   UNL     1      64.790  11.357   5.441  1.00  0.00     0.209 HD
ENDBRANCH  12  13
ENDBRANCH   2  12
TORSDOF 3
ENDMDL
MODEL 2
REMARK VINA RESULT:      -4.9      1.357      1.691
REMARK  3 active torsions:
REMARK  status: ('A' for Active; 'I' for Inactive)
REMARK    1  A    between atoms: N_1  and  C_2 
REMARK    2  A    between atoms: C_3  and  C_6 
REMARK    3  A    between atoms: C_6  and  O_7 
ROOT
HETATM    1  C   UNL     1      63.026   8.506   3.500  1.00  0.00     0.038 A 
HETATM    2  C   UNL     1      62.355   9.722   3.221  1.00  0.00    -0.008 A 
HETATM    3  C   UNL     1      63.029   7.564   2.440  1.00  0.00     0.030 A 
HETATM    4  C   UNL     1      61.835   9.975   1.921  1.00  0.00     0.011 A 
HETATM    5  C   UNL     1      62.501   7.816   1.168  1.00  0.00     0.002 A 
HETATM    6  C   UNL     1      61.911   9.034   0.902  1.00  0.00     0.001 A 
ENDROOT
BRANCH   1   7
HETATM    7  N   UNL     1      63.635   8.174   4.704  1.00  0.00    -0.380 N 
HETATM    8  C   UNL     1      65.065   8.300   5.002  1.00  0.00     0.123 C 
HETATM    9  C   UNL     1      65.407   7.014   5.747  1.00  0.00     0.021 C 
HETATM   10  C   UNL     1      64.161   6.773   6.569  1.00  0.00     0.021 C 
HETATM   11  C   UNL     1      63.038   7.184   5.623  1.00  0.00     0.123 C 
ENDBRANCH   1   7
BRANCH   2  12
HETATM   12  C   UNL     1      62.115  10.840   4.207  1.00  0.00     0.205 C 
BRANCH  12  13
HETATM   13  O   UNL     1      61.893  12.080   3.540  1.00  0.00    -0.396 OA
HETATM   14  H   UNL     1      61.770  12.783   4.196  1.00  0.00     0.209 HD
ENDBRANCH  12  13
ENDBRANCH   2  12
TORSDOF 3
ENDMDL
MODEL 3
REMARK VINA RESULT:      -4.7      1.153      1.476
REMARK  3 active torsions:
REMARK  status: ('A' for Active; 'I' for Inactive)
REMARK    1  A    between atoms: N_1  and  C_2 
REMARK    2  A    between atoms: C_3  and  C_6 
REMARK    3  A    between atoms: C_6  and  O_7 
ROOT
HETATM    1  C   UNL     1      63.940   8.183   4.773  1.00  0.00     0.038 A 
HETATM    2  C   UNL     1      63.169   9.368   4.664  1.00  0.00    -0.008 A 
HETATM    3  C   UNL     1      63.773   7.258   3.711  1.00  0.00     0.030 A 
HETATM    4  C   UNL     1      62.388   9.612   3.500  1.00  0.00     0.011 A 
HETATM    5  C   UNL     1      62.989   7.501   2.577  1.00  0.00     0.002 A 
HETATM    6  C   UNL     1      62.301   8.691   2.465  1.00  0.00     0.001 A 
ENDROOT
BRANCH   1   7
HETATM    7  N   UNL     1      64.793   7.865   5.823  1.00  0.00    -0.380 N 
HETATM    8  C   UNL     1      66.234   8.133   5.863  1.00  0.00     0.123 C 
HETATM    9  C   UNL     1      66.836   6.859   6.449  1.00  0.00     0.021 C 
HETATM   10  C   UNL     1      65.795   6.447   7.466  1.00  0.00     0.021 C 
HETATM   11  C   UNL     1      64.479   6.775   6.768  1.00  0.00     0.123 C 
ENDBRANCH   1   7
BRANCH   2  12
HETATM   12  C   UNL     1      63.082  10.458   5.705  1.00  0.00     0.205 C 
BRANCH  12  13
HETATM   13  O   UNL     1      64.345  11.089   5.899  1.00  0.00    -0.396 OA
HETATM   14  H   UNL     1      64.208  12.005   6.187  1.00  0.00     0.209 HD
ENDBRANCH  12  13
ENDBRANCH   2  12
TORSDOF 3
ENDMDL
MODEL 4
REMARK VINA RESULT:      -4.6      1.572      4.167
REMARK  3 active torsions:
REMARK  status: ('A' for Active; 'I' for Inactive)
REMARK    1  A    between atoms: N_1  and  C_2 
REMARK    2  A    between atoms: C_3  and  C_6 
REMARK    3  A    between atoms: C_6  and  O_7 
ROOT
HETATM    1  C   UNL     1      63.401   8.339   3.815  1.00  0.00     0.038 A 
HETATM    2  C   UNL     1      63.928   9.114   4.877  1.00  0.00    -0.008 A 
HETATM    3  C   UNL     1      64.166   7.196   3.468  1.00  0.00     0.030 A 
HETATM    4  C   UNL     1      65.082   8.674   5.584  1.00  0.00     0.011 A 
HETATM    5  C   UNL     1      65.309   6.779   4.160  1.00  0.00     0.002 A 
HETATM    6  C   UNL     1      65.763   7.517   5.233  1.00  0.00     0.001 A 
ENDROOT
BRANCH   1   7
HETATM    7  N   UNL     1      62.245   8.626   3.097  1.00  0.00    -0.380 N 
HETATM    8  C   UNL     1      60.903   8.127   3.407  1.00  0.00     0.123 C 
HETATM    9  C   UNL     1      60.323   7.743   2.048  1.00  0.00     0.021 C 
HETATM   10  C   UNL     1      60.883   8.817   1.142  1.00  0.00     0.021 C 
HETATM   11  C   UNL     1      62.298   9.015   1.674  1.00  0.00     0.123 C 
ENDBRANCH   1   7
BRANCH   2  12
HETATM   12  C   UNL     1      63.370  10.429   5.366  1.00  0.00     0.205 C 
BRANCH  12  13
HETATM   13  O   UNL     1      64.330  11.140   6.144  1.00  0.00    -0.396 OA
HETATM   14  H   UNL     1      65.093  11.366   5.588  1.00  0.00     0.209 HD
ENDBRANCH  12  13
ENDBRANCH   2  12
TORSDOF 3
ENDMDL
MODEL 5
REMARK VINA RESULT:      -4.4      1.865      2.655
REMARK  3 active torsions:
REMARK  status: ('A' for Active; 'I' for Inactive)
REMARK    1  A    between atoms: N_1  and  C_2 
REMARK    2  A    between atoms: C_3  and  C_6 
REMARK    3  A    between atoms: C_6  and  O_7 
ROOT
HETATM    1  C   UNL     1      63.014   9.274   4.425  1.00  0.00     0.038 A 
HETATM    2  C   UNL     1      62.682   8.953   3.086  1.00  0.00    -0.008 A 
HETATM    3  C   UNL     1      62.698  10.598   4.822  1.00  0.00     0.030 A 
HETATM    4  C   UNL     1      61.984   9.889   2.274  1.00  0.00     0.011 A 
HETATM    5  C   UNL     1      62.024  11.518   4.010  1.00  0.00     0.002 A 
HETATM    6  C   UNL     1      61.653  11.158   2.732  1.00  0.00     0.001 A 
ENDROOT
BRANCH   1   7
HETATM    7  N   UNL     1      63.631   8.422   5.335  1.00  0.00    -0.380 N 
HETATM    8  C   UNL     1      65.067   8.135   5.397  1.00  0.00     0.123 C 
HETATM    9  C   UNL     1      65.138   6.628   5.625  1.00  0.00     0.021 C 
HETATM   10  C   UNL     1      63.957   6.382   6.537  1.00  0.00     0.021 C 
HETATM   11  C   UNL     1      62.891   7.323   5.985  1.00  0.00     0.123 C 
ENDBRANCH   1   7
BRANCH   2  12
HETATM   12  C   UNL     1      63.009   7.655   2.387  1.00  0.00     0.205 C 
BRANCH  12  13
HETATM   13  O   UNL     1      61.999   6.676   2.616  1.00  0.00    -0.396 OA
HETATM   14  H   UNL     1      61.124   7.082   2.505  1.00  0.00     0.209 HD
ENDBRANCH  12  13
ENDBRANCH   2  12
TORSDOF 3
ENDMDL
MODEL 6
REMARK VINA RESULT:      -4.3      1.990      4.774
REMARK  3 active torsions:
REMARK  status: ('A' for Active; 'I' for Inactive)
REMARK    1  A    between atoms: N_1  and  C_2 
REMARK    2  A    between atoms: C_3  and  C_6 
REMARK    3  A    between atoms: C_6  and  O_7 
ROOT
HETATM    1  C   UNL     1      63.239   8.365   4.846  1.00  0.00     0.038 A 
HETATM    2  C   UNL     1      62.837   7.249   5.621  1.00  0.00    -0.008 A 
HETATM    3  C   UNL     1      64.599   8.740   4.992  1.00  0.00     0.030 A 
HETATM    4  C   UNL     1      63.792   6.525   6.388  1.00  0.00     0.011 A 
HETATM    5  C   UNL     1      65.528   8.030   5.761  1.00  0.00     0.002 A 
HETATM    6  C   UNL     1      65.125   6.908   6.454  1.00  0.00     0.001 A 
ENDROOT
BRANCH   1   7
HETATM    7  N   UNL     1      62.417   9.108   4.005  1.00  0.00    -0.380 N 
HETATM    8  C   UNL     1      61.997   8.715   2.657  1.00  0.00     0.123 C 
HETATM    9  C   UNL     1      62.124   9.995   1.837  1.00  0.00     0.021 C 
HETATM   10  C   UNL     1      61.695  11.057   2.825  1.00  0.00     0.021 C 
HETATM   11  C   UNL     1      62.300  10.573   4.138  1.00  0.00     0.123 C 
ENDBRANCH   1   7
BRANCH   2  12
HETATM   12  C   UNL     1      61.428   6.717   5.730  1.00  0.00     0.205 C 
BRANCH  12  13
HETATM   13  O   UNL     1      61.104   6.387   7.078  1.00  0.00    -0.396 OA
HETATM   14  H   UNL     1      60.816   5.462   7.125  1.00  0.00     0.209 HD
ENDBRANCH  12  13
ENDBRANCH   2  12
TORSDOF 3
ENDMDL
MODEL 7
REMARK VINA RESULT:      -4.3      2.289      3.439
REMARK  3 active torsions:
REMARK  status: ('A' for Active; 'I' for Inactive)
REMARK    1  A    between atoms: N_1  and  C_2 
REMARK    2  A    between atoms: C_3  and  C_6 
REMARK    3  A    between atoms: C_6  and  O_7 
ROOT
HETATM    1  C   UNL     1      62.491   8.466   3.429  1.00  0.00     0.038 A 
HETATM    2  C   UNL     1      62.920   8.750   4.750  1.00  0.00    -0.008 A 
HETATM    3  C   UNL     1      61.950   9.570   2.722  1.00  0.00     0.030 A 
HETATM    4  C   UNL     1      62.891  10.084   5.243  1.00  0.00     0.011 A 
HETATM    5  C   UNL     1      61.912  10.877   3.222  1.00  0.00     0.002 A 
HETATM    6  C   UNL     1      62.398  11.138   4.487  1.00  0.00     0.001 A 
ENDROOT
BRANCH   1   7
HETATM    7  N   UNL     1      62.536   7.221   2.812  1.00  0.00    -0.380 N 
HETATM    8  C   UNL     1      63.747   6.547   2.336  1.00  0.00     0.123 C 
HETATM    9  C   UNL     1      63.348   5.972   0.980  1.00  0.00     0.021 C 
HETATM   10  C   UNL     1      61.913   5.554   1.215  1.00  0.00     0.021 C 
HETATM   11  C   UNL     1      61.367   6.673   2.096  1.00  0.00     0.123 C 
ENDBRANCH   1   7
BRANCH   2  12
HETATM   12  C   UNL     1      63.429   7.735   5.745  1.00  0.00     0.205 C 
BRANCH  12  13
HETATM   13  O   UNL     1      62.684   7.784   6.959  1.00  0.00    -0.396 OA
HETATM   14  H   UNL     1      61.792   8.118   6.778  1.00  0.00     0.209 HD
ENDBRANCH  12  13
ENDBRANCH   2  12
TORSDOF 3
ENDMDL
MODEL 8
REMARK VINA RESULT:      -4.3      2.946      6.181
REMARK  3 active torsions:
REMARK  status: ('A' for Active; 'I' for Inactive)
REMARK    1  A    between atoms: N_1  and  C_2 
REMARK    2  A    between atoms: C_3  and  C_6 
REMARK    3  A    between atoms: C_6  and  O_7 
ROOT
HETATM    1  C   UNL     1      66.055   6.542   6.791  1.00  0.00     0.038 A 
HETATM    2  C   UNL     1      67.078   5.639   6.409  1.00  0.00    -0.008 A 
HETATM    3  C   UNL     1      66.056   6.908   8.161  1.00  0.00     0.030 A 
HETATM    4  C   UNL     1      68.075   5.245   7.344  1.00  0.00     0.011 A 
HETATM    5  C   UNL     1      67.034   6.503   9.078  1.00  0.00     0.002 A 
HETATM    6  C   UNL     1      68.057   5.676   8.664  1.00  0.00     0.001 A 
ENDROOT
BRANCH   1   7
HETATM    7  N   UNL     1      65.070   7.053   5.953  1.00  0.00    -0.380 N 
HETATM    8  C   UNL     1      65.209   8.231   5.092  1.00  0.00     0.123 C 
HETATM    9  C   UNL     1      63.891   8.980   5.266  1.00  0.00     0.021 C 
HETATM   10  C   UNL     1      62.890   7.853   5.384  1.00  0.00     0.021 C 
HETATM   11  C   UNL     1      63.637   6.812   6.212  1.00  0.00     0.123 C 
ENDBRANCH   1   7
BRANCH   2  12
HETATM   12  C   UNL     1      67.232   5.013   5.044  1.00  0.00     0.205 C 
BRANCH  12  13
HETATM   13  O   UNL     1      67.677   5.969   4.085  1.00  0.00    -0.396 OA
HETATM   14  H   UNL     1      67.549   5.615   3.191  1.00  0.00     0.209 HD
ENDBRANCH  12  13
ENDBRANCH   2  12
TORSDOF 3
ENDMDL
MODEL 9
REMARK VINA RESULT:      -4.0     10.998     13.063
REMARK  3 active torsions:
REMARK  status: ('A' for Active; 'I' for Inactive)
REMARK    1  A    between atoms: N_1  and  C_2 
REMARK    2  A    between atoms: C_3  and  C_6 
REMARK    3  A    between atoms: C_6  and  O_7 
ROOT
HETATM    1  C   UNL     1      56.848   2.265  12.835  1.00  0.00     0.038 A 
HETATM    2  C   UNL     1      57.929   2.472  11.942  1.00  0.00    -0.008 A 
HETATM    3  C   UNL     1      57.171   1.546  14.014  1.00  0.00     0.030 A 
HETATM    4  C   UNL     1      59.245   2.068  12.302  1.00  0.00     0.011 A 
HETATM    5  C   UNL     1      58.467   1.139  14.352  1.00  0.00     0.002 A 
HETATM    6  C   UNL     1      59.513   1.412  13.496  1.00  0.00     0.001 A 
ENDROOT
BRANCH   1   7
HETATM    7  N   UNL     1      55.536   2.675  12.628  1.00  0.00    -0.380 N 
HETATM    8  C   UNL     1      54.796   3.622  13.468  1.00  0.00     0.123 C 
HETATM    9  C   UNL     1      53.410   2.999  13.603  1.00  0.00     0.021 C 
HETATM   10  C   UNL     1      53.195   2.386  12.237  1.00  0.00     0.021 C 
HETATM   11  C   UNL     1      54.575   1.840  11.882  1.00  0.00     0.123 C 
ENDBRANCH   1   7
BRANCH   2  12
HETATM   12  C   UNL     1      57.831   3.109  10.576  1.00  0.00     0.205 C 
BRANCH  12  13
HETATM   13  O   UNL     1      58.602   4.306  10.509  1.00  0.00    -0.396 OA
HETATM   14  H   UNL     1      58.906   4.444   9.598  1.00  0.00     0.209 HD
ENDBRANCH  12  13
ENDBRANCH   2  12
TORSDOF 3
ENDMDL
