MODEL 1
REMARK VINA RESULT:      -5.1      0.000      0.000
REMARK  3 active torsions:
REMARK  status: ('A' for Active; 'I' for Inactive)
REMARK    1  A    between atoms: C_1  and  C_2 
REMARK    2  A    between atoms: C_12  and  C_16 
REMARK    3  A    between atoms: O_15  and  C_16 
ROOT
HETATM    1  C   UNL     1      64.237   8.111   4.940  1.00  0.00    -0.023 A 
HETATM    2  C   UNL     1      64.009   7.380   3.759  1.00  0.00     0.013 A 
HETATM    3  C   UNL     1      63.547   9.328   5.081  1.00  0.00     0.013 A 
HETATM    4  C   UNL     1      62.670   9.796   4.093  1.00  0.00     0.010 A 
HETATM    5  C   UNL     1      63.142   7.848   2.765  1.00  0.00     0.010 A 
HETATM    6  C   UNL     1      62.461   9.060   2.923  1.00  0.00    -0.035 A 
ENDROOT
BRANCH   1   7
HETATM    7  C   UNL     1      65.159   7.622   5.982  1.00  0.00     0.005 A 
HETATM    8  C   UNL     1      66.403   8.184   6.232  1.00  0.00     0.102 A 
HETATM    9  N   UNL     1      67.274   7.758   7.176  1.00  0.00    -0.361 N 
HETATM   10  C   UNL     1      66.866   6.716   7.913  1.00  0.00     0.180 A 
ATOM     11  HN  UNL     1      68.182   8.202   7.317  1.00  0.00     0.166 HD
HETATM   12  N   UNL     1      65.695   6.081   7.787  1.00  0.00    -0.361 N 
HETATM   13  C   UNL     1      64.875   6.551   6.820  1.00  0.00     0.102 A 
ATOM     14  HN  UNL     1      65.437   5.294   8.383  1.00  0.00     0.166 HD
ENDBRANCH   1   7
BRANCH   6  15
HETATM   15  C   UNL     1      61.527   9.553   1.850  1.00  0.00     0.202 C 
BRANCH  15  16
HETATM   16  O   UNL     1      61.312  10.951   1.983  1.00  0.00    -0.396 OA
HETATM   17  H   UNL     1      60.479  11.192   1.549  1.00  0.00     0.209 HD
ENDBRANCH  15  16
ENDBRANCH   6  15
TORSDOF 3
ENDMDL
MODEL 2
REMARK VINA RESULT:      -5.0      1.431      2.257
REMARK  3 active torsions:
REMARK  status: ('A' for Active; 'I' for Inactive)
REMARK    1  A    between atoms: C_1  and  C_2 
REMARK    2  A    between atoms: C_12  and  C_16 
REMARK    3  A    between atoms: O_15  and  C_16 
ROOT
HETATM    1  C   UNL     1      64.482   7.189   6.169  1.00  0.00    -0.023 A 
HETATM    2  C   UNL     1      64.805   8.194   5.238  1.00  0.00     0.013 A 
HETATM    3  C   UNL     1      63.144   6.759   6.206  1.00  0.00     0.013 A 
HETATM    4  C   UNL     1      62.173   7.301   5.354  1.00  0.00     0.010 A 
HETATM    5  C   UNL     1      63.837   8.746   4.392  1.00  0.00     0.010 A 
HETATM    6  C   UNL     1      62.510   8.303   4.439  1.00  0.00    -0.035 A 
ENDROOT
BRANCH   1   7
HETATM    7  C   UNL     1      65.501   6.616   7.068  1.00  0.00     0.005 A 
HETATM    8  C   UNL     1      65.429   5.333   7.592  1.00  0.00     0.102 A 
HETATM    9  N   UNL     1      66.343   4.777   8.422  1.00  0.00    -0.361 N 
HETATM   10  C   UNL     1      67.390   5.554   8.732  1.00  0.00     0.180 A 
ATOM     11  HN  UNL     1      66.241   3.830   8.786  1.00  0.00     0.166 HD
HETATM   12  N   UNL     1      67.593   6.803   8.297  1.00  0.00    -0.361 N 
HETATM   13  C   UNL     1      66.637   7.301   7.479  1.00  0.00     0.102 A 
ATOM     14  HN  UNL     1      68.414   7.345   8.565  1.00  0.00     0.166 HD
ENDBRANCH   1   7
BRANCH   6  15
HETATM   15  C   UNL     1      61.476   8.900   3.523  1.00  0.00     0.202 C 
BRANCH  15  16
HETATM   16  O   UNL     1      61.247  10.262   3.853  1.00  0.00    -0.396 OA
HETATM   17  H   UNL     1      62.062  10.769   3.717  1.00  0.00     0.209 HD
ENDBRANCH  15  16
ENDBRANCH   6  15
TORSDOF 3
ENDMDL
MODEL 3
REMARK VINA RESULT:      -4.7      3.961      5.945
REMARK  3 active torsions:
REMARK  status: ('A' for Active; 'I' for Inactive)
REMARK    1  A    between atoms: C_1  and  C_2 
REMARK    2  A    between atoms: C_12  and  C_16 
REMARK    3  A    between atoms: O_15  and  C_16 
ROOT
HETATM    1  C   UNL     1      63.760   8.112   4.833  1.00  0.00    -0.023 A 
HETATM    2  C   UNL     1      65.091   8.444   5.146  1.00  0.00     0.013 A 
HETATM    3  C   UNL     1      63.180   7.052   5.553  1.00  0.00     0.013 A 
HETATM    4  C   UNL     1      63.890   6.358   6.541  1.00  0.00     0.010 A 
HETATM    5  C   UNL     1      65.808   7.746   6.124  1.00  0.00     0.010 A 
HETATM    6  C   UNL     1      65.214   6.698   6.834  1.00  0.00    -0.035 A 
ENDROOT
BRANCH   1   7
HETATM    7  C   UNL     1      63.008   8.841   3.794  1.00  0.00     0.005 A 
HETATM    8  C   UNL     1      62.386  10.062   4.010  1.00  0.00     0.102 A 
HETATM    9  N   UNL     1      61.686  10.755   3.082  1.00  0.00    -0.361 N 
HETATM   10  C   UNL     1      61.616  10.190   1.869  1.00  0.00     0.180 A 
ATOM     11  HN  UNL     1      61.241  11.649   3.292  1.00  0.00     0.166 HD
HETATM   12  N   UNL     1      62.170   9.024   1.517  1.00  0.00    -0.361 N 
HETATM   13  C   UNL     1      62.848   8.379   2.494  1.00  0.00     0.102 A 
ATOM     14  HN  UNL     1      62.086   8.645   0.574  1.00  0.00     0.166 HD
ENDBRANCH   1   7
BRANCH   6  15
HETATM   15  C   UNL     1      65.993   5.955   7.887  1.00  0.00     0.202 C 
BRANCH  15  16
HETATM   16  O   UNL     1      65.556   4.606   7.970  1.00  0.00    -0.396 OA
HETATM   17  H   UNL     1      64.727   4.565   8.471  1.00  0.00     0.209 HD
ENDBRANCH  15  16
ENDBRANCH   6  15
TORSDOF 3
ENDMDL
MODEL 4
REMARK VINA RESULT:      -4.6      4.076      5.988
REMARK  3 active torsions:
REMARK  status: ('A' for Active; 'I' for Inactive)
REMARK    1  A    between atoms: C_1  and  C_2 
REMARK    2  A    between atoms: C_12  and  C_16 
REMARK    3  A    between atoms: O_15  and  C_16 
ROOT
HETATM    1  C   UNL     1      63.457   7.823   3.326  1.00  0.00    -0.023 A 
HETATM    2  C   UNL     1      64.409   6.786   3.298  1.00  0.00     0.013 A 
HETATM    3  C   UNL     1      63.615   8.808   4.317  1.00  0.00     0.013 A 
HETATM    4  C   UNL     1      64.672   8.765   5.236  1.00  0.00     0.010 A 
HETATM    5  C   UNL     1      65.460   6.734   4.221  1.00  0.00     0.010 A 
HETATM    6  C   UNL     1      65.604   7.725   5.197  1.00  0.00    -0.035 A 
ENDROOT
BRANCH   1   7
HETATM    7  C   UNL     1      62.344   7.872   2.360  1.00  0.00     0.005 A 
HETATM    8  C   UNL     1      62.382   7.268   1.111  1.00  0.00     0.102 A 
HETATM    9  N   UNL     1      61.382   7.297   0.200  1.00  0.00    -0.361 N 
HETATM   10  C   UNL     1      60.281   7.963   0.571  1.00  0.00     0.180 A 
ATOM     11  HN  UNL     1      61.462   6.841  -0.709  1.00  0.00     0.166 HD
HETATM   12  N   UNL     1      60.101   8.586   1.742  1.00  0.00    -0.361 N 
HETATM   13  C   UNL     1      61.143   8.526   2.603  1.00  0.00     0.102 A 
ATOM     14  HN  UNL     1      59.236   9.074   1.971  1.00  0.00     0.166 HD
ENDBRANCH   1   7
BRANCH   6  15
HETATM   15  C   UNL     1      66.740   7.661   6.184  1.00  0.00     0.202 C 
BRANCH  15  16
HETATM   16  O   UNL     1      66.830   8.874   6.916  1.00  0.00    -0.396 OA
HETATM   17  H   UNL     1      66.926   8.675   7.861  1.00  0.00     0.209 HD
ENDBRANCH  15  16
ENDBRANCH   6  15
TORSDOF 3
ENDMDL
MODEL 5
REMARK VINA RESULT:      -4.5      4.113      6.228
REMARK  3 active torsions:
REMARK  status: ('A' for Active; 'I' for Inactive)
REMARK    1  A    between atoms: C_1  and  C_2 
REMARK    2  A    between atoms: C_12  and  C_16 
REMARK    3  A    between atoms: O_15  and  C_16 
ROOT
HETATM    1  C   UNL     1      62.794   7.941   3.409  1.00  0.00    -0.023 A 
HETATM    2  C   UNL     1      63.101   8.936   4.356  1.00  0.00     0.013 A 
HETATM    3  C   UNL     1      63.744   6.921   3.224  1.00  0.00     0.013 A 
HETATM    4  C   UNL     1      64.942   6.891   3.950  1.00  0.00     0.010 A 
HETATM    5  C   UNL     1      64.301   8.916   5.075  1.00  0.00     0.010 A 
HETATM    6  C   UNL     1      65.233   7.891   4.881  1.00  0.00    -0.035 A 
ENDROOT
BRANCH   1   7
HETATM    7  C   UNL     1      61.533   7.969   2.644  1.00  0.00     0.005 A 
HETATM    8  C   UNL     1      60.297   7.645   3.187  1.00  0.00     0.102 A 
HETATM    9  N   UNL     1      59.124   7.655   2.514  1.00  0.00    -0.361 N 
HETATM   10  C   UNL     1      59.198   8.020   1.227  1.00  0.00     0.180 A 
ATOM     11  HN  UNL     1      58.240   7.403   2.957  1.00  0.00     0.166 HD
HETATM   12  N   UNL     1      60.316   8.363   0.575  1.00  0.00    -0.361 N 
HETATM   13  C   UNL     1      61.455   8.323   1.304  1.00  0.00     0.102 A 
ATOM     14  HN  UNL     1      60.310   8.638  -0.407  1.00  0.00     0.166 HD
ENDBRANCH   1   7
BRANCH   6  15
HETATM   15  C   UNL     1      66.521   7.876   5.662  1.00  0.00     0.202 C 
BRANCH  15  16
HETATM   16  O   UNL     1      66.517   8.899   6.647  1.00  0.00    -0.396 OA
HETATM   17  H   UNL     1      66.101   9.696   6.284  1.00  0.00     0.209 HD
ENDBRANCH  15  16
ENDBRANCH   6  15
TORSDOF 3
ENDMDL
MODEL 6
REMARK VINA RESULT:      -4.2      2.100      2.432
REMARK  3 active torsions:
REMARK  status: ('A' for Active; 'I' for Inactive)
REMARK    1  A    between atoms: C_1  and  C_2 
REMARK    2  A    between atoms: C_12  and  C_16 
REMARK    3  A    between atoms: O_15  and  C_16 
ROOT
HETATM    1  C   UNL     1      63.896   7.507   4.562  1.00  0.00    -0.023 A 
HETATM    2  C   UNL     1      62.999   6.589   5.140  1.00  0.00     0.013 A 
HETATM    3  C   UNL     1      63.355   8.456   3.675  1.00  0.00     0.013 A 
HETATM    4  C   UNL     1      61.986   8.492   3.381  1.00  0.00     0.010 A 
HETATM    5  C   UNL     1      61.632   6.615   4.841  1.00  0.00     0.010 A 
HETATM    6  C   UNL     1      61.111   7.568   3.960  1.00  0.00    -0.035 A 
ENDROOT
BRANCH   1   7
HETATM    7  C   UNL     1      65.338   7.473   4.869  1.00  0.00     0.005 A 
HETATM    8  C   UNL     1      66.271   6.790   4.103  1.00  0.00     0.102 A 
HETATM    9  N   UNL     1      67.599   6.734   4.359  1.00  0.00    -0.361 N 
HETATM   10  C   UNL     1      68.009   7.411   5.440  1.00  0.00     0.180 A 
ATOM     11  HN  UNL     1      68.245   6.212   3.767  1.00  0.00     0.166 HD
HETATM   12  N   UNL     1      67.225   8.116   6.264  1.00  0.00    -0.361 N 
HETATM   13  C   UNL     1      65.907   8.123   5.956  1.00  0.00     0.102 A 
ATOM     14  HN  UNL     1      67.596   8.616   7.072  1.00  0.00     0.166 HD
ENDBRANCH   1   7
BRANCH   6  15
HETATM   15  C   UNL     1      59.638   7.590   3.646  1.00  0.00     0.202 C 
BRANCH  15  16
HETATM   16  O   UNL     1      59.409   8.180   2.375  1.00  0.00    -0.396 OA
HETATM   17  H   UNL     1      59.067   9.080   2.494  1.00  0.00     0.209 HD
ENDBRANCH  15  16
ENDBRANCH   6  15
TORSDOF 3
ENDMDL
MODEL 7
REMARK VINA RESULT:      -4.2      3.961      5.817
REMARK  3 active torsions:
REMARK  status: ('A' for Active; 'I' for Inactive)
REMARK    1  A    between atoms: C_1  and  C_2 
REMARK    2  A    between atoms: C_12  and  C_16 
REMARK    3  A    between atoms: O_15  and  C_16 
ROOT
HETATM    1  C   UNL     1      64.566   8.014   4.856  1.00  0.00    -0.023 A 
HETATM    2  C   UNL     1      65.736   8.374   5.549  1.00  0.00     0.013 A 
HETATM    3  C   UNL     1      64.384   6.647   4.577  1.00  0.00     0.013 A 
HETATM    4  C   UNL     1      65.322   5.685   4.973  1.00  0.00     0.010 A 
HETATM    5  C   UNL     1      66.681   7.418   5.937  1.00  0.00     0.010 A 
HETATM    6  C   UNL     1      66.482   6.062   5.655  1.00  0.00    -0.035 A 
ENDROOT
BRANCH   1   7
HETATM    7  C   UNL     1      63.576   9.024   4.438  1.00  0.00     0.005 A 
HETATM    8  C   UNL     1      63.312  10.184   5.154  1.00  0.00     0.102 A 
HETATM    9  N   UNL     1      62.409  11.128   4.802  1.00  0.00    -0.361 N 
HETATM   10  C   UNL     1      61.742  10.895   3.664  1.00  0.00     0.180 A 
ATOM     11  HN  UNL     1      62.248  11.963   5.366  1.00  0.00     0.166 HD
HETATM   12  N   UNL     1      61.896   9.827   2.872  1.00  0.00    -0.361 N 
HETATM   13  C   UNL     1      62.808   8.918   3.286  1.00  0.00     0.102 A 
ATOM     14  HN  UNL     1      61.361   9.707   2.012  1.00  0.00     0.166 HD
ENDBRANCH   1   7
BRANCH   6  15
HETATM   15  C   UNL     1      67.503   5.039   6.079  1.00  0.00     0.202 C 
BRANCH  15  16
HETATM   16  O   UNL     1      68.075   5.396   7.328  1.00  0.00    -0.396 OA
HETATM   17  H   UNL     1      69.041   5.340   7.269  1.00  0.00     0.209 HD
ENDBRANCH  15  16
ENDBRANCH   6  15
TORSDOF 3
ENDMDL
MODEL 8
REMARK VINA RESULT:      -4.1      4.121      5.788
REMARK  3 active torsions:
REMARK  status: ('A' for Active; 'I' for Inactive)
REMARK    1  A    between atoms: C_1  and  C_2 
REMARK    2  A    between atoms: C_12  and  C_16 
REMARK    3  A    between atoms: O_15  and  C_16 
ROOT
HETATM    1  C   UNL     1      62.770   7.443   4.987  1.00  0.00    -0.023 A 
HETATM    2  C   UNL     1      63.247   6.729   6.102  1.00  0.00     0.013 A 
HETATM    3  C   UNL     1      63.689   8.272   4.319  1.00  0.00     0.013 A 
HETATM    4  C   UNL     1      65.021   8.383   4.739  1.00  0.00     0.010 A 
HETATM    5  C   UNL     1      64.573   6.845   6.532  1.00  0.00     0.010 A 
HETATM    6  C   UNL     1      65.475   7.671   5.853  1.00  0.00    -0.035 A 
ENDROOT
BRANCH   1   7
HETATM    7  C   UNL     1      61.368   7.329   4.541  1.00  0.00     0.005 A 
HETATM    8  C   UNL     1      60.798   8.154   3.582  1.00  0.00     0.102 A 
HETATM    9  N   UNL     1      59.516   8.079   3.153  1.00  0.00    -0.361 N 
HETATM   10  C   UNL     1      58.773   7.117   3.715  1.00  0.00     0.180 A 
ATOM     11  HN  UNL     1      59.141   8.715   2.448  1.00  0.00     0.166 HD
HETATM   12  N   UNL     1      59.191   6.248   4.643  1.00  0.00    -0.361 N 
HETATM   13  C   UNL     1      60.479   6.383   5.034  1.00  0.00     0.102 A 
ATOM     14  HN  UNL     1      58.579   5.531   5.032  1.00  0.00     0.166 HD
ENDBRANCH   1   7
BRANCH   6  15
HETATM   15  C   UNL     1      66.901   7.786   6.321  1.00  0.00     0.202 C 
BRANCH  15  16
HETATM   16  O   UNL     1      66.947   8.184   7.684  1.00  0.00    -0.396 OA
HETATM   17  H   UNL     1      66.196   8.766   7.876  1.00  0.00     0.209 HD
ENDBRANCH  15  16
ENDBRANCH   6  15
TORSDOF 3
ENDMDL
MODEL 9
REMARK VINA RESULT:      -4.0      2.949      4.021
REMARK  3 active torsions:
REMARK  status: ('A' for Active; 'I' for Inactive)
REMARK    1  A    between atoms: C_1  and  C_2 
REMARK    2  A    between atoms: C_12  and  C_16 
REMARK    3  A    between atoms: O_15  and  C_16 
ROOT
HETATM    1  C   UNL     1      62.917   7.401   3.059  1.00  0.00    -0.023 A 
HETATM    2  C   UNL     1      63.147   8.242   4.164  1.00  0.00     0.013 A 
HETATM    3  C   UNL     1      62.319   7.983   1.927  1.00  0.00     0.013 A 
HETATM    4  C   UNL     1      61.968   9.339   1.895  1.00  0.00     0.010 A 
HETATM    5  C   UNL     1      62.789   9.594   4.141  1.00  0.00     0.010 A 
HETATM    6  C   UNL     1      62.198  10.158   3.005  1.00  0.00    -0.035 A 
ENDROOT
BRANCH   1   7
HETATM    7  C   UNL     1      63.286   5.973   3.088  1.00  0.00     0.005 A 
HETATM    8  C   UNL     1      63.106   5.111   2.015  1.00  0.00     0.102 A 
HETATM    9  N   UNL     1      63.428   3.797   2.009  1.00  0.00    -0.361 N 
HETATM   10  C   UNL     1      63.968   3.328   3.142  1.00  0.00     0.180 A 
ATOM     11  HN  UNL     1      63.271   3.202   1.195  1.00  0.00     0.166 HD
HETATM   12  N   UNL     1      64.204   4.043   4.249  1.00  0.00    -0.361 N 
HETATM   13  C   UNL     1      63.851   5.347   4.191  1.00  0.00     0.102 A 
ATOM     14  HN  UNL     1      64.624   3.631   5.082  1.00  0.00     0.166 HD
ENDBRANCH   1   7
BRANCH   6  15
HETATM   15  C   UNL     1      61.819  11.615   2.988  1.00  0.00     0.202 C 
BRANCH  15  16
HETATM   16  O   UNL     1      62.023  12.196   4.267  1.00  0.00    -0.396 OA
HETATM   17  H   UNL     1      61.855  11.533   4.955  1.00  0.00     0.209 HD
ENDBRANCH  15  16
ENDBRANCH   6  15
TORSDOF 3
ENDMDL
