MODEL 1
REMARK VINA RESULT:      -5.2      0.000      0.000
REMARK  2 active torsions:
REMARK  status: ('A' for Active; 'I' for Inactive)
REMARK    1  A    between atoms: C_8  and  C_12 
REMARK    2  A    between atoms: N_10  and  C_12 
ROOT
HETATM    1  N   UNL     1      62.894   7.547   2.410  1.00  0.00    -0.360 N 
HETATM    2  C   UNL     1      62.620   8.819   2.869  1.00  0.00     0.044 A 
HETATM    3  C   UNL     1      62.568   7.440   1.084  1.00  0.00     0.091 A 
HETATM    4  C   UNL     1      62.084   8.660   0.670  1.00  0.00     0.031 A 
HETATM    5  C   UNL     1      62.114   9.540   1.786  1.00  0.00    -0.008 A 
HETATM    6  C   UNL     1      62.777   9.396   4.141  1.00  0.00     0.039 A 
HETATM    7  C   UNL     1      61.757  10.889   1.972  1.00  0.00     0.014 A 
HETATM    8  C   UNL     1      62.415  10.744   4.317  1.00  0.00    -0.031 A 
HETATM    9  C   UNL     1      61.915  11.476   3.235  1.00  0.00     0.010 A 
HETATM   10  C   UNL     1      63.464   6.485   3.208  1.00  0.00     0.155 C 
ENDROOT
BRANCH   8  11
HETATM   11  C   UNL     1      62.582  11.400   5.666  1.00  0.00     0.268 C 
BRANCH  11  12
HETATM   12  N   UNL     1      63.934  11.220   6.186  1.00  0.00    -0.075 N 
HETATM   13  H   UNL     1      64.025  11.714   7.074  1.00  0.00     0.274 HD
HETATM   14  H   UNL     1      64.608  11.594   5.518  1.00  0.00     0.274 HD
HETATM   15  H   UNL     1      64.112  10.226   6.330  1.00  0.00     0.274 HD
ENDBRANCH  11  12
ENDBRANCH   8  11
TORSDOF 2
ENDMDL
MODEL 2
REMARK VINA RESULT:      -4.5      1.750      2.617
REMARK  2 active torsions:
REMARK  status: ('A' for Active; 'I' for Inactive)
REMARK    1  A    between atoms: C_8  and  C_12 
REMARK    2  A    between atoms: N_10  and  C_12 
ROOT
HETATM    1  N   UNL     1      65.204   6.823   4.556  1.00  0.00    -0.360 N 
HETATM    2  C   UNL     1      64.282   7.834   4.380  1.00  0.00     0.044 A 
HETATM    3  C   UNL     1      65.074   5.884   3.566  1.00  0.00     0.091 A 
HETATM    4  C   UNL     1      64.060   6.293   2.730  1.00  0.00     0.031 A 
HETATM    5  C   UNL     1      63.554   7.523   3.230  1.00  0.00    -0.008 A 
HETATM    6  C   UNL     1      64.030   8.995   5.131  1.00  0.00     0.039 A 
HETATM    7  C   UNL     1      62.542   8.404   2.806  1.00  0.00     0.014 A 
HETATM    8  C   UNL     1      63.014   9.867   4.700  1.00  0.00    -0.031 A 
HETATM    9  C   UNL     1      62.285   9.568   3.544  1.00  0.00     0.010 A 
HETATM   10  C   UNL     1      66.183   6.771   5.619  1.00  0.00     0.155 C 
ENDROOT
BRANCH   8  11
HETATM   11  C   UNL     1      62.725  11.130   5.475  1.00  0.00     0.268 C 
BRANCH  11  12
HETATM   12  N   UNL     1      63.836  11.489   6.350  1.00  0.00    -0.075 N 
HETATM   13  H   UNL     1      64.264  12.354   6.017  1.00  0.00     0.274 HD
HETATM   14  H   UNL     1      64.531  10.742   6.342  1.00  0.00     0.274 HD
HETATM   15  H   UNL     1      63.490  11.624   7.300  1.00  0.00     0.274 HD
ENDBRANCH  11  12
ENDBRANCH   8  11
TORSDOF 2
ENDMDL
MODEL 3
REMARK VINA RESULT:      -4.5      2.406      4.144
REMARK  2 active torsions:
REMARK  status: ('A' for Active; 'I' for Inactive)
REMARK    1  A    between atoms: C_8  and  C_12 
REMARK    2  A    between atoms: N_10  and  C_12 
ROOT
HETATM    1  N   UNL     1      62.780   9.893   4.579  1.00  0.00    -0.360 N 
HETATM    2  C   UNL     1      63.738   8.903   4.503  1.00  0.00     0.044 A 
HETATM    3  C   UNL     1      61.777   9.654   3.677  1.00  0.00     0.091 A 
HETATM    4  C   UNL     1      62.081   8.490   3.009  1.00  0.00     0.031 A 
HETATM    5  C   UNL     1      63.314   8.004   3.523  1.00  0.00    -0.008 A 
HETATM    6  C   UNL     1      64.937   8.721   5.212  1.00  0.00     0.039 A 
HETATM    7  C   UNL     1      64.108   6.876   3.244  1.00  0.00     0.014 A 
HETATM    8  C   UNL     1      65.725   7.593   4.924  1.00  0.00    -0.031 A 
HETATM    9  C   UNL     1      65.303   6.682   3.950  1.00  0.00     0.010 A 
HETATM   10  C   UNL     1      62.817  11.011   5.496  1.00  0.00     0.155 C 
ENDROOT
BRANCH   8  11
HETATM   11  C   UNL     1      67.012   7.358   5.676  1.00  0.00     0.268 C 
BRANCH  11  12
HETATM   12  N   UNL     1      67.130   8.247   6.828  1.00  0.00    -0.075 N 
HETATM   13  H   UNL     1      67.768   9.010   6.604  1.00  0.00     0.274 HD
HETATM   14  H   UNL     1      67.493   7.724   7.625  1.00  0.00     0.274 HD
HETATM   15  H   UNL     1      66.212   8.627   7.058  1.00  0.00     0.274 HD
ENDBRANCH  11  12
ENDBRANCH   8  11
TORSDOF 2
ENDMDL
MODEL 4
REMARK VINA RESULT:      -4.4      1.479      4.142
REMARK  2 active torsions:
REMARK  status: ('A' for Active; 'I' for Inactive)
REMARK    1  A    between atoms: C_8  and  C_12 
REMARK    2  A    between atoms: N_10  and  C_12 
ROOT
HETATM    1  N   UNL     1      63.146   8.966   4.805  1.00  0.00    -0.360 N 
HETATM    2  C   UNL     1      62.789   8.811   3.481  1.00  0.00     0.044 A 
HETATM    3  C   UNL     1      62.834  10.229   5.236  1.00  0.00     0.091 A 
HETATM    4  C   UNL     1      62.260  10.903   4.183  1.00  0.00     0.031 A 
HETATM    5  C   UNL     1      62.223  10.019   3.070  1.00  0.00    -0.008 A 
HETATM    6  C   UNL     1      62.914   7.713   2.613  1.00  0.00     0.039 A 
HETATM    7  C   UNL     1      61.755  10.137   1.748  1.00  0.00     0.014 A 
HETATM    8  C   UNL     1      62.446   7.842   1.293  1.00  0.00    -0.031 A 
HETATM    9  C   UNL     1      61.869   9.046   0.876  1.00  0.00     0.010 A 
HETATM   10  C   UNL     1      63.742   7.936   5.627  1.00  0.00     0.155 C 
ENDROOT
BRANCH   8  11
HETATM   11  C   UNL     1      62.551   6.679   0.337  1.00  0.00     0.268 C 
BRANCH  11  12
HETATM   12  N   UNL     1      63.600   5.747   0.740  1.00  0.00    -0.075 N 
HETATM   13  H   UNL     1      63.529   5.568   1.742  1.00  0.00     0.274 HD
HETATM   14  H   UNL     1      64.513   6.151   0.531  1.00  0.00     0.274 HD
HETATM   15  H   UNL     1      63.489   4.871   0.230  1.00  0.00     0.274 HD
ENDBRANCH  11  12
ENDBRANCH   8  11
TORSDOF 2
ENDMDL
MODEL 5
REMARK VINA RESULT:      -4.4      1.837      3.532
REMARK  2 active torsions:
REMARK  status: ('A' for Active; 'I' for Inactive)
REMARK    1  A    between atoms: C_8  and  C_12 
REMARK    2  A    between atoms: N_10  and  C_12 
ROOT
HETATM    1  N   UNL     1      62.159  10.601   3.329  1.00  0.00    -0.360 N 
HETATM    2  C   UNL     1      62.613   9.316   3.548  1.00  0.00     0.044 A 
HETATM    3  C   UNL     1      61.821  10.766   2.012  1.00  0.00     0.091 A 
HETATM    4  C   UNL     1      62.048   9.573   1.366  1.00  0.00     0.031 A 
HETATM    5  C   UNL     1      62.545   8.648   2.324  1.00  0.00    -0.008 A 
HETATM    6  C   UNL     1      63.073   8.686   4.717  1.00  0.00     0.039 A 
HETATM    7  C   UNL     1      62.943   7.300   2.261  1.00  0.00     0.014 A 
HETATM    8  C   UNL     1      63.470   7.339   4.643  1.00  0.00    -0.031 A 
HETATM    9  C   UNL     1      63.397   6.659   3.422  1.00  0.00     0.010 A 
HETATM   10  C   UNL     1      62.037  11.620   4.347  1.00  0.00     0.155 C 
ENDROOT
BRANCH   8  11
HETATM   11  C   UNL     1      63.957   6.626   5.881  1.00  0.00     0.268 C 
BRANCH  11  12
HETATM   12  N   UNL     1      64.867   7.461   6.658  1.00  0.00    -0.075 N 
HETATM   13  H   UNL     1      64.335   8.185   7.141  1.00  0.00     0.274 HD
HETATM   14  H   UNL     1      65.545   7.897   6.034  1.00  0.00     0.274 HD
HETATM   15  H   UNL     1      65.355   6.884   7.343  1.00  0.00     0.274 HD
ENDBRANCH  11  12
ENDBRANCH   8  11
TORSDOF 2
ENDMDL
MODEL 6
REMARK VINA RESULT:      -4.3      1.613      2.513
REMARK  2 active torsions:
REMARK  status: ('A' for Active; 'I' for Inactive)
REMARK    1  A    between atoms: C_8  and  C_12 
REMARK    2  A    between atoms: N_10  and  C_12 
ROOT
HETATM    1  N   UNL     1      62.509   7.813   1.276  1.00  0.00    -0.360 N 
HETATM    2  C   UNL     1      62.841   8.168   2.568  1.00  0.00     0.044 A 
HETATM    3  C   UNL     1      61.738   8.788   0.699  1.00  0.00     0.091 A 
HETATM    4  C   UNL     1      61.572   9.794   1.623  1.00  0.00     0.031 A 
HETATM    5  C   UNL     1      62.265   9.417   2.805  1.00  0.00    -0.008 A 
HETATM    6  C   UNL     1      63.599   7.499   3.544  1.00  0.00     0.039 A 
HETATM    7  C   UNL     1      62.456  10.029   4.058  1.00  0.00     0.014 A 
HETATM    8  C   UNL     1      63.782   8.117   4.794  1.00  0.00    -0.031 A 
HETATM    9  C   UNL     1      63.216   9.374   5.037  1.00  0.00     0.010 A 
HETATM   10  C   UNL     1      62.933   6.598   0.618  1.00  0.00     0.155 C 
ENDROOT
BRANCH   8  11
HETATM   11  C   UNL     1      64.602   7.435   5.861  1.00  0.00     0.268 C 
BRANCH  11  12
HETATM   12  N   UNL     1      65.743   8.250   6.265  1.00  0.00    -0.075 N 
HETATM   13  H   UNL     1      66.496   7.643   6.590  1.00  0.00     0.274 HD
HETATM   14  H   UNL     1      65.463   8.878   7.018  1.00  0.00     0.274 HD
HETATM   15  H   UNL     1      66.068   8.797   5.467  1.00  0.00     0.274 HD
ENDBRANCH  11  12
ENDBRANCH   8  11
TORSDOF 2
ENDMDL
MODEL 7
REMARK VINA RESULT:      -4.0      2.025      3.875
REMARK  2 active torsions:
REMARK  status: ('A' for Active; 'I' for Inactive)
REMARK    1  A    between atoms: C_8  and  C_12 
REMARK    2  A    between atoms: N_10  and  C_12 
ROOT
HETATM    1  N   UNL     1      64.578   6.998   3.720  1.00  0.00    -0.360 N 
HETATM    2  C   UNL     1      63.541   7.783   3.258  1.00  0.00     0.044 A 
HETATM    3  C   UNL     1      65.129   7.553   4.845  1.00  0.00     0.091 A 
HETATM    4  C   UNL     1      64.437   8.709   5.126  1.00  0.00     0.031 A 
HETATM    5  C   UNL     1      63.431   8.864   4.134  1.00  0.00    -0.008 A 
HETATM    6  C   UNL     1      62.691   7.632   2.150  1.00  0.00     0.039 A 
HETATM    7  C   UNL     1      62.433   9.829   3.903  1.00  0.00     0.014 A 
HETATM    8  C   UNL     1      61.699   8.603   1.926  1.00  0.00    -0.031 A 
HETATM    9  C   UNL     1      61.575   9.685   2.804  1.00  0.00     0.010 A 
HETATM   10  C   UNL     1      65.008   5.757   3.117  1.00  0.00     0.155 C 
ENDROOT
BRANCH   8  11
HETATM   11  C   UNL     1      60.759   8.465   0.752  1.00  0.00     0.268 C 
BRANCH  11  12
HETATM   12  N   UNL     1      59.366   8.416   1.184  1.00  0.00    -0.075 N 
HETATM   13  H   UNL     1      59.327   8.206   2.182  1.00  0.00     0.274 HD
HETATM   14  H   UNL     1      58.875   7.688   0.665  1.00  0.00     0.274 HD
HETATM   15  H   UNL     1      58.924   9.318   1.008  1.00  0.00     0.274 HD
ENDBRANCH  11  12
ENDBRANCH   8  11
TORSDOF 2
ENDMDL
MODEL 8
REMARK VINA RESULT:      -4.0      2.021      3.550
REMARK  2 active torsions:
REMARK  status: ('A' for Active; 'I' for Inactive)
REMARK    1  A    between atoms: C_8  and  C_12 
REMARK    2  A    between atoms: N_10  and  C_12 
ROOT
HETATM    1  N   UNL     1      64.310   6.335   3.910  1.00  0.00    -0.360 N 
HETATM    2  C   UNL     1      63.658   7.548   3.818  1.00  0.00     0.044 A 
HETATM    3  C   UNL     1      64.767   6.138   5.187  1.00  0.00     0.091 A 
HETATM    4  C   UNL     1      64.401   7.232   5.938  1.00  0.00     0.031 A 
HETATM    5  C   UNL     1      63.698   8.127   5.087  1.00  0.00    -0.008 A 
HETATM    6  C   UNL     1      63.035   8.181   2.729  1.00  0.00     0.039 A 
HETATM    7  C   UNL     1      63.089   9.380   5.283  1.00  0.00     0.014 A 
HETATM    8  C   UNL     1      62.432   9.434   2.935  1.00  0.00    -0.031 A 
HETATM    9  C   UNL     1      62.460  10.018   4.206  1.00  0.00     0.010 A 
HETATM   10  C   UNL     1      64.469   5.396   2.823  1.00  0.00     0.155 C 
ENDROOT
BRANCH   8  11
HETATM   11  C   UNL     1      61.742  10.137   1.791  1.00  0.00     0.268 C 
BRANCH  11  12
HETATM   12  N   UNL     1      61.529  11.551   2.081  1.00  0.00    -0.075 N 
HETATM   13  H   UNL     1      62.409  12.057   1.968  1.00  0.00     0.274 HD
HETATM   14  H   UNL     1      61.198  11.656   3.039  1.00  0.00     0.274 HD
HETATM   15  H   UNL     1      60.835  11.929   1.436  1.00  0.00     0.274 HD
ENDBRANCH  11  12
ENDBRANCH   8  11
TORSDOF 2
ENDMDL
MODEL 9
REMARK VINA RESULT:      -3.9      1.849      2.775
REMARK  2 active torsions:
REMARK  status: ('A' for Active; 'I' for Inactive)
REMARK    1  A    between atoms: C_8  and  C_12 
REMARK    2  A    between atoms: N_10  and  C_12 
ROOT
HETATM    1  N   UNL     1      61.152   6.807   2.879  1.00  0.00    -0.360 N 
HETATM    2  C   UNL     1      62.011   7.671   3.527  1.00  0.00     0.044 A 
HETATM    3  C   UNL     1      61.787   5.625   2.602  1.00  0.00     0.091 A 
HETATM    4  C   UNL     1      63.074   5.716   3.082  1.00  0.00     0.031 A 
HETATM    5  C   UNL     1      63.227   7.001   3.671  1.00  0.00    -0.008 A 
HETATM    6  C   UNL     1      61.821   8.980   4.000  1.00  0.00     0.039 A 
HETATM    7  C   UNL     1      64.293   7.654   4.317  1.00  0.00     0.014 A 
HETATM    8  C   UNL     1      62.893   9.626   4.641  1.00  0.00    -0.031 A 
HETATM    9  C   UNL     1      64.112   8.958   4.798  1.00  0.00     0.010 A 
HETATM   10  C   UNL     1      59.773   7.098   2.558  1.00  0.00     0.155 C 
ENDROOT
BRANCH   8  11
HETATM   11  C   UNL     1      62.720  11.027   5.175  1.00  0.00     0.268 C 
BRANCH  11  12
HETATM   12  N   UNL     1      63.672  11.316   6.242  1.00  0.00    -0.075 N 
HETATM   13  H   UNL     1      64.219  10.479   6.445  1.00  0.00     0.274 HD
HETATM   14  H   UNL     1      63.167  11.601   7.081  1.00  0.00     0.274 HD
HETATM   15  H   UNL     1      64.296  12.067   5.947  1.00  0.00     0.274 HD
ENDBRANCH  11  12
ENDBRANCH   8  11
TORSDOF 2
ENDMDL
