MODEL 1
REMARK VINA RESULT:      -5.4      0.000      0.000
REMARK  3 active torsions:
REMARK  status: ('A' for Active; 'I' for Inactive)
REMARK    1  A    between atoms: C_1  and  C_4 
REMARK    2  A    between atoms: N_2  and  C_6 
REMARK    3  A    between atoms: C_6  and  C_14 
ROOT
HETATM    1  C   UNL     1      64.240   6.333   5.612  1.00  0.00     0.273 C 
ENDROOT
BRANCH   1   2
HETATM    2  N   UNL     1      65.550   6.601   6.259  1.00  0.00    -0.064 N 
HETATM    3  C   UNL     1      65.551   6.423   7.727  1.00  0.00     0.263 C 
HETATM    4  C   UNL     1      66.887   6.857   8.326  1.00  0.00     0.262 C 
HETATM    5  N   UNL     1      68.013   6.116   7.722  1.00  0.00    -0.072 N 
HETATM    6  C   UNL     1      68.006   6.271   6.254  1.00  0.00     0.262 C 
HETATM    7  C   UNL     1      68.075   4.702   8.145  1.00  0.00     0.269 C 
HETATM    8  H   UNL     1      68.875   6.531   8.077  1.00  0.00     0.279 HD
HETATM    9  C   UNL     1      66.660   5.851   5.631  1.00  0.00     0.263 C 
HETATM   10  H   UNL     1      65.712   7.595   6.096  1.00  0.00     0.280 HD
ENDBRANCH   1   2
BRANCH   1  11
HETATM   11  C   UNL     1      63.621   7.534   4.900  1.00  0.00    -0.033 A 
HETATM   12  C   UNL     1      63.263   7.475   3.543  1.00  0.00     0.010 A 
HETATM   13  C   UNL     1      62.739   8.584   2.886  1.00  0.00     0.019 A 
HETATM   14  C   UNL     1      62.511   9.785   3.575  1.00  0.00     0.040 A 
HETATM   15  C   UNL     1      62.820   9.836   4.950  1.00  0.00     0.019 A 
HETATM   16  C   UNL     1      63.371   8.726   5.604  1.00  0.00     0.010 A 
BRANCH  14  17
HETATM   17  C   UNL     1      61.948  10.985   2.887  1.00  0.00     0.209 C 
HETATM   18  O   UNL     1      61.687  10.926   1.695  1.00  0.00    -0.644 OA
HETATM   19  O   UNL     1      61.699  12.148   3.534  1.00  0.00    -0.644 OA
ENDBRANCH  14  17
ENDBRANCH   1  11
TORSDOF 3
ENDMDL
MODEL 2
REMARK VINA RESULT:      -5.3      0.485      1.472
REMARK  3 active torsions:
REMARK  status: ('A' for Active; 'I' for Inactive)
REMARK    1  A    between atoms: C_1  and  C_4 
REMARK    2  A    between atoms: N_2  and  C_6 
REMARK    3  A    between atoms: C_6  and  C_14 
ROOT
HETATM    1  C   UNL     1      63.990   6.238   5.534  1.00  0.00     0.273 C 
ENDROOT
BRANCH   1   2
HETATM    2  N   UNL     1      65.398   6.283   6.004  1.00  0.00    -0.064 N 
HETATM    3  C   UNL     1      65.548   6.550   7.451  1.00  0.00     0.263 C 
HETATM    4  C   UNL     1      67.020   6.722   7.821  1.00  0.00     0.262 C 
HETATM    5  N   UNL     1      67.814   5.538   7.436  1.00  0.00    -0.072 N 
HETATM    6  C   UNL     1      67.651   5.252   5.997  1.00  0.00     0.262 C 
HETATM    7  C   UNL     1      67.550   4.358   8.285  1.00  0.00     0.269 C 
HETATM    8  H   UNL     1      68.794   5.762   7.603  1.00  0.00     0.279 HD
HETATM    9  C   UNL     1      66.170   5.088   5.600  1.00  0.00     0.263 C 
HETATM   10  H   UNL     1      65.797   7.090   5.526  1.00  0.00     0.280 HD
ENDBRANCH   1   2
BRANCH   1  11
HETATM   11  C   UNL     1      63.487   7.534   4.898  1.00  0.00    -0.033 A 
HETATM   12  C   UNL     1      63.406   8.727   5.636  1.00  0.00     0.010 A 
HETATM   13  C   UNL     1      62.908   9.894   5.066  1.00  0.00     0.019 A 
HETATM   14  C   UNL     1      62.512   9.925   3.720  1.00  0.00     0.040 A 
HETATM   15  C   UNL     1      62.640   8.744   2.959  1.00  0.00     0.019 A 
HETATM   16  C   UNL     1      63.118   7.562   3.541  1.00  0.00     0.010 A 
BRANCH  14  17
HETATM   17  C   UNL     1      61.976  11.169   3.092  1.00  0.00     0.209 C 
HETATM   18  O   UNL     1      61.815  12.166   3.779  1.00  0.00    -0.644 OA
HETATM   19  O   UNL     1      61.669  11.248   1.776  1.00  0.00    -0.644 OA
ENDBRANCH  14  17
ENDBRANCH   1  11
TORSDOF 3
ENDMDL
MODEL 3
REMARK VINA RESULT:      -5.1      1.569      2.418
REMARK  3 active torsions:
REMARK  status: ('A' for Active; 'I' for Inactive)
REMARK    1  A    between atoms: C_1  and  C_4 
REMARK    2  A    between atoms: N_2  and  C_6 
REMARK    3  A    between atoms: C_6  and  C_14 
ROOT
HETATM    1  C   UNL     1      66.169   7.772   5.677  1.00  0.00     0.273 C 
ENDROOT
BRANCH   1   2
HETATM    2  N   UNL     1      65.976   6.802   6.785  1.00  0.00    -0.064 N 
HETATM    3  C   UNL     1      66.169   5.388   6.396  1.00  0.00     0.263 C 
HETATM    4  C   UNL     1      65.811   4.454   7.551  1.00  0.00     0.262 C 
HETATM    5  N   UNL     1      66.603   4.763   8.758  1.00  0.00    -0.072 N 
HETATM    6  C   UNL     1      66.432   6.179   9.139  1.00  0.00     0.262 C 
HETATM    7  C   UNL     1      68.023   4.373   8.641  1.00  0.00     0.269 C 
HETATM    8  H   UNL     1      66.238   4.188   9.517  1.00  0.00     0.279 HD
HETATM    9  C   UNL     1      66.775   7.139   7.983  1.00  0.00     0.263 C 
HETATM   10  H   UNL     1      64.990   6.894   7.031  1.00  0.00     0.280 HD
ENDBRANCH   1   2
BRANCH   1  11
HETATM   11  C   UNL     1      64.929   8.016   4.818  1.00  0.00    -0.033 A 
HETATM   12  C   UNL     1      64.079   9.109   5.056  1.00  0.00     0.010 A 
HETATM   13  C   UNL     1      62.928   9.305   4.300  1.00  0.00     0.019 A 
HETATM   14  C   UNL     1      62.605   8.437   3.245  1.00  0.00     0.040 A 
HETATM   15  C   UNL     1      63.482   7.368   2.968  1.00  0.00     0.019 A 
HETATM   16  C   UNL     1      64.628   7.157   3.746  1.00  0.00     0.010 A 
BRANCH  14  17
HETATM   17  C   UNL     1      61.374   8.633   2.422  1.00  0.00     0.209 C 
HETATM   18  O   UNL     1      60.374   7.979   2.673  1.00  0.00    -0.644 OA
HETATM   19  O   UNL     1      61.311   9.524   1.404  1.00  0.00    -0.644 OA
ENDBRANCH  14  17
ENDBRANCH   1  11
TORSDOF 3
ENDMDL
MODEL 4
REMARK VINA RESULT:      -4.8      1.964      2.929
REMARK  3 active torsions:
REMARK  status: ('A' for Active; 'I' for Inactive)
REMARK    1  A    between atoms: C_1  and  C_4 
REMARK    2  A    between atoms: N_2  and  C_6 
REMARK    3  A    between atoms: C_6  and  C_14 
ROOT
HETATM    1  C   UNL     1      64.512   8.777   5.077  1.00  0.00     0.273 C 
ENDROOT
BRANCH   1   2
HETATM    2  N   UNL     1      65.255   7.589   5.570  1.00  0.00    -0.064 N 
HETATM    3  C   UNL     1      66.626   7.882   6.041  1.00  0.00     0.263 C 
HETATM    4  C   UNL     1      67.367   6.593   6.391  1.00  0.00     0.262 C 
HETATM    5  N   UNL     1      66.635   5.812   7.408  1.00  0.00    -0.072 N 
HETATM    6  C   UNL     1      65.257   5.535   6.954  1.00  0.00     0.262 C 
HETATM    7  C   UNL     1      66.678   6.419   8.754  1.00  0.00     0.269 C 
HETATM    8  H   UNL     1      67.117   4.919   7.511  1.00  0.00     0.279 HD
HETATM    9  C   UNL     1      64.497   6.823   6.582  1.00  0.00     0.263 C 
HETATM   10  H   UNL     1      65.361   6.999   4.745  1.00  0.00     0.280 HD
ENDBRANCH   1   2
BRANCH   1  11
HETATM   11  C   UNL     1      63.511   8.487   3.959  1.00  0.00    -0.033 A 
HETATM   12  C   UNL     1      62.452   9.366   3.680  1.00  0.00     0.010 A 
HETATM   13  C   UNL     1      61.518   9.078   2.690  1.00  0.00     0.019 A 
HETATM   14  C   UNL     1      61.633   7.917   1.910  1.00  0.00     0.040 A 
HETATM   15  C   UNL     1      62.723   7.056   2.151  1.00  0.00     0.019 A 
HETATM   16  C   UNL     1      63.649   7.335   3.165  1.00  0.00     0.010 A 
BRANCH  14  17
HETATM   17  C   UNL     1      60.639   7.593   0.843  1.00  0.00     0.209 C 
HETATM   18  O   UNL     1      60.764   6.562   0.200  1.00  0.00    -0.644 OA
HETATM   19  O   UNL     1      59.585   8.394   0.560  1.00  0.00    -0.644 OA
ENDBRANCH  14  17
ENDBRANCH   1  11
TORSDOF 3
ENDMDL
MODEL 5
REMARK VINA RESULT:      -4.8      1.929      2.420
REMARK  3 active torsions:
REMARK  status: ('A' for Active; 'I' for Inactive)
REMARK    1  A    between atoms: C_1  and  C_4 
REMARK    2  A    between atoms: N_2  and  C_6 
REMARK    3  A    between atoms: C_6  and  C_14 
ROOT
HETATM    1  C   UNL     1      63.484   5.768   4.840  1.00  0.00     0.273 C 
ENDROOT
BRANCH   1   2
HETATM    2  N   UNL     1      64.808   5.350   4.313  1.00  0.00    -0.064 N 
HETATM    3  C   UNL     1      65.961   5.864   5.084  1.00  0.00     0.263 C 
HETATM    4  C   UNL     1      67.277   5.510   4.394  1.00  0.00     0.262 C 
HETATM    5  N   UNL     1      67.406   4.052   4.198  1.00  0.00    -0.072 N 
HETATM    6  C   UNL     1      66.247   3.528   3.448  1.00  0.00     0.262 C 
HETATM    7  C   UNL     1      67.653   3.313   5.453  1.00  0.00     0.269 C 
HETATM    8  H   UNL     1      68.241   3.894   3.635  1.00  0.00     0.279 HD
HETATM    9  C   UNL     1      64.908   3.887   4.121  1.00  0.00     0.263 C 
HETATM   10  H   UNL     1      64.864   5.791   3.395  1.00  0.00     0.280 HD
ENDBRANCH   1   2
BRANCH   1  11
HETATM   11  C   UNL     1      63.084   7.202   4.497  1.00  0.00    -0.033 A 
HETATM   12  C   UNL     1      62.735   7.569   3.186  1.00  0.00     0.010 A 
HETATM   13  C   UNL     1      62.412   8.884   2.868  1.00  0.00     0.019 A 
HETATM   14  C   UNL     1      62.383   9.877   3.859  1.00  0.00     0.040 A 
HETATM   15  C   UNL     1      62.682   9.505   5.186  1.00  0.00     0.019 A 
HETATM   16  C   UNL     1      63.032   8.185   5.501  1.00  0.00     0.010 A 
BRANCH  14  17
HETATM   17  C   UNL     1      62.038  11.294   3.535  1.00  0.00     0.209 C 
HETATM   18  O   UNL     1      61.849  12.088   4.443  1.00  0.00    -0.644 OA
HETATM   19  O   UNL     1      61.937  11.747   2.264  1.00  0.00    -0.644 OA
ENDBRANCH  14  17
ENDBRANCH   1  11
TORSDOF 3
ENDMDL
MODEL 6
REMARK VINA RESULT:      -4.7      5.048      7.083
REMARK  3 active torsions:
REMARK  status: ('A' for Active; 'I' for Inactive)
REMARK    1  A    between atoms: C_1  and  C_4 
REMARK    2  A    between atoms: N_2  and  C_6 
REMARK    3  A    between atoms: C_6  and  C_14 
ROOT
HETATM    1  C   UNL     1      61.310   7.283   0.510  1.00  0.00     0.273 C 
ENDROOT
BRANCH   1   2
HETATM    2  N   UNL     1      60.005   6.590   0.653  1.00  0.00    -0.064 N 
HETATM    3  C   UNL     1      60.056   5.359   1.472  1.00  0.00     0.263 C 
HETATM    4  C   UNL     1      58.712   4.635   1.447  1.00  0.00     0.262 C 
HETATM    5  N   UNL     1      57.619   5.512   1.915  1.00  0.00    -0.072 N 
HETATM    6  C   UNL     1      57.576   6.753   1.117  1.00  0.00     0.262 C 
HETATM    7  C   UNL     1      57.661   5.771   3.369  1.00  0.00     0.269 C 
HETATM    8  H   UNL     1      56.743   5.012   1.765  1.00  0.00     0.279 HD
HETATM    9  C   UNL     1      58.929   7.492   1.117  1.00  0.00     0.263 C 
HETATM   10  H   UNL     1      59.774   6.289  -0.294  1.00  0.00     0.280 HD
ENDBRANCH   1   2
BRANCH   1  11
HETATM   11  C   UNL     1      61.639   8.265   1.633  1.00  0.00    -0.033 A 
HETATM   12  C   UNL     1      61.993   7.816   2.916  1.00  0.00     0.010 A 
HETATM   13  C   UNL     1      62.250   8.712   3.949  1.00  0.00     0.019 A 
HETATM   14  C   UNL     1      62.207  10.097   3.725  1.00  0.00     0.040 A 
HETATM   15  C   UNL     1      61.903  10.554   2.426  1.00  0.00     0.019 A 
HETATM   16  C   UNL     1      61.620   9.651   1.394  1.00  0.00     0.010 A 
BRANCH  14  17
HETATM   17  C   UNL     1      62.481  11.073   4.822  1.00  0.00     0.209 C 
HETATM   18  O   UNL     1      63.206  10.747   5.749  1.00  0.00    -0.644 OA
HETATM   19  O   UNL     1      61.967  12.325   4.829  1.00  0.00    -0.644 OA
ENDBRANCH  14  17
ENDBRANCH   1  11
TORSDOF 3
ENDMDL
MODEL 7
REMARK VINA RESULT:      -4.7      3.699      5.314
REMARK  3 active torsions:
REMARK  status: ('A' for Active; 'I' for Inactive)
REMARK    1  A    between atoms: C_1  and  C_4 
REMARK    2  A    between atoms: N_2  and  C_6 
REMARK    3  A    between atoms: C_6  and  C_14 
ROOT
HETATM    1  C   UNL     1      62.066   5.552   4.556  1.00  0.00     0.273 C 
ENDROOT
BRANCH   1   2
HETATM    2  N   UNL     1      61.062   5.151   5.575  1.00  0.00    -0.064 N 
HETATM    3  C   UNL     1      60.831   6.162   6.630  1.00  0.00     0.263 C 
HETATM    4  C   UNL     1      59.900   5.615   7.710  1.00  0.00     0.262 C 
HETATM    5  N   UNL     1      58.612   5.172   7.137  1.00  0.00    -0.072 N 
HETATM    6  C   UNL     1      58.837   4.180   6.067  1.00  0.00     0.262 C 
HETATM    7  C   UNL     1      57.751   6.292   6.703  1.00  0.00     0.269 C 
HETATM    8  H   UNL     1      58.088   4.716   7.883  1.00  0.00     0.279 HD
HETATM    9  C   UNL     1      59.786   4.708   4.973  1.00  0.00     0.263 C 
HETATM   10  H   UNL     1      61.484   4.349   6.042  1.00  0.00     0.280 HD
ENDBRANCH   1   2
BRANCH   1  11
HETATM   11  C   UNL     1      62.067   7.040   4.210  1.00  0.00    -0.033 A 
HETATM   12  C   UNL     1      62.975   7.929   4.810  1.00  0.00     0.010 A 
HETATM   13  C   UNL     1      62.946   9.290   4.525  1.00  0.00     0.019 A 
HETATM   14  C   UNL     1      62.034   9.810   3.594  1.00  0.00     0.040 A 
HETATM   15  C   UNL     1      61.154   8.915   2.949  1.00  0.00     0.019 A 
HETATM   16  C   UNL     1      61.168   7.548   3.255  1.00  0.00     0.010 A 
BRANCH  14  17
HETATM   17  C   UNL     1      61.989  11.268   3.275  1.00  0.00     0.209 C 
HETATM   18  O   UNL     1      61.954  12.081   4.186  1.00  0.00    -0.644 OA
HETATM   19  O   UNL     1      61.998  11.738   2.006  1.00  0.00    -0.644 OA
ENDBRANCH  14  17
ENDBRANCH   1  11
TORSDOF 3
ENDMDL
MODEL 8
REMARK VINA RESULT:      -4.7     10.952     12.813
REMARK  3 active torsions:
REMARK  status: ('A' for Active; 'I' for Inactive)
REMARK    1  A    between atoms: C_1  and  C_4 
REMARK    2  A    between atoms: N_2  and  C_6 
REMARK    3  A    between atoms: C_6  and  C_14 
ROOT
HETATM    1  C   UNL     1      60.002  -0.574  11.487  1.00  0.00     0.273 C 
ENDROOT
BRANCH   1   2
HETATM    2  N   UNL     1      59.264  -0.078  12.677  1.00  0.00    -0.064 N 
HETATM    3  C   UNL     1      59.392   1.377  12.909  1.00  0.00     0.263 C 
HETATM    4  C   UNL     1      58.728   1.777  14.225  1.00  0.00     0.262 C 
HETATM    5  N   UNL     1      57.306   1.379  14.254  1.00  0.00    -0.072 N 
HETATM    6  C   UNL     1      57.170  -0.069  14.001  1.00  0.00     0.262 C 
HETATM    7  C   UNL     1      56.454   2.195  13.364  1.00  0.00     0.269 C 
HETATM    8  H   UNL     1      56.957   1.568  15.193  1.00  0.00     0.279 HD
HETATM    9  C   UNL     1      57.846  -0.496  12.683  1.00  0.00     0.263 C 
HETATM   10  H   UNL     1      59.727  -0.530  13.466  1.00  0.00     0.280 HD
ENDBRANCH   1   2
BRANCH   1  11
HETATM   11  C   UNL     1      61.524  -0.552  11.623  1.00  0.00    -0.033 A 
HETATM   12  C   UNL     1      62.153  -0.860  12.841  1.00  0.00     0.010 A 
HETATM   13  C   UNL     1      63.536  -0.797  12.973  1.00  0.00     0.019 A 
HETATM   14  C   UNL     1      64.349  -0.466  11.878  1.00  0.00     0.040 A 
HETATM   15  C   UNL     1      63.726  -0.206  10.639  1.00  0.00     0.019 A 
HETATM   16  C   UNL     1      62.331  -0.245  10.514  1.00  0.00     0.010 A 
BRANCH  14  17
HETATM   17  C   UNL     1      65.835  -0.395  12.002  1.00  0.00     0.209 C 
HETATM   18  O   UNL     1      66.516  -1.333  11.617  1.00  0.00    -0.644 OA
HETATM   19  O   UNL     1      66.474   0.683  12.516  1.00  0.00    -0.644 OA
ENDBRANCH  14  17
ENDBRANCH   1  11
TORSDOF 3
ENDMDL
MODEL 9
REMARK VINA RESULT:      -4.7      4.447      7.211
REMARK  3 active torsions:
REMARK  status: ('A' for Active; 'I' for Inactive)
REMARK    1  A    between atoms: C_1  and  C_4 
REMARK    2  A    between atoms: N_2  and  C_6 
REMARK    3  A    between atoms: C_6  and  C_14 
ROOT
HETATM    1  C   UNL     1      61.191   8.778   1.709  1.00  0.00     0.273 C 
ENDROOT
BRANCH   1   2
HETATM    2  N   UNL     1      59.832   8.329   2.106  1.00  0.00    -0.064 N 
HETATM    3  C   UNL     1      59.117   7.560   1.064  1.00  0.00     0.263 C 
HETATM    4  C   UNL     1      57.682   7.265   1.496  1.00  0.00     0.262 C 
HETATM    5  N   UNL     1      57.646   6.537   2.781  1.00  0.00    -0.072 N 
HETATM    6  C   UNL     1      58.377   7.289   3.820  1.00  0.00     0.262 C 
HETATM    7  C   UNL     1      58.096   5.135   2.670  1.00  0.00     0.269 C 
HETATM    8  H   UNL     1      56.669   6.475   3.067  1.00  0.00     0.279 HD
HETATM    9  C   UNL     1      59.824   7.609   3.398  1.00  0.00     0.263 C 
HETATM   10  H   UNL     1      59.307   9.195   2.226  1.00  0.00     0.280 HD
ENDBRANCH   1   2
BRANCH   1  11
HETATM   11  C   UNL     1      62.265   8.587   2.780  1.00  0.00    -0.033 A 
HETATM   12  C   UNL     1      62.395   9.484   3.852  1.00  0.00     0.010 A 
HETATM   13  C   UNL     1      63.400   9.332   4.802  1.00  0.00     0.019 A 
HETATM   14  C   UNL     1      64.289   8.248   4.739  1.00  0.00     0.040 A 
HETATM   15  C   UNL     1      64.131   7.314   3.694  1.00  0.00     0.019 A 
HETATM   16  C   UNL     1      63.134   7.482   2.724  1.00  0.00     0.010 A 
BRANCH  14  17
HETATM   17  C   UNL     1      65.374   8.068   5.750  1.00  0.00     0.209 C 
HETATM   18  O   UNL     1      65.919   9.052   6.227  1.00  0.00    -0.644 OA
HETATM   19  O   UNL     1      65.777   6.849   6.178  1.00  0.00    -0.644 OA
ENDBRANCH  14  17
ENDBRANCH   1  11
TORSDOF 3
ENDMDL
