MODEL 1
REMARK VINA RESULT:      -5.2      0.000      0.000
REMARK  4 active torsions:
REMARK  status: ('A' for Active; 'I' for Inactive)
REMARK    1  A    between atoms: N_1  and  C_2 
REMARK    2  A    between atoms: C_2  and  C_3 
REMARK    3  A    between atoms: C_4  and  C_12 
REMARK    4  A    between atoms: N_5  and  C_12 
ROOT
HETATM    1  C   UNL     1      63.026   8.163   5.029  1.00  0.00    -0.033 A 
HETATM    2  C   UNL     1      62.164   9.750   2.855  1.00  0.00    -0.033 A 
HETATM    3  C   UNL     1      62.654   7.570   3.815  1.00  0.00     0.009 A 
HETATM    4  C   UNL     1      62.921   9.554   5.160  1.00  0.00     0.009 A 
HETATM    5  C   UNL     1      62.232   8.355   2.737  1.00  0.00     0.009 A 
HETATM    6  C   UNL     1      62.496  10.337   4.083  1.00  0.00     0.009 A 
ENDROOT
BRANCH   1   7
HETATM    7  C   UNL     1      63.561   7.317   6.167  1.00  0.00     0.273 C 
BRANCH   7   8
HETATM    8  N   UNL     1      65.010   7.491   6.400  1.00  0.00    -0.067 N 
HETATM    9  C   UNL     1      65.512   6.548   7.415  1.00  0.00     0.235 C 
HETATM   10  C   UNL     1      67.003   6.761   7.678  1.00  0.00     0.028 C 
HETATM   11  C   UNL     1      67.811   6.626   6.396  1.00  0.00     0.003 C 
HETATM   12  C   UNL     1      67.248   7.550   5.322  1.00  0.00     0.028 C 
HETATM   13  C   UNL     1      65.744   7.335   5.134  1.00  0.00     0.235 C 
HETATM   14  H   UNL     1      65.164   8.433   6.759  1.00  0.00     0.280 HD
ENDBRANCH   7   8
ENDBRANCH   1   7
BRANCH   2  15
HETATM   15  C   UNL     1      61.785  10.604   1.674  1.00  0.00     0.268 C 
BRANCH  15  16
HETATM   16  N   UNL     1      61.858  12.026   1.982  1.00  0.00    -0.075 N 
HETATM   17  H   UNL     1      61.169  12.254   2.699  1.00  0.00     0.274 HD
HETATM   18  H   UNL     1      61.665  12.568   1.140  1.00  0.00     0.274 HD
HETATM   19  H   UNL     1      62.792  12.252   2.325  1.00  0.00     0.274 HD
ENDBRANCH  15  16
ENDBRANCH   2  15
TORSDOF 4
ENDMDL
MODEL 2
REMARK VINA RESULT:      -5.1      1.624      6.163
REMARK  4 active torsions:
REMARK  status: ('A' for Active; 'I' for Inactive)
REMARK    1  A    between atoms: N_1  and  C_2 
REMARK    2  A    between atoms: C_2  and  C_3 
REMARK    3  A    between atoms: C_4  and  C_12 
REMARK    4  A    between atoms: N_5  and  C_12 
ROOT
HETATM    1  C   UNL     1      64.129   7.936   5.571  1.00  0.00    -0.033 A 
HETATM    2  C   UNL     1      66.472   6.706   6.560  1.00  0.00    -0.033 A 
HETATM    3  C   UNL     1      64.047   6.858   6.463  1.00  0.00     0.009 A 
HETATM    4  C   UNL     1      65.393   8.364   5.144  1.00  0.00     0.009 A 
HETATM    5  C   UNL     1      65.207   6.253   6.957  1.00  0.00     0.009 A 
HETATM    6  C   UNL     1      66.550   7.755   5.635  1.00  0.00     0.009 A 
ENDROOT
BRANCH   1   7
HETATM    7  C   UNL     1      62.873   8.644   5.102  1.00  0.00     0.273 C 
BRANCH   7   8
HETATM    8  N   UNL     1      62.854   8.910   3.649  1.00  0.00    -0.067 N 
HETATM    9  C   UNL     1      62.470   7.709   2.885  1.00  0.00     0.235 C 
HETATM   10  C   UNL     1      62.490   7.982   1.380  1.00  0.00     0.028 C 
HETATM   11  C   UNL     1      61.576   9.145   1.021  1.00  0.00     0.003 C 
HETATM   12  C   UNL     1      61.927  10.366   1.862  1.00  0.00     0.028 C 
HETATM   13  C   UNL     1      61.945  10.029   3.355  1.00  0.00     0.235 C 
HETATM   14  H   UNL     1      63.799   9.164   3.359  1.00  0.00     0.280 HD
ENDBRANCH   7   8
ENDBRANCH   1   7
BRANCH   2  15
HETATM   15  C   UNL     1      67.723   6.106   7.149  1.00  0.00     0.268 C 
BRANCH  15  16
HETATM   16  N   UNL     1      67.916   6.502   8.538  1.00  0.00    -0.075 N 
HETATM   17  H   UNL     1      67.652   7.480   8.653  1.00  0.00     0.274 HD
HETATM   18  H   UNL     1      68.896   6.381   8.793  1.00  0.00     0.274 HD
HETATM   19  H   UNL     1      67.334   5.919   9.142  1.00  0.00     0.274 HD
ENDBRANCH  15  16
ENDBRANCH   2  15
TORSDOF 4
ENDMDL
MODEL 3
REMARK VINA RESULT:      -5.1      0.828      1.806
REMARK  4 active torsions:
REMARK  status: ('A' for Active; 'I' for Inactive)
REMARK    1  A    between atoms: N_1  and  C_2 
REMARK    2  A    between atoms: C_2  and  C_3 
REMARK    3  A    between atoms: C_4  and  C_12 
REMARK    4  A    between atoms: N_5  and  C_12 
ROOT
HETATM    1  C   UNL     1      63.381   8.023   5.029  1.00  0.00    -0.033 A 
HETATM    2  C   UNL     1      62.362   9.539   2.874  1.00  0.00    -0.033 A 
HETATM    3  C   UNL     1      62.932   9.336   5.229  1.00  0.00     0.009 A 
HETATM    4  C   UNL     1      63.357   7.492   3.733  1.00  0.00     0.009 A 
HETATM    5  C   UNL     1      62.423  10.085   4.164  1.00  0.00     0.009 A 
HETATM    6  C   UNL     1      62.851   8.242   2.669  1.00  0.00     0.009 A 
ENDROOT
BRANCH   1   7
HETATM    7  C   UNL     1      63.855   7.185   6.201  1.00  0.00     0.273 C 
BRANCH   7   8
HETATM    8  N   UNL     1      65.205   6.616   6.010  1.00  0.00    -0.067 N 
HETATM    9  C   UNL     1      66.247   7.655   6.091  1.00  0.00     0.235 C 
HETATM   10  C   UNL     1      67.637   7.064   5.854  1.00  0.00     0.028 C 
HETATM   11  C   UNL     1      67.935   5.949   6.845  1.00  0.00     0.003 C 
HETATM   12  C   UNL     1      66.821   4.909   6.813  1.00  0.00     0.028 C 
HETATM   13  C   UNL     1      65.447   5.556   7.001  1.00  0.00     0.235 C 
HETATM   14  H   UNL     1      65.251   6.213   5.074  1.00  0.00     0.280 HD
ENDBRANCH   7   8
ENDBRANCH   1   7
BRANCH   2  15
HETATM   15  C   UNL     1      61.744  10.315   1.740  1.00  0.00     0.268 C 
BRANCH  15  16
HETATM   16  N   UNL     1      61.612  11.731   2.055  1.00  0.00    -0.075 N 
HETATM   17  H   UNL     1      62.410  12.031   2.614  1.00  0.00     0.274 HD
HETATM   18  H   UNL     1      60.752  11.885   2.580  1.00  0.00     0.274 HD
HETATM   19  H   UNL     1      61.583  12.272   1.189  1.00  0.00     0.274 HD
ENDBRANCH  15  16
ENDBRANCH   2  15
TORSDOF 4
ENDMDL
MODEL 4
REMARK VINA RESULT:      -5.0      1.656      6.185
REMARK  4 active torsions:
REMARK  status: ('A' for Active; 'I' for Inactive)
REMARK    1  A    between atoms: N_1  and  C_2 
REMARK    2  A    between atoms: C_2  and  C_3 
REMARK    3  A    between atoms: C_4  and  C_12 
REMARK    4  A    between atoms: N_5  and  C_12 
ROOT
HETATM    1  C   UNL     1      64.105   7.934   5.602  1.00  0.00    -0.033 A 
HETATM    2  C   UNL     1      66.547   6.795   6.453  1.00  0.00    -0.033 A 
HETATM    3  C   UNL     1      65.327   8.420   5.117  1.00  0.00     0.009 A 
HETATM    4  C   UNL     1      64.118   6.903   6.551  1.00  0.00     0.009 A 
HETATM    5  C   UNL     1      66.535   7.853   5.534  1.00  0.00     0.009 A 
HETATM    6  C   UNL     1      65.327   6.340   6.969  1.00  0.00     0.009 A 
ENDROOT
BRANCH   1   7
HETATM    7  C   UNL     1      62.794   8.495   5.087  1.00  0.00     0.273 C 
BRANCH   7   8
HETATM    8  N   UNL     1      62.805   8.778   3.637  1.00  0.00    -0.067 N 
HETATM    9  C   UNL     1      62.427   7.590   2.850  1.00  0.00     0.235 C 
HETATM   10  C   UNL     1      62.478   7.881   1.350  1.00  0.00     0.028 C 
HETATM   11  C   UNL     1      61.579   9.054   0.988  1.00  0.00     0.003 C 
HETATM   12  C   UNL     1      61.923  10.263   1.851  1.00  0.00     0.028 C 
HETATM   13  C   UNL     1      61.910   9.907   3.339  1.00  0.00     0.235 C 
HETATM   14  H   UNL     1      63.757   9.028   3.368  1.00  0.00     0.280 HD
ENDBRANCH   7   8
ENDBRANCH   1   7
BRANCH   2  15
HETATM   15  C   UNL     1      67.842   6.132   6.845  1.00  0.00     0.268 C 
BRANCH  15  16
HETATM   16  N   UNL     1      68.075   6.197   8.282  1.00  0.00    -0.075 N 
HETATM   17  H   UNL     1      67.263   6.611   8.740  1.00  0.00     0.274 HD
HETATM   18  H   UNL     1      68.898   6.770   8.467  1.00  0.00     0.274 HD
HETATM   19  H   UNL     1      68.227   5.256   8.646  1.00  0.00     0.274 HD
ENDBRANCH  15  16
ENDBRANCH   2  15
TORSDOF 4
ENDMDL
MODEL 5
REMARK VINA RESULT:      -5.0      1.474      2.445
REMARK  4 active torsions:
REMARK  status: ('A' for Active; 'I' for Inactive)
REMARK    1  A    between atoms: N_1  and  C_2 
REMARK    2  A    between atoms: C_2  and  C_3 
REMARK    3  A    between atoms: C_4  and  C_12 
REMARK    4  A    between atoms: N_5  and  C_12 
ROOT
HETATM    1  C   UNL     1      65.330   7.661   4.702  1.00  0.00    -0.033 A 
HETATM    2  C   UNL     1      62.842   8.383   3.573  1.00  0.00    -0.033 A 
HETATM    3  C   UNL     1      64.754   6.885   3.686  1.00  0.00     0.009 A 
HETATM    4  C   UNL     1      64.629   8.776   5.179  1.00  0.00     0.009 A 
HETATM    5  C   UNL     1      63.526   7.245   3.124  1.00  0.00     0.009 A 
HETATM    6  C   UNL     1      63.399   9.133   4.618  1.00  0.00     0.009 A 
ENDROOT
BRANCH   1   7
HETATM    7  C   UNL     1      66.700   7.316   5.251  1.00  0.00     0.273 C 
BRANCH   7   8
HETATM    8  N   UNL     1      66.655   6.422   6.427  1.00  0.00    -0.067 N 
HETATM    9  C   UNL     1      67.710   5.395   6.366  1.00  0.00     0.235 C 
HETATM   10  C   UNL     1      67.631   4.450   7.567  1.00  0.00     0.028 C 
HETATM   11  C   UNL     1      67.727   5.220   8.876  1.00  0.00     0.003 C 
HETATM   12  C   UNL     1      66.682   6.329   8.909  1.00  0.00     0.028 C 
HETATM   13  C   UNL     1      66.767   7.213   7.663  1.00  0.00     0.235 C 
HETATM   14  H   UNL     1      65.758   5.936   6.423  1.00  0.00     0.280 HD
ENDBRANCH   7   8
ENDBRANCH   1   7
BRANCH   2  15
HETATM   15  C   UNL     1      61.557   8.817   2.918  1.00  0.00     0.268 C 
BRANCH  15  16
HETATM   16  N   UNL     1      61.345  10.254   3.031  1.00  0.00    -0.075 N 
HETATM   17  H   UNL     1      62.245  10.725   3.121  1.00  0.00     0.274 HD
HETATM   18  H   UNL     1      60.774  10.451   3.852  1.00  0.00     0.274 HD
HETATM   19  H   UNL     1      60.866  10.594   2.195  1.00  0.00     0.274 HD
ENDBRANCH  15  16
ENDBRANCH   2  15
TORSDOF 4
ENDMDL
MODEL 6
REMARK VINA RESULT:      -4.8      1.545      2.030
REMARK  4 active torsions:
REMARK  status: ('A' for Active; 'I' for Inactive)
REMARK    1  A    between atoms: N_1  and  C_2 
REMARK    2  A    between atoms: C_2  and  C_3 
REMARK    3  A    between atoms: C_4  and  C_12 
REMARK    4  A    between atoms: N_5  and  C_12 
ROOT
HETATM    1  C   UNL     1      63.629   8.734   4.331  1.00  0.00    -0.033 A 
HETATM    2  C   UNL     1      61.825   8.724   2.156  1.00  0.00    -0.033 A 
HETATM    3  C   UNL     1      63.578   7.645   3.450  1.00  0.00     0.009 A 
HETATM    4  C   UNL     1      62.738   9.798   4.140  1.00  0.00     0.009 A 
HETATM    5  C   UNL     1      62.689   7.642   2.371  1.00  0.00     0.009 A 
HETATM    6  C   UNL     1      61.848   9.792   3.063  1.00  0.00     0.009 A 
ENDROOT
BRANCH   1   7
HETATM    7  C   UNL     1      64.651   8.772   5.450  1.00  0.00     0.273 C 
BRANCH   7   8
HETATM    8  N   UNL     1      65.448   7.533   5.561  1.00  0.00    -0.067 N 
HETATM    9  C   UNL     1      66.886   7.796   5.371  1.00  0.00     0.235 C 
HETATM   10  C   UNL     1      67.700   6.504   5.449  1.00  0.00     0.028 C 
HETATM   11  C   UNL     1      67.471   5.791   6.774  1.00  0.00     0.003 C 
HETATM   12  C   UNL     1      65.979   5.582   7.005  1.00  0.00     0.028 C 
HETATM   13  C   UNL     1      65.203   6.893   6.863  1.00  0.00     0.235 C 
HETATM   14  H   UNL     1      65.156   6.898   4.818  1.00  0.00     0.280 HD
ENDBRANCH   7   8
ENDBRANCH   1   7
BRANCH   2  15
HETATM   15  C   UNL     1      60.920   8.758   0.952  1.00  0.00     0.268 C 
BRANCH  15  16
HETATM   16  N   UNL     1      59.550   8.396   1.288  1.00  0.00    -0.075 N 
HETATM   17  H   UNL     1      59.112   9.160   1.803  1.00  0.00     0.274 HD
HETATM   18  H   UNL     1      59.551   7.554   1.864  1.00  0.00     0.274 HD
HETATM   19  H   UNL     1      59.024   8.220   0.431  1.00  0.00     0.274 HD
ENDBRANCH  15  16
ENDBRANCH   2  15
TORSDOF 4
ENDMDL
MODEL 7
REMARK VINA RESULT:      -4.8      3.543      6.231
REMARK  4 active torsions:
REMARK  status: ('A' for Active; 'I' for Inactive)
REMARK    1  A    between atoms: N_1  and  C_2 
REMARK    2  A    between atoms: C_2  and  C_3 
REMARK    3  A    between atoms: C_4  and  C_12 
REMARK    4  A    between atoms: N_5  and  C_12 
ROOT
HETATM    1  C   UNL     1      62.260   9.249   1.801  1.00  0.00    -0.033 A 
HETATM    2  C   UNL     1      62.418  10.624   4.265  1.00  0.00    -0.033 A 
HETATM    3  C   UNL     1      61.825  10.577   1.907  1.00  0.00     0.009 A 
HETATM    4  C   UNL     1      62.733   8.600   2.950  1.00  0.00     0.009 A 
HETATM    5  C   UNL     1      61.908  11.259   3.125  1.00  0.00     0.009 A 
HETATM    6  C   UNL     1      62.813   9.282   4.167  1.00  0.00     0.009 A 
ENDROOT
BRANCH   1   7
HETATM    7  C   UNL     1      62.247   8.539   0.462  1.00  0.00     0.273 C 
BRANCH   7   8
HETATM    8  N   UNL     1      61.099   7.624   0.292  1.00  0.00    -0.067 N 
HETATM    9  C   UNL     1      61.384   6.288   0.844  1.00  0.00     0.235 C 
HETATM   10  C   UNL     1      60.206   5.337   0.629  1.00  0.00     0.028 C 
HETATM   11  C   UNL     1      58.932   5.895   1.246  1.00  0.00     0.003 C 
HETATM   12  C   UNL     1      58.674   7.305   0.729  1.00  0.00     0.028 C 
HETATM   13  C   UNL     1      59.900   8.202   0.919  1.00  0.00     0.235 C 
HETATM   14  H   UNL     1      60.929   7.509  -0.707  1.00  0.00     0.280 HD
ENDBRANCH   7   8
ENDBRANCH   1   7
BRANCH   2  15
HETATM   15  C   UNL     1      62.581  11.379   5.559  1.00  0.00     0.268 C 
BRANCH  15  16
HETATM   16  N   UNL     1      63.904  11.190   6.138  1.00  0.00    -0.075 N 
HETATM   17  H   UNL     1      64.593  11.700   5.586  1.00  0.00     0.274 HD
HETATM   18  H   UNL     1      64.137  10.197   6.140  1.00  0.00     0.274 HD
HETATM   19  H   UNL     1      63.910  11.542   7.097  1.00  0.00     0.274 HD
ENDBRANCH  15  16
ENDBRANCH   2  15
TORSDOF 4
ENDMDL
MODEL 8
REMARK VINA RESULT:      -4.4      1.777      6.274
REMARK  4 active torsions:
REMARK  status: ('A' for Active; 'I' for Inactive)
REMARK    1  A    between atoms: N_1  and  C_2 
REMARK    2  A    between atoms: C_2  and  C_3 
REMARK    3  A    between atoms: C_4  and  C_12 
REMARK    4  A    between atoms: N_5  and  C_12 
ROOT
HETATM    1  C   UNL     1      63.703   6.781   4.489  1.00  0.00    -0.033 A 
HETATM    2  C   UNL     1      65.669   5.823   6.279  1.00  0.00    -0.033 A 
HETATM    3  C   UNL     1      65.066   6.916   4.192  1.00  0.00     0.009 A 
HETATM    4  C   UNL     1      63.333   6.203   5.711  1.00  0.00     0.009 A 
HETATM    5  C   UNL     1      66.039   6.437   5.075  1.00  0.00     0.009 A 
HETATM    6  C   UNL     1      64.307   5.728   6.594  1.00  0.00     0.009 A 
ENDROOT
BRANCH   1   7
HETATM    7  C   UNL     1      62.651   7.226   3.493  1.00  0.00     0.273 C 
BRANCH   7   8
HETATM    8  N   UNL     1      62.735   8.660   3.148  1.00  0.00    -0.067 N 
HETATM    9  C   UNL     1      62.103   8.941   1.847  1.00  0.00     0.235 C 
HETATM   10  C   UNL     1      62.228  10.420   1.479  1.00  0.00     0.028 C 
HETATM   11  C   UNL     1      61.621  11.307   2.556  1.00  0.00     0.003 C 
HETATM   12  C   UNL     1      62.224  10.967   3.914  1.00  0.00     0.028 C 
HETATM   13  C   UNL     1      62.121   9.469   4.212  1.00  0.00     0.235 C 
HETATM   14  H   UNL     1      63.721   8.910   3.066  1.00  0.00     0.280 HD
ENDBRANCH   7   8
ENDBRANCH   1   7
BRANCH   2  15
HETATM   15  C   UNL     1      66.711   5.238   7.196  1.00  0.00     0.268 C 
BRANCH  15  16
HETATM   16  N   UNL     1      66.160   4.898   8.502  1.00  0.00    -0.075 N 
HETATM   17  H   UNL     1      65.264   5.369   8.625  1.00  0.00     0.274 HD
HETATM   18  H   UNL     1      66.806   5.197   9.232  1.00  0.00     0.274 HD
HETATM   19  H   UNL     1      66.024   3.888   8.562  1.00  0.00     0.274 HD
ENDBRANCH  15  16
ENDBRANCH   2  15
TORSDOF 4
ENDMDL
MODEL 9
REMARK VINA RESULT:      -4.3      2.045      6.676
REMARK  4 active torsions:
REMARK  status: ('A' for Active; 'I' for Inactive)
REMARK    1  A    between atoms: N_1  and  C_2 
REMARK    2  A    between atoms: C_2  and  C_3 
REMARK    3  A    between atoms: C_4  and  C_12 
REMARK    4  A    between atoms: N_5  and  C_12 
ROOT
HETATM    1  C   UNL     1      66.207   7.266   6.432  1.00  0.00    -0.033 A 
HETATM    2  C   UNL     1      67.319   5.125   7.904  1.00  0.00    -0.033 A 
HETATM    3  C   UNL     1      67.527   6.850   6.203  1.00  0.00     0.009 A 
HETATM    4  C   UNL     1      65.465   6.630   7.435  1.00  0.00     0.009 A 
HETATM    5  C   UNL     1      68.075   5.788   6.928  1.00  0.00     0.009 A 
HETATM    6  C   UNL     1      66.015   5.570   8.161  1.00  0.00     0.009 A 
ENDROOT
BRANCH   1   7
HETATM    7  C   UNL     1      65.589   8.362   5.588  1.00  0.00     0.273 C 
BRANCH   7   8
HETATM    8  N   UNL     1      64.326   7.961   4.934  1.00  0.00    -0.067 N 
HETATM    9  C   UNL     1      63.496   9.131   4.596  1.00  0.00     0.235 C 
HETATM   10  C   UNL     1      62.174   8.704   3.955  1.00  0.00     0.028 C 
HETATM   11  C   UNL     1      62.415   7.859   2.712  1.00  0.00     0.003 C 
HETATM   12  C   UNL     1      63.332   6.688   3.046  1.00  0.00     0.028 C 
HETATM   13  C   UNL     1      64.615   7.162   3.733  1.00  0.00     0.235 C 
HETATM   14  H   UNL     1      63.794   7.391   5.592  1.00  0.00     0.280 HD
ENDBRANCH   7   8
ENDBRANCH   1   7
BRANCH   2  15
HETATM   15  C   UNL     1      67.880   3.932   8.633  1.00  0.00     0.268 C 
BRANCH  15  16
HETATM   16  N   UNL     1      66.950   2.810   8.639  1.00  0.00    -0.075 N 
HETATM   17  H   UNL     1      66.509   2.739   9.556  1.00  0.00     0.274 HD
HETATM   18  H   UNL     1      67.455   1.948   8.437  1.00  0.00     0.274 HD
HETATM   19  H   UNL     1      66.232   2.959   7.929  1.00  0.00     0.274 HD
ENDBRANCH  15  16
ENDBRANCH   2  15
TORSDOF 4
ENDMDL
