MODEL 1
REMARK VINA RESULT:      -5.2      0.000      0.000
REMARK  4 active torsions:
REMARK  status: ('A' for Active; 'I' for Inactive)
REMARK    1  A    between atoms: N_1  and  C_3 
REMARK    2  A    between atoms: C_3  and  C_8 
REMARK    3  A    between atoms: N_9  and  C_16 
REMARK    4  A    between atoms: C_10  and  C_16 
ROOT
HETATM    1  C   UNL     1      64.925   7.472   4.571  1.00  0.00    -0.033 A 
HETATM    2  C   UNL     1      62.811   8.686   3.137  1.00  0.00    -0.033 A 
HETATM    3  C   UNL     1      64.370   6.845   3.448  1.00  0.00     0.009 A 
HETATM    4  C   UNL     1      64.358   8.672   5.015  1.00  0.00     0.009 A 
HETATM    5  C   UNL     1      63.337   7.454   2.728  1.00  0.00     0.009 A 
HETATM    6  C   UNL     1      63.302   9.266   4.316  1.00  0.00     0.009 A 
ENDROOT
BRANCH   1   7
HETATM    7  C   UNL     1      66.163   6.898   5.242  1.00  0.00     0.273 C 
BRANCH   7   8
HETATM    8  N   UNL     1      65.852   6.091   6.442  1.00  0.00    -0.064 N 
HETATM    9  C   UNL     1      66.102   4.655   6.200  1.00  0.00     0.263 C 
HETATM   10  C   UNL     1      65.883   3.787   7.459  1.00  0.00     0.262 C 
HETATM   11  N   UNL     1      66.655   4.204   8.645  1.00  0.00    -0.072 N 
HETATM   12  C   UNL     1      66.439   5.648   8.863  1.00  0.00     0.262 C 
HETATM   13  C   UNL     1      68.074   3.882   8.509  1.00  0.00     0.269 C 
HETATM   14  H   UNL     1      66.326   3.687   9.461  1.00  0.00     0.279 HD
HETATM   15  C   UNL     1      66.635   6.543   7.610  1.00  0.00     0.263 C 
HETATM   16  H   UNL     1      64.861   6.223   6.642  1.00  0.00     0.280 HD
ENDBRANCH   7   8
ENDBRANCH   1   7
BRANCH   2  17
HETATM   17  C   UNL     1      61.745   9.376   2.315  1.00  0.00     0.270 C 
BRANCH  17  18
HETATM   18  N   UNL     1      61.389  10.678   2.884  1.00  0.00    -0.075 N 
HETATM   19  C   UNL     1      61.749  11.763   1.987  1.00  0.00     0.267 C 
HETATM   20  H   UNL     1      61.883  10.800   3.768  1.00  0.00     0.277 HD
HETATM   21  H   UNL     1      60.380  10.700   3.027  1.00  0.00     0.277 HD
ENDBRANCH  17  18
ENDBRANCH   2  17
TORSDOF 4
ENDMDL
MODEL 2
REMARK VINA RESULT:      -5.0      1.699      2.473
REMARK  4 active torsions:
REMARK  status: ('A' for Active; 'I' for Inactive)
REMARK    1  A    between atoms: N_1  and  C_3 
REMARK    2  A    between atoms: C_3  and  C_8 
REMARK    3  A    between atoms: N_9  and  C_16 
REMARK    4  A    between atoms: C_10  and  C_16 
ROOT
HETATM    1  C   UNL     1      63.698   8.637   4.278  1.00  0.00    -0.033 A 
HETATM    2  C   UNL     1      61.895   8.578   2.099  1.00  0.00    -0.033 A 
HETATM    3  C   UNL     1      63.698   7.563   3.378  1.00  0.00     0.009 A 
HETATM    4  C   UNL     1      62.734   9.640   4.122  1.00  0.00     0.009 A 
HETATM    5  C   UNL     1      62.819   7.543   2.292  1.00  0.00     0.009 A 
HETATM    6  C   UNL     1      61.831   9.603   3.054  1.00  0.00     0.009 A 
ENDROOT
BRANCH   1   7
HETATM    7  C   UNL     1      64.771   8.747   5.350  1.00  0.00     0.273 C 
BRANCH   7   8
HETATM    8  N   UNL     1      65.435   7.458   5.641  1.00  0.00    -0.064 N 
HETATM    9  C   UNL     1      66.876   7.647   5.908  1.00  0.00     0.263 C 
HETATM   10  C   UNL     1      67.589   6.337   6.312  1.00  0.00     0.262 C 
HETATM   11  N   UNL     1      66.988   5.630   7.458  1.00  0.00    -0.072 N 
HETATM   12  C   UNL     1      65.541   5.476   7.212  1.00  0.00     0.262 C 
HETATM   13  C   UNL     1      67.253   6.318   8.721  1.00  0.00     0.269 C 
HETATM   14  H   UNL     1      67.415   4.707   7.547  1.00  0.00     0.279 HD
HETATM   15  C   UNL     1      64.801   6.773   6.786  1.00  0.00     0.263 C 
HETATM   16  H   UNL     1      65.329   6.873   4.812  1.00  0.00     0.280 HD
ENDBRANCH   7   8
ENDBRANCH   1   7
BRANCH   2  17
HETATM   17  C   UNL     1      60.997   8.588   0.882  1.00  0.00     0.270 C 
BRANCH  17  18
HETATM   18  N   UNL     1      59.585   8.485   1.258  1.00  0.00    -0.075 N 
HETATM   19  C   UNL     1      58.949   7.347   0.615  1.00  0.00     0.267 C 
HETATM   20  H   UNL     1      59.103   9.338   0.977  1.00  0.00     0.277 HD
HETATM   21  H   UNL     1      59.530   8.355   2.268  1.00  0.00     0.277 HD
ENDBRANCH  17  18
ENDBRANCH   2  17
TORSDOF 4
ENDMDL
MODEL 3
REMARK VINA RESULT:      -4.8      1.493      1.963
REMARK  4 active torsions:
REMARK  status: ('A' for Active; 'I' for Inactive)
REMARK    1  A    between atoms: N_1  and  C_3 
REMARK    2  A    between atoms: C_3  and  C_8 
REMARK    3  A    between atoms: N_9  and  C_16 
REMARK    4  A    between atoms: C_10  and  C_16 
ROOT
HETATM    1  C   UNL     1      63.162   7.598   5.347  1.00  0.00    -0.033 A 
HETATM    2  C   UNL     1      62.450   8.973   2.979  1.00  0.00    -0.033 A 
HETATM    3  C   UNL     1      62.669   6.901   4.235  1.00  0.00     0.009 A 
HETATM    4  C   UNL     1      63.218   8.995   5.289  1.00  0.00     0.009 A 
HETATM    5  C   UNL     1      62.335   7.580   3.059  1.00  0.00     0.009 A 
HETATM    6  C   UNL     1      62.852   9.678   4.124  1.00  0.00     0.009 A 
ENDROOT
BRANCH   1   7
HETATM    7  C   UNL     1      63.693   6.845   6.555  1.00  0.00     0.273 C 
BRANCH   7   8
HETATM    8  N   UNL     1      65.108   7.152   6.856  1.00  0.00    -0.064 N 
HETATM    9  C   UNL     1      65.554   6.468   8.088  1.00  0.00     0.263 C 
HETATM   10  C   UNL     1      67.055   6.685   8.385  1.00  0.00     0.262 C 
HETATM   11  N   UNL     1      67.967   6.315   7.287  1.00  0.00    -0.072 N 
HETATM   12  C   UNL     1      67.498   6.964   6.047  1.00  0.00     0.262 C 
HETATM   13  C   UNL     1      68.072   4.865   7.134  1.00  0.00     0.269 C 
HETATM   14  H   UNL     1      68.908   6.643   7.505  1.00  0.00     0.279 HD
HETATM   15  C   UNL     1      65.989   6.778   5.732  1.00  0.00     0.263 C 
HETATM   16  H   UNL     1      65.171   8.160   6.999  1.00  0.00     0.280 HD
ENDBRANCH   7   8
ENDBRANCH   1   7
BRANCH   2  17
HETATM   17  C   UNL     1      62.159   9.695   1.683  1.00  0.00     0.270 C 
BRANCH  17  18
HETATM   18  N   UNL     1      61.138  10.730   1.864  1.00  0.00    -0.075 N 
HETATM   19  C   UNL     1      61.727  12.059   1.862  1.00  0.00     0.267 C 
HETATM   20  H   UNL     1      60.665  10.577   2.754  1.00  0.00     0.277 HD
HETATM   21  H   UNL     1      60.478  10.669   1.089  1.00  0.00     0.277 HD
ENDBRANCH  17  18
ENDBRANCH   2  17
TORSDOF 4
ENDMDL
MODEL 4
REMARK VINA RESULT:      -4.6      1.321      7.328
REMARK  4 active torsions:
REMARK  status: ('A' for Active; 'I' for Inactive)
REMARK    1  A    between atoms: N_1  and  C_3 
REMARK    2  A    between atoms: C_3  and  C_8 
REMARK    3  A    between atoms: N_9  and  C_16 
REMARK    4  A    between atoms: C_10  and  C_16 
ROOT
HETATM    1  C   UNL     1      64.963   7.043   4.853  1.00  0.00    -0.033 A 
HETATM    2  C   UNL     1      66.278   6.618   7.321  1.00  0.00    -0.033 A 
HETATM    3  C   UNL     1      65.997   7.892   5.268  1.00  0.00     0.009 A 
HETATM    4  C   UNL     1      64.540   6.030   5.721  1.00  0.00     0.009 A 
HETATM    5  C   UNL     1      66.659   7.670   6.479  1.00  0.00     0.009 A 
HETATM    6  C   UNL     1      65.180   5.828   6.950  1.00  0.00     0.009 A 
ENDROOT
BRANCH   1   7
HETATM    7  C   UNL     1      64.368   7.174   3.460  1.00  0.00     0.273 C 
BRANCH   7   8
HETATM    8  N   UNL     1      63.042   7.828   3.454  1.00  0.00    -0.064 N 
HETATM    9  C   UNL     1      63.096   9.157   4.100  1.00  0.00     0.263 C 
HETATM   10  C   UNL     1      61.752   9.916   4.029  1.00  0.00     0.262 C 
HETATM   11  N   UNL     1      61.201  10.077   2.670  1.00  0.00    -0.072 N 
HETATM   12  C   UNL     1      61.184   8.758   2.008  1.00  0.00     0.262 C 
HETATM   13  C   UNL     1      61.950  11.064   1.894  1.00  0.00     0.269 C 
HETATM   14  H   UNL     1      60.248  10.435   2.734  1.00  0.00     0.279 HD
HETATM   15  C   UNL     1      62.516   7.965   2.080  1.00  0.00     0.263 C 
HETATM   16  H   UNL     1      62.410   7.230   3.987  1.00  0.00     0.280 HD
ENDBRANCH   7   8
ENDBRANCH   1   7
BRANCH   2  17
HETATM   17  C   UNL     1      67.044   6.337   8.594  1.00  0.00     0.270 C 
BRANCH  17  18
HETATM   18  N   UNL     1      66.830   4.964   9.056  1.00  0.00    -0.075 N 
HETATM   19  C   UNL     1      68.063   4.195   9.020  1.00  0.00     0.267 C 
HETATM   20  H   UNL     1      66.141   4.514   8.454  1.00  0.00     0.277 HD
HETATM   21  H   UNL     1      66.500   4.997  10.021  1.00  0.00     0.277 HD
ENDBRANCH  17  18
ENDBRANCH   2  17
TORSDOF 4
ENDMDL
MODEL 5
REMARK VINA RESULT:      -4.5      2.014      7.240
REMARK  4 active torsions:
REMARK  status: ('A' for Active; 'I' for Inactive)
REMARK    1  A    between atoms: N_1  and  C_3 
REMARK    2  A    between atoms: C_3  and  C_8 
REMARK    3  A    between atoms: N_9  and  C_16 
REMARK    4  A    between atoms: C_10  and  C_16 
ROOT
HETATM    1  C   UNL     1      63.590   8.056   5.269  1.00  0.00    -0.033 A 
HETATM    2  C   UNL     1      65.843   6.868   6.500  1.00  0.00    -0.033 A 
HETATM    3  C   UNL     1      64.860   8.634   5.146  1.00  0.00     0.009 A 
HETATM    4  C   UNL     1      63.446   6.924   6.080  1.00  0.00     0.009 A 
HETATM    5  C   UNL     1      65.976   8.036   5.740  1.00  0.00     0.009 A 
HETATM    6  C   UNL     1      64.557   6.344   6.703  1.00  0.00     0.009 A 
ENDROOT
BRANCH   1   7
HETATM    7  C   UNL     1      62.413   8.603   4.477  1.00  0.00     0.273 C 
BRANCH   7   8
HETATM    8  N   UNL     1      62.417   8.178   3.061  1.00  0.00    -0.064 N 
HETATM    9  C   UNL     1      61.479   7.058   2.836  1.00  0.00     0.263 C 
HETATM   10  C   UNL     1      61.381   6.647   1.349  1.00  0.00     0.262 C 
HETATM   11  N   UNL     1      61.037   7.741   0.422  1.00  0.00    -0.072 N 
HETATM   12  C   UNL     1      61.946   8.876   0.674  1.00  0.00     0.262 C 
HETATM   13  C   UNL     1      59.634   8.133   0.543  1.00  0.00     0.269 C 
HETATM   14  H   UNL     1      61.156   7.419  -0.538  1.00  0.00     0.279 HD
HETATM   15  C   UNL     1      62.079   9.300   2.162  1.00  0.00     0.263 C 
HETATM   16  H   UNL     1      63.363   7.861   2.846  1.00  0.00     0.280 HD
ENDBRANCH   7   8
ENDBRANCH   1   7
BRANCH   2  17
HETATM   17  C   UNL     1      67.061   6.185   7.078  1.00  0.00     0.270 C 
BRANCH  17  18
HETATM   18  N   UNL     1      67.598   6.925   8.223  1.00  0.00    -0.075 N 
HETATM   19  C   UNL     1      66.914   6.564   9.454  1.00  0.00     0.267 C 
HETATM   20  H   UNL     1      67.478   7.924   8.057  1.00  0.00     0.277 HD
HETATM   21  H   UNL     1      68.585   6.691   8.323  1.00  0.00     0.277 HD
ENDBRANCH  17  18
ENDBRANCH   2  17
TORSDOF 4
ENDMDL
MODEL 6
REMARK VINA RESULT:      -4.4      2.345      7.209
REMARK  4 active torsions:
REMARK  status: ('A' for Active; 'I' for Inactive)
REMARK    1  A    between atoms: N_1  and  C_3 
REMARK    2  A    between atoms: C_3  and  C_8 
REMARK    3  A    between atoms: N_9  and  C_16 
REMARK    4  A    between atoms: C_10  and  C_16 
ROOT
HETATM    1  C   UNL     1      63.926   7.109   3.317  1.00  0.00    -0.033 A 
HETATM    2  C   UNL     1      65.742   7.937   5.323  1.00  0.00    -0.033 A 
HETATM    3  C   UNL     1      65.134   6.426   3.515  1.00  0.00     0.009 A 
HETATM    4  C   UNL     1      63.674   8.256   4.078  1.00  0.00     0.009 A 
HETATM    5  C   UNL     1      66.022   6.825   4.518  1.00  0.00     0.009 A 
HETATM    6  C   UNL     1      64.579   8.676   5.060  1.00  0.00     0.009 A 
ENDROOT
BRANCH   1   7
HETATM    7  C   UNL     1      62.883   6.568   2.353  1.00  0.00     0.273 C 
BRANCH   7   8
HETATM    8  N   UNL     1      61.653   7.387   2.309  1.00  0.00    -0.064 N 
HETATM    9  C   UNL     1      61.242   7.661   0.916  1.00  0.00     0.263 C 
HETATM   10  C   UNL     1      59.906   8.432   0.824  1.00  0.00     0.262 C 
HETATM   11  N   UNL     1      58.775   7.803   1.531  1.00  0.00    -0.072 N 
HETATM   12  C   UNL     1      59.196   7.490   2.911  1.00  0.00     0.262 C 
HETATM   13  C   UNL     1      58.289   6.616   0.830  1.00  0.00     0.269 C 
HETATM   14  H   UNL     1      57.989   8.454   1.558  1.00  0.00     0.279 HD
HETATM   15  C   UNL     1      60.545   6.731   3.034  1.00  0.00     0.263 C 
HETATM   16  H   UNL     1      61.865   8.272   2.769  1.00  0.00     0.280 HD
ENDBRANCH   7   8
ENDBRANCH   1   7
BRANCH   2  17
HETATM   17  C   UNL     1      66.670   8.319   6.453  1.00  0.00     0.270 C 
BRANCH  17  18
HETATM   18  N   UNL     1      67.337   7.144   7.019  1.00  0.00    -0.075 N 
HETATM   19  C   UNL     1      66.686   6.704   8.242  1.00  0.00     0.267 C 
HETATM   20  H   UNL     1      68.307   7.381   7.226  1.00  0.00     0.277 HD
HETATM   21  H   UNL     1      67.287   6.387   6.337  1.00  0.00     0.277 HD
ENDBRANCH  17  18
ENDBRANCH   2  17
TORSDOF 4
ENDMDL
MODEL 7
REMARK VINA RESULT:      -4.4      3.182      6.578
REMARK  4 active torsions:
REMARK  status: ('A' for Active; 'I' for Inactive)
REMARK    1  A    between atoms: N_1  and  C_3 
REMARK    2  A    between atoms: C_3  and  C_8 
REMARK    3  A    between atoms: N_9  and  C_16 
REMARK    4  A    between atoms: C_10  and  C_16 
ROOT
HETATM    1  C   UNL     1      62.923   7.692   3.513  1.00  0.00    -0.033 A 
HETATM    2  C   UNL     1      65.392   7.879   4.881  1.00  0.00    -0.033 A 
HETATM    3  C   UNL     1      63.954   6.779   3.256  1.00  0.00     0.009 A 
HETATM    4  C   UNL     1      63.169   8.746   4.402  1.00  0.00     0.009 A 
HETATM    5  C   UNL     1      65.167   6.861   3.946  1.00  0.00     0.009 A 
HETATM    6  C   UNL     1      64.396   8.848   5.067  1.00  0.00     0.009 A 
ENDROOT
BRANCH   1   7
HETATM    7  C   UNL     1      61.546   7.495   2.899  1.00  0.00     0.273 C 
BRANCH   7   8
HETATM    8  N   UNL     1      60.463   7.442   3.905  1.00  0.00    -0.064 N 
HETATM    9  C   UNL     1      59.137   7.603   3.272  1.00  0.00     0.263 C 
HETATM   10  C   UNL     1      57.971   7.456   4.276  1.00  0.00     0.262 C 
HETATM   11  N   UNL     1      57.972   6.202   5.051  1.00  0.00    -0.072 N 
HETATM   12  C   UNL     1      59.308   6.018   5.650  1.00  0.00     0.262 C 
HETATM   13  C   UNL     1      57.583   5.056   4.230  1.00  0.00     0.269 C 
HETATM   14  H   UNL     1      57.275   6.264   5.794  1.00  0.00     0.279 HD
HETATM   15  C   UNL     1      60.501   6.178   4.668  1.00  0.00     0.263 C 
HETATM   16  H   UNL     1      60.616   8.217   4.550  1.00  0.00     0.280 HD
ENDBRANCH   7   8
ENDBRANCH   1   7
BRANCH   2  17
HETATM   17  C   UNL     1      66.677   7.919   5.677  1.00  0.00     0.270 C 
BRANCH  17  18
HETATM   18  N   UNL     1      66.413   7.968   7.117  1.00  0.00    -0.075 N 
HETATM   19  C   UNL     1      66.054   6.657   7.634  1.00  0.00     0.267 C 
HETATM   20  H   UNL     1      65.645   8.616   7.293  1.00  0.00     0.277 HD
HETATM   21  H   UNL     1      67.262   8.277   7.589  1.00  0.00     0.277 HD
ENDBRANCH  17  18
ENDBRANCH   2  17
TORSDOF 4
ENDMDL
MODEL 8
REMARK VINA RESULT:      -4.1      2.993      7.391
REMARK  4 active torsions:
REMARK  status: ('A' for Active; 'I' for Inactive)
REMARK    1  A    between atoms: N_1  and  C_3 
REMARK    2  A    between atoms: C_3  and  C_8 
REMARK    3  A    between atoms: N_9  and  C_16 
REMARK    4  A    between atoms: C_10  and  C_16 
ROOT
HETATM    1  C   UNL     1      62.613   8.391   2.905  1.00  0.00    -0.033 A 
HETATM    2  C   UNL     1      64.601   8.004   4.880  1.00  0.00    -0.033 A 
HETATM    3  C   UNL     1      63.488   7.300   2.835  1.00  0.00     0.009 A 
HETATM    4  C   UNL     1      62.795   9.330   3.928  1.00  0.00     0.009 A 
HETATM    5  C   UNL     1      64.458   7.099   3.821  1.00  0.00     0.009 A 
HETATM    6  C   UNL     1      63.789   9.148   4.896  1.00  0.00     0.009 A 
ENDROOT
BRANCH   1   7
HETATM    7  C   UNL     1      61.446   8.509   1.937  1.00  0.00     0.273 C 
BRANCH   7   8
HETATM    8  N   UNL     1      60.615   7.288   1.877  1.00  0.00    -0.064 N 
HETATM    9  C   UNL     1      59.669   7.227   3.011  1.00  0.00     0.263 C 
HETATM   10  C   UNL     1      58.715   6.014   2.933  1.00  0.00     0.262 C 
HETATM   11  N   UNL     1      57.949   5.905   1.677  1.00  0.00    -0.072 N 
HETATM   12  C   UNL     1      58.887   6.007   0.543  1.00  0.00     0.262 C 
HETATM   13  C   UNL     1      56.891   6.910   1.598  1.00  0.00     0.269 C 
HETATM   14  H   UNL     1      57.479   5.000   1.647  1.00  0.00     0.279 HD
HETATM   15  C   UNL     1      59.871   7.206   0.603  1.00  0.00     0.263 C 
HETATM   16  H   UNL     1      61.250   6.491   1.936  1.00  0.00     0.280 HD
ENDBRANCH   7   8
ENDBRANCH   1   7
BRANCH   2  17
HETATM   17  C   UNL     1      65.602   7.744   5.983  1.00  0.00     0.270 C 
BRANCH  17  18
HETATM   18  N   UNL     1      64.965   7.127   7.149  1.00  0.00    -0.075 N 
HETATM   19  C   UNL     1      65.447   5.772   7.360  1.00  0.00     0.267 C 
HETATM   20  H   UNL     1      63.956   7.101   7.002  1.00  0.00     0.277 HD
HETATM   21  H   UNL     1      65.196   7.683   7.973  1.00  0.00     0.277 HD
ENDBRANCH  17  18
ENDBRANCH   2  17
TORSDOF 4
ENDMDL
MODEL 9
REMARK VINA RESULT:      -4.1      1.834      2.540
REMARK  4 active torsions:
REMARK  status: ('A' for Active; 'I' for Inactive)
REMARK    1  A    between atoms: N_1  and  C_3 
REMARK    2  A    between atoms: C_3  and  C_8 
REMARK    3  A    between atoms: N_9  and  C_16 
REMARK    4  A    between atoms: C_10  and  C_16 
ROOT
HETATM    1  C   UNL     1      63.375   6.379   4.612  1.00  0.00    -0.033 A 
HETATM    2  C   UNL     1      62.159   8.161   2.782  1.00  0.00    -0.033 A 
HETATM    3  C   UNL     1      62.372   7.261   5.033  1.00  0.00     0.009 A 
HETATM    4  C   UNL     1      63.818   6.453   3.286  1.00  0.00     0.009 A 
HETATM    5  C   UNL     1      61.759   8.129   4.124  1.00  0.00     0.009 A 
HETATM    6  C   UNL     1      63.229   7.346   2.384  1.00  0.00     0.009 A 
ENDROOT
BRANCH   1   7
HETATM    7  C   UNL     1      63.912   5.314   5.555  1.00  0.00     0.273 C 
BRANCH   7   8
HETATM    8  N   UNL     1      65.181   5.703   6.207  1.00  0.00    -0.064 N 
HETATM    9  C   UNL     1      66.348   5.259   5.416  1.00  0.00     0.263 C 
HETATM   10  C   UNL     1      67.693   5.729   6.013  1.00  0.00     0.262 C 
HETATM   11  N   UNL     1      67.801   7.184   6.233  1.00  0.00    -0.072 N 
HETATM   12  C   UNL     1      66.617   7.636   6.988  1.00  0.00     0.262 C 
HETATM   13  C   UNL     1      67.954   7.913   4.976  1.00  0.00     0.269 C 
HETATM   14  H   UNL     1      68.642   7.381   6.776  1.00  0.00     0.279 HD
HETATM   15  C   UNL     1      65.251   7.163   6.421  1.00  0.00     0.263 C 
HETATM   16  H   UNL     1      65.205   5.238   7.115  1.00  0.00     0.280 HD
ENDBRANCH   7   8
ENDBRANCH   1   7
BRANCH   2  17
HETATM   17  C   UNL     1      61.443   9.048   1.789  1.00  0.00     0.270 C 
BRANCH  17  18
HETATM   18  N   UNL     1      62.235  10.238   1.467  1.00  0.00    -0.075 N 
HETATM   19  C   UNL     1      61.766  11.400   2.203  1.00  0.00     0.267 C 
HETATM   20  H   UNL     1      62.160  10.426   0.467  1.00  0.00     0.277 HD
HETATM   21  H   UNL     1      63.204  10.060   1.729  1.00  0.00     0.277 HD
ENDBRANCH  17  18
ENDBRANCH   2  17
TORSDOF 4
ENDMDL
