MODEL 1
REMARK VINA RESULT:      -5.4      0.000      0.000
REMARK  4 active torsions:
REMARK  status: ('A' for Active; 'I' for Inactive)
REMARK    1  A    between atoms: N_1  and  C_3 
REMARK    2  A    between atoms: C_3  and  C_8 
REMARK    3  A    between atoms: C_9  and  C_16 
REMARK    4  A    between atoms: N_10  and  C_16 
ROOT
HETATM    1  C   UNL     1      63.331   7.967   4.943  1.00  0.00    -0.033 A 
HETATM    2  C   UNL     1      62.292   9.533   2.833  1.00  0.00    -0.033 A 
HETATM    3  C   UNL     1      62.972   9.302   5.157  1.00  0.00     0.009 A 
HETATM    4  C   UNL     1      63.231   7.442   3.645  1.00  0.00     0.009 A 
HETATM    5  C   UNL     1      62.448  10.075   4.117  1.00  0.00     0.009 A 
HETATM    6  C   UNL     1      62.717   8.221   2.601  1.00  0.00     0.009 A 
ENDROOT
BRANCH   1   7
HETATM    7  C   UNL     1      63.756   7.085   6.103  1.00  0.00     0.273 C 
BRANCH   7   8
HETATM    8  N   UNL     1      65.137   7.347   6.553  1.00  0.00    -0.064 N 
HETATM    9  C   UNL     1      65.486   6.540   7.742  1.00  0.00     0.263 C 
HETATM   10  C   UNL     1      66.958   6.718   8.177  1.00  0.00     0.262 C 
HETATM   11  N   UNL     1      67.953   6.463   7.118  1.00  0.00    -0.072 N 
HETATM   12  C   UNL     1      67.581   7.243   5.922  1.00  0.00     0.262 C 
HETATM   13  C   UNL     1      68.075   5.037   6.823  1.00  0.00     0.269 C 
HETATM   14  H   UNL     1      68.873   6.762   7.440  1.00  0.00     0.279 HD
HETATM   15  C   UNL     1      66.105   7.092   5.469  1.00  0.00     0.263 C 
HETATM   16  H   UNL     1      65.186   8.333   6.812  1.00  0.00     0.280 HD
ENDBRANCH   7   8
ENDBRANCH   1   7
BRANCH   2  17
HETATM   17  C   UNL     1      61.651  10.345   1.736  1.00  0.00     0.268 C 
BRANCH  17  18
HETATM   18  N   UNL     1      61.626  11.766   2.067  1.00  0.00    -0.075 N 
HETATM   19  H   UNL     1      62.451  12.000   2.620  1.00  0.00     0.274 HD
HETATM   20  H   UNL     1      60.785  11.973   2.605  1.00  0.00     0.274 HD
HETATM   21  H   UNL     1      61.625  12.315   1.207  1.00  0.00     0.274 HD
ENDBRANCH  17  18
ENDBRANCH   2  17
TORSDOF 4
ENDMDL
MODEL 2
REMARK VINA RESULT:      -5.2      1.361      2.192
REMARK  4 active torsions:
REMARK  status: ('A' for Active; 'I' for Inactive)
REMARK    1  A    between atoms: N_1  and  C_3 
REMARK    2  A    between atoms: C_3  and  C_8 
REMARK    3  A    between atoms: C_9  and  C_16 
REMARK    4  A    between atoms: N_10  and  C_16 
ROOT
HETATM    1  C   UNL     1      64.703   7.988   4.710  1.00  0.00    -0.033 A 
HETATM    2  C   UNL     1      62.520   8.887   3.158  1.00  0.00    -0.033 A 
HETATM    3  C   UNL     1      64.293   7.275   3.578  1.00  0.00     0.009 A 
HETATM    4  C   UNL     1      63.967   9.118   5.099  1.00  0.00     0.009 A 
HETATM    5  C   UNL     1      63.219   7.723   2.804  1.00  0.00     0.009 A 
HETATM    6  C   UNL     1      62.884   9.560   4.329  1.00  0.00     0.009 A 
ENDROOT
BRANCH   1   7
HETATM    7  C   UNL     1      65.959   7.586   5.463  1.00  0.00     0.273 C 
BRANCH   7   8
HETATM    8  N   UNL     1      65.683   6.732   6.634  1.00  0.00    -0.064 N 
HETATM    9  C   UNL     1      65.796   5.296   6.300  1.00  0.00     0.263 C 
HETATM   10  C   UNL     1      65.611   4.378   7.530  1.00  0.00     0.262 C 
HETATM   11  N   UNL     1      66.503   4.675   8.666  1.00  0.00    -0.072 N 
HETATM   12  C   UNL     1      66.415   6.116   8.973  1.00  0.00     0.262 C 
HETATM   13  C   UNL     1      67.878   4.258   8.397  1.00  0.00     0.269 C 
HETATM   14  H   UNL     1      66.203   4.140   9.481  1.00  0.00     0.279 HD
HETATM   15  C   UNL     1      66.585   7.061   7.754  1.00  0.00     0.263 C 
HETATM   16  H   UNL     1      64.722   6.917   6.920  1.00  0.00     0.280 HD
ENDBRANCH   7   8
ENDBRANCH   1   7
BRANCH   2  17
HETATM   17  C   UNL     1      61.416   9.411   2.274  1.00  0.00     0.268 C 
BRANCH  17  18
HETATM   18  N   UNL     1      61.466  10.864   2.162  1.00  0.00    -0.075 N 
HETATM   19  H   UNL     1      61.721  11.266   3.064  1.00  0.00     0.274 HD
HETATM   20  H   UNL     1      60.551  11.214   1.879  1.00  0.00     0.274 HD
HETATM   21  H   UNL     1      62.161  11.127   1.463  1.00  0.00     0.274 HD
ENDBRANCH  17  18
ENDBRANCH   2  17
TORSDOF 4
ENDMDL
MODEL 3
REMARK VINA RESULT:      -5.0      1.471      2.305
REMARK  4 active torsions:
REMARK  status: ('A' for Active; 'I' for Inactive)
REMARK    1  A    between atoms: N_1  and  C_3 
REMARK    2  A    between atoms: C_3  and  C_8 
REMARK    3  A    between atoms: C_9  and  C_16 
REMARK    4  A    between atoms: N_10  and  C_16 
ROOT
HETATM    1  C   UNL     1      63.656   8.622   4.235  1.00  0.00    -0.033 A 
HETATM    2  C   UNL     1      61.909   8.485   2.018  1.00  0.00    -0.033 A 
HETATM    3  C   UNL     1      63.732   7.554   3.333  1.00  0.00     0.009 A 
HETATM    4  C   UNL     1      62.651   9.585   4.056  1.00  0.00     0.009 A 
HETATM    5  C   UNL     1      62.875   7.491   2.232  1.00  0.00     0.009 A 
HETATM    6  C   UNL     1      61.785   9.514   2.958  1.00  0.00     0.009 A 
ENDROOT
BRANCH   1   7
HETATM    7  C   UNL     1      64.682   8.771   5.343  1.00  0.00     0.273 C 
BRANCH   7   8
HETATM    8  N   UNL     1      65.374   7.508   5.666  1.00  0.00    -0.064 N 
HETATM    9  C   UNL     1      66.789   7.737   6.025  1.00  0.00     0.263 C 
HETATM   10  C   UNL     1      67.514   6.444   6.465  1.00  0.00     0.262 C 
HETATM   11  N   UNL     1      66.856   5.707   7.560  1.00  0.00    -0.072 N 
HETATM   12  C   UNL     1      65.435   5.511   7.214  1.00  0.00     0.262 C 
HETATM   13  C   UNL     1      67.016   6.389   8.843  1.00  0.00     0.269 C 
HETATM   14  H   UNL     1      67.302   4.796   7.670  1.00  0.00     0.279 HD
HETATM   15  C   UNL     1      64.686   6.791   6.757  1.00  0.00     0.263 C 
HETATM   16  H   UNL     1      65.348   6.930   4.826  1.00  0.00     0.280 HD
ENDBRANCH   7   8
ENDBRANCH   1   7
BRANCH   2  17
HETATM   17  C   UNL     1      61.042   8.454   0.785  1.00  0.00     0.268 C 
BRANCH  17  18
HETATM   18  N   UNL     1      59.625   8.511   1.126  1.00  0.00    -0.075 N 
HETATM   19  H   UNL     1      59.522   8.570   2.139  1.00  0.00     0.274 HD
HETATM   20  H   UNL     1      59.160   7.669   0.785  1.00  0.00     0.274 HD
HETATM   21  H   UNL     1      59.204   9.332   0.691  1.00  0.00     0.274 HD
ENDBRANCH  17  18
ENDBRANCH   2  17
TORSDOF 4
ENDMDL
MODEL 4
REMARK VINA RESULT:      -5.0      1.069      1.328
REMARK  4 active torsions:
REMARK  status: ('A' for Active; 'I' for Inactive)
REMARK    1  A    between atoms: N_1  and  C_3 
REMARK    2  A    between atoms: C_3  and  C_8 
REMARK    3  A    between atoms: C_9  and  C_16 
REMARK    4  A    between atoms: N_10  and  C_16 
ROOT
HETATM    1  C   UNL     1      63.441   7.857   5.034  1.00  0.00    -0.033 A 
HETATM    2  C   UNL     1      62.420   9.370   2.878  1.00  0.00    -0.033 A 
HETATM    3  C   UNL     1      62.989   9.165   5.234  1.00  0.00     0.009 A 
HETATM    4  C   UNL     1      63.443   7.335   3.731  1.00  0.00     0.009 A 
HETATM    5  C   UNL     1      62.474   9.911   4.171  1.00  0.00     0.009 A 
HETATM    6  C   UNL     1      62.938   8.088   2.664  1.00  0.00     0.009 A 
ENDROOT
BRANCH   1   7
HETATM    7  C   UNL     1      63.858   6.995   6.212  1.00  0.00     0.273 C 
BRANCH   7   8
HETATM    8  N   UNL     1      65.185   6.373   6.033  1.00  0.00    -0.064 N 
HETATM    9  C   UNL     1      66.221   7.059   6.833  1.00  0.00     0.263 C 
HETATM   10  C   UNL     1      67.602   6.370   6.744  1.00  0.00     0.262 C 
HETATM   11  N   UNL     1      67.603   4.936   7.091  1.00  0.00    -0.072 N 
HETATM   12  C   UNL     1      66.543   4.261   6.318  1.00  0.00     0.262 C 
HETATM   13  C   UNL     1      67.445   4.729   8.529  1.00  0.00     0.269 C 
HETATM   14  H   UNL     1      68.506   4.530   6.847  1.00  0.00     0.279 HD
HETATM   15  C   UNL     1      65.149   4.939   6.379  1.00  0.00     0.263 C 
HETATM   16  H   UNL     1      65.429   6.467   5.047  1.00  0.00     0.280 HD
ENDBRANCH   7   8
ENDBRANCH   1   7
BRANCH   2  17
HETATM   17  C   UNL     1      61.789  10.149   1.751  1.00  0.00     0.268 C 
BRANCH  17  18
HETATM   18  N   UNL     1      61.590  11.548   2.113  1.00  0.00    -0.075 N 
HETATM   19  H   UNL     1      61.623  12.124   1.272  1.00  0.00     0.274 HD
HETATM   20  H   UNL     1      62.326  11.839   2.755  1.00  0.00     0.274 HD
HETATM   21  H   UNL     1      60.682  11.655   2.565  1.00  0.00     0.274 HD
ENDBRANCH  17  18
ENDBRANCH   2  17
TORSDOF 4
ENDMDL
MODEL 5
REMARK VINA RESULT:      -4.7      1.667      6.660
REMARK  4 active torsions:
REMARK  status: ('A' for Active; 'I' for Inactive)
REMARK    1  A    between atoms: N_1  and  C_3 
REMARK    2  A    between atoms: C_3  and  C_8 
REMARK    3  A    between atoms: C_9  and  C_16 
REMARK    4  A    between atoms: N_10  and  C_16 
ROOT
HETATM    1  C   UNL     1      64.187   7.855   5.479  1.00  0.00    -0.033 A 
HETATM    2  C   UNL     1      66.488   6.701   6.644  1.00  0.00    -0.033 A 
HETATM    3  C   UNL     1      64.068   6.845   6.440  1.00  0.00     0.009 A 
HETATM    4  C   UNL     1      65.470   8.234   5.055  1.00  0.00     0.009 A 
HETATM    5  C   UNL     1      65.205   6.280   7.024  1.00  0.00     0.009 A 
HETATM    6  C   UNL     1      66.609   7.659   5.632  1.00  0.00     0.009 A 
ENDROOT
BRANCH   1   7
HETATM    7  C   UNL     1      62.956   8.573   4.956  1.00  0.00     0.273 C 
BRANCH   7   8
HETATM    8  N   UNL     1      62.970   8.751   3.491  1.00  0.00    -0.064 N 
HETATM    9  C   UNL     1      62.641   7.495   2.785  1.00  0.00     0.263 C 
HETATM   10  C   UNL     1      62.549   7.673   1.252  1.00  0.00     0.262 C 
HETATM   11  N   UNL     1      61.620   8.729   0.806  1.00  0.00    -0.072 N 
HETATM   12  C   UNL     1      61.929   9.972   1.538  1.00  0.00     0.262 C 
HETATM   13  C   UNL     1      60.225   8.328   0.974  1.00  0.00     0.269 C 
HETATM   14  H   UNL     1      61.747   8.889  -0.194  1.00  0.00     0.279 HD
HETATM   15  C   UNL     1      62.039   9.819   3.078  1.00  0.00     0.263 C 
HETATM   16  H   UNL     1      63.918   9.023   3.231  1.00  0.00     0.280 HD
ENDBRANCH   7   8
ENDBRANCH   1   7
BRANCH   2  17
HETATM   17  C   UNL     1      67.708   6.146   7.336  1.00  0.00     0.268 C 
BRANCH  17  18
HETATM   18  N   UNL     1      67.781   6.585   8.725  1.00  0.00    -0.075 N 
HETATM   19  H   UNL     1      67.099   7.328   8.882  1.00  0.00     0.274 HD
HETATM   20  H   UNL     1      68.718   6.936   8.921  1.00  0.00     0.274 HD
HETATM   21  H   UNL     1      67.576   5.799   9.341  1.00  0.00     0.274 HD
ENDBRANCH  17  18
ENDBRANCH   2  17
TORSDOF 4
ENDMDL
MODEL 6
REMARK VINA RESULT:      -4.4      1.759      6.727
REMARK  4 active torsions:
REMARK  status: ('A' for Active; 'I' for Inactive)
REMARK    1  A    between atoms: N_1  and  C_3 
REMARK    2  A    between atoms: C_3  and  C_8 
REMARK    3  A    between atoms: C_9  and  C_16 
REMARK    4  A    between atoms: N_10  and  C_16 
ROOT
HETATM    1  C   UNL     1      65.612   7.456   5.839  1.00  0.00    -0.033 A 
HETATM    2  C   UNL     1      67.047   5.475   7.252  1.00  0.00    -0.033 A 
HETATM    3  C   UNL     1      65.007   6.746   6.880  1.00  0.00     0.009 A 
HETATM    4  C   UNL     1      66.922   7.118   5.464  1.00  0.00     0.009 A 
HETATM    5  C   UNL     1      65.718   5.773   7.587  1.00  0.00     0.009 A 
HETATM    6  C   UNL     1      67.630   6.134   6.165  1.00  0.00     0.009 A 
ENDROOT
BRANCH   1   7
HETATM    7  C   UNL     1      64.893   8.615   5.172  1.00  0.00     0.273 C 
BRANCH   7   8
HETATM    8  N   UNL     1      63.599   8.227   4.576  1.00  0.00    -0.064 N 
HETATM    9  C   UNL     1      62.761   9.407   4.275  1.00  0.00     0.263 C 
HETATM   10  C   UNL     1      61.443   9.039   3.557  1.00  0.00     0.262 C 
HETATM   11  N   UNL     1      61.607   8.243   2.326  1.00  0.00    -0.072 N 
HETATM   12  C   UNL     1      62.473   7.086   2.623  1.00  0.00     0.262 C 
HETATM   13  C   UNL     1      62.133   9.051   1.228  1.00  0.00     0.269 C 
HETATM   14  H   UNL     1      60.695   7.908   2.016  1.00  0.00     0.279 HD
HETATM   15  C   UNL     1      63.799   7.425   3.353  1.00  0.00     0.263 C 
HETATM   16  H   UNL     1      63.110   7.657   5.266  1.00  0.00     0.280 HD
ENDBRANCH   7   8
ENDBRANCH   1   7
BRANCH   2  17
HETATM   17  C   UNL     1      67.835   4.482   8.070  1.00  0.00     0.268 C 
BRANCH  17  18
HETATM   18  N   UNL     1      66.989   3.396   8.552  1.00  0.00    -0.075 N 
HETATM   19  H   UNL     1      66.209   3.783   9.082  1.00  0.00     0.274 HD
HETATM   20  H   UNL     1      67.537   2.780   9.153  1.00  0.00     0.274 HD
HETATM   21  H   UNL     1      66.631   2.866   7.757  1.00  0.00     0.274 HD
ENDBRANCH  17  18
ENDBRANCH   2  17
TORSDOF 4
ENDMDL
MODEL 7
REMARK VINA RESULT:      -4.1      3.424      7.104
REMARK  4 active torsions:
REMARK  status: ('A' for Active; 'I' for Inactive)
REMARK    1  A    between atoms: N_1  and  C_3 
REMARK    2  A    between atoms: C_3  and  C_8 
REMARK    3  A    between atoms: C_9  and  C_16 
REMARK    4  A    between atoms: N_10  and  C_16 
ROOT
HETATM    1  C   UNL     1      62.475   8.473   3.096  1.00  0.00    -0.033 A 
HETATM    2  C   UNL     1      64.610   8.197   4.925  1.00  0.00    -0.033 A 
HETATM    3  C   UNL     1      63.399   7.432   2.959  1.00  0.00     0.009 A 
HETATM    4  C   UNL     1      62.668   9.417   4.117  1.00  0.00     0.009 A 
HETATM    5  C   UNL     1      64.450   7.288   3.869  1.00  0.00     0.009 A 
HETATM    6  C   UNL     1      63.729   9.279   5.021  1.00  0.00     0.009 A 
ENDROOT
BRANCH   1   7
HETATM    7  C   UNL     1      61.250   8.543   2.202  1.00  0.00     0.273 C 
BRANCH   7   8
HETATM    8  N   UNL     1      60.459   7.296   2.207  1.00  0.00    -0.064 N 
HETATM    9  C   UNL     1      59.548   7.233   3.370  1.00  0.00     0.263 C 
HETATM   10  C   UNL     1      58.635   5.986   3.350  1.00  0.00     0.262 C 
HETATM   11  N   UNL     1      57.845   5.816   2.116  1.00  0.00    -0.072 N 
HETATM   12  C   UNL     1      58.752   5.915   0.956  1.00  0.00     0.262 C 
HETATM   13  C   UNL     1      56.751   6.782   2.037  1.00  0.00     0.269 C 
HETATM   14  H   UNL     1      57.407   4.895   2.120  1.00  0.00     0.279 HD
HETATM   15  C   UNL     1      59.689   7.151   0.957  1.00  0.00     0.263 C 
HETATM   16  H   UNL     1      61.120   6.523   2.278  1.00  0.00     0.280 HD
ENDBRANCH   7   8
ENDBRANCH   1   7
BRANCH   2  17
HETATM   17  C   UNL     1      65.697   7.990   5.950  1.00  0.00     0.268 C 
BRANCH  17  18
HETATM   18  N   UNL     1      65.229   7.177   7.068  1.00  0.00    -0.075 N 
HETATM   19  H   UNL     1      65.101   7.771   7.888  1.00  0.00     0.274 HD
HETATM   20  H   UNL     1      65.919   6.456   7.275  1.00  0.00     0.274 HD
HETATM   21  H   UNL     1      64.341   6.740   6.822  1.00  0.00     0.274 HD
ENDBRANCH  17  18
ENDBRANCH   2  17
TORSDOF 4
ENDMDL
MODEL 8
REMARK VINA RESULT:      -4.1      4.614      5.814
REMARK  4 active torsions:
REMARK  status: ('A' for Active; 'I' for Inactive)
REMARK    1  A    between atoms: N_1  and  C_3 
REMARK    2  A    between atoms: C_3  and  C_8 
REMARK    3  A    between atoms: C_9  and  C_16 
REMARK    4  A    between atoms: N_10  and  C_16 
ROOT
HETATM    1  C   UNL     1      59.199   7.516   2.647  1.00  0.00    -0.033 A 
HETATM    2  C   UNL     1      56.502   6.685   2.772  1.00  0.00    -0.033 A 
HETATM    3  C   UNL     1      58.541   7.415   3.878  1.00  0.00     0.009 A 
HETATM    4  C   UNL     1      58.473   7.264   1.472  1.00  0.00     0.009 A 
HETATM    5  C   UNL     1      57.211   6.995   3.942  1.00  0.00     0.009 A 
HETATM    6  C   UNL     1      57.136   6.854   1.537  1.00  0.00     0.009 A 
ENDROOT
BRANCH   1   7
HETATM    7  C   UNL     1      60.684   7.826   2.587  1.00  0.00     0.273 C 
BRANCH   7   8
HETATM    8  N   UNL     1      61.225   8.314   3.871  1.00  0.00    -0.064 N 
HETATM    9  C   UNL     1      61.983   7.260   4.579  1.00  0.00     0.263 C 
HETATM   10  C   UNL     1      62.647   7.769   5.879  1.00  0.00     0.262 C 
HETATM   11  N   UNL     1      63.514   8.950   5.711  1.00  0.00    -0.072 N 
HETATM   12  C   UNL     1      62.766   9.986   4.973  1.00  0.00     0.262 C 
HETATM   13  C   UNL     1      64.771   8.608   5.048  1.00  0.00     0.269 C 
HETATM   14  H   UNL     1      63.772   9.314   6.629  1.00  0.00     0.279 HD
HETATM   15  C   UNL     1      62.079   9.500   3.669  1.00  0.00     0.263 C 
HETATM   16  H   UNL     1      60.429   8.577   4.451  1.00  0.00     0.280 HD
ENDBRANCH   7   8
ENDBRANCH   1   7
BRANCH   2  17
HETATM   17  C   UNL     1      55.092   6.154   2.853  1.00  0.00     0.268 C 
BRANCH  17  18
HETATM   18  N   UNL     1      54.650   6.020   4.236  1.00  0.00    -0.075 N 
HETATM   19  H   UNL     1      54.838   6.887   4.738  1.00  0.00     0.274 HD
HETATM   20  H   UNL     1      55.154   5.253   4.681  1.00  0.00     0.274 HD
HETATM   21  H   UNL     1      53.648   5.826   4.255  1.00  0.00     0.274 HD
ENDBRANCH  17  18
ENDBRANCH   2  17
TORSDOF 4
ENDMDL
MODEL 9
REMARK VINA RESULT:      -4.1     10.363     12.187
REMARK  4 active torsions:
REMARK  status: ('A' for Active; 'I' for Inactive)
REMARK    1  A    between atoms: N_1  and  C_3 
REMARK    2  A    between atoms: C_3  and  C_8 
REMARK    3  A    between atoms: C_9  and  C_16 
REMARK    4  A    between atoms: N_10  and  C_16 
ROOT
HETATM    1  C   UNL     1      59.396  -0.304  13.271  1.00  0.00    -0.033 A 
HETATM    2  C   UNL     1      57.145   1.374  13.586  1.00  0.00    -0.033 A 
HETATM    3  C   UNL     1      58.108  -0.846  13.337  1.00  0.00     0.009 A 
HETATM    4  C   UNL     1      59.555   1.081  13.434  1.00  0.00     0.009 A 
HETATM    5  C   UNL     1      56.993  -0.016  13.483  1.00  0.00     0.009 A 
HETATM    6  C   UNL     1      58.437   1.910  13.592  1.00  0.00     0.009 A 
ENDROOT
BRANCH   1   7
HETATM    7  C   UNL     1      60.591  -1.188  12.961  1.00  0.00     0.273 C 
BRANCH   7   8
HETATM    8  N   UNL     1      61.697  -0.458  12.310  1.00  0.00    -0.064 N 
HETATM    9  C   UNL     1      63.016  -0.957  12.753  1.00  0.00     0.263 C 
HETATM   10  C   UNL     1      64.193  -0.280  12.014  1.00  0.00     0.262 C 
HETATM   11  N   UNL     1      64.125  -0.353  10.543  1.00  0.00    -0.072 N 
HETATM   12  C   UNL     1      62.795   0.113  10.107  1.00  0.00     0.262 C 
HETATM   13  C   UNL     1      64.420  -1.698  10.054  1.00  0.00     0.269 C 
HETATM   14  H   UNL     1      64.840   0.254  10.141  1.00  0.00     0.279 HD
HETATM   15  C   UNL     1      61.594  -0.541  10.840  1.00  0.00     0.263 C 
HETATM   16  H   UNL     1      61.616   0.520  12.590  1.00  0.00     0.280 HD
ENDBRANCH   7   8
ENDBRANCH   1   7
BRANCH   2  17
HETATM   17  C   UNL     1      55.935   2.270  13.661  1.00  0.00     0.268 C 
BRANCH  17  18
HETATM   18  N   UNL     1      55.040   1.870  14.743  1.00  0.00    -0.075 N 
HETATM   19  H   UNL     1      55.289   0.933  15.059  1.00  0.00     0.274 HD
HETATM   20  H   UNL     1      54.078   1.873  14.405  1.00  0.00     0.274 HD
HETATM   21  H   UNL     1      55.131   2.527  15.518  1.00  0.00     0.274 HD
ENDBRANCH  17  18
ENDBRANCH   2  17
TORSDOF 4
ENDMDL
