MODEL 1
REMARK VINA RESULT:      -5.3      0.000      0.000
REMARK  2 active torsions:
REMARK  status: ('A' for Active; 'I' for Inactive)
REMARK    1  A    between atoms: C_9  and  C_12 
REMARK    2  A    between atoms: O_11  and  C_12 
ROOT
HETATM    1  N   UNL     1      61.251   9.870   1.716  1.00  0.00    -0.350 N 
ATOM      2  HN  UNL     1      60.622  10.623   1.437  1.00  0.00     0.166 HD
HETATM    3  C   UNL     1      62.005   9.795   2.862  1.00  0.00     0.060 A 
HETATM    4  C   UNL     1      61.514   8.764   1.057  1.00  0.00     0.181 A 
HETATM    5  N   UNL     1      62.405   7.977   1.728  1.00  0.00    -0.351 N 
HETATM    6  C   UNL     1      62.739   8.614   2.896  1.00  0.00     0.060 A 
HETATM    7  C   UNL     1      62.116  10.700   3.928  1.00  0.00     0.041 A 
HETATM    8  C   UNL     1      63.592   8.272   3.945  1.00  0.00     0.032 A 
HETATM    9  C   UNL     1      62.962  10.391   5.008  1.00  0.00    -0.033 A 
HETATM   10  C   UNL     1      63.691   9.188   5.001  1.00  0.00     0.012 A 
HETATM   11  H   UNL     1      62.748   7.104   1.428  1.00  0.00     0.166 HD
ENDROOT
BRANCH   9  12
HETATM   12  C   UNL     1      63.088  11.355   6.161  1.00  0.00     0.203 C 
BRANCH  12  13
HETATM   13  O   UNL     1      64.453  11.545   6.510  1.00  0.00    -0.396 OA
HETATM   14  H   UNL     1      64.616  12.487   6.675  1.00  0.00     0.209 HD
ENDBRANCH  12  13
ENDBRANCH   9  12
TORSDOF 2
ENDMDL
MODEL 2
REMARK VINA RESULT:      -5.0      0.940      1.974
REMARK  2 active torsions:
REMARK  status: ('A' for Active; 'I' for Inactive)
REMARK    1  A    between atoms: C_9  and  C_12 
REMARK    2  A    between atoms: O_11  and  C_12 
ROOT
HETATM    1  N   UNL     1      62.754   7.728   2.398  1.00  0.00    -0.350 N 
ATOM      2  HN  UNL     1      63.141   6.895   2.841  1.00  0.00     0.166 HD
HETATM    3  C   UNL     1      62.570   8.966   2.967  1.00  0.00     0.060 A 
HETATM    4  C   UNL     1      62.324   7.849   1.162  1.00  0.00     0.181 A 
HETATM    5  N   UNL     1      61.871   9.112   0.907  1.00  0.00    -0.351 N 
HETATM    6  C   UNL     1      62.018   9.856   2.050  1.00  0.00     0.060 A 
HETATM    7  C   UNL     1      62.853   9.411   4.266  1.00  0.00     0.041 A 
HETATM    8  C   UNL     1      61.725  11.185   2.353  1.00  0.00     0.032 A 
HETATM    9  C   UNL     1      62.577  10.746   4.612  1.00  0.00    -0.033 A 
HETATM   10  C   UNL     1      62.014  11.612   3.656  1.00  0.00     0.012 A 
HETATM   11  H   UNL     1      61.504   9.433   0.051  1.00  0.00     0.166 HD
ENDROOT
BRANCH   9  12
HETATM   12  C   UNL     1      62.879  11.237   6.005  1.00  0.00     0.203 C 
BRANCH  12  13
HETATM   13  O   UNL     1      64.280  11.398   6.188  1.00  0.00    -0.396 OA
HETATM   14  H   UNL     1      64.471  12.320   6.419  1.00  0.00     0.209 HD
ENDBRANCH  12  13
ENDBRANCH   9  12
TORSDOF 2
ENDMDL
MODEL 3
REMARK VINA RESULT:      -4.8      1.399      2.554
REMARK  2 active torsions:
REMARK  status: ('A' for Active; 'I' for Inactive)
REMARK    1  A    between atoms: C_9  and  C_12 
REMARK    2  A    between atoms: O_11  and  C_12 
ROOT
HETATM    1  N   UNL     1      64.795   6.958   4.068  1.00  0.00    -0.350 N 
ATOM      2  HN  UNL     1      65.555   6.686   4.692  1.00  0.00     0.166 HD
HETATM    3  C   UNL     1      63.997   8.073   4.160  1.00  0.00     0.060 A 
HETATM    4  C   UNL     1      64.369   6.316   3.003  1.00  0.00     0.181 A 
HETATM    5  N   UNL     1      63.331   6.969   2.402  1.00  0.00    -0.351 N 
HETATM    6  C   UNL     1      63.069   8.106   3.124  1.00  0.00     0.060 A 
HETATM    7  C   UNL     1      64.006   9.110   5.104  1.00  0.00     0.041 A 
HETATM    8  C   UNL     1      62.132   9.126   2.967  1.00  0.00     0.032 A 
HETATM    9  C   UNL     1      63.080  10.161   4.980  1.00  0.00    -0.033 A 
HETATM   10  C   UNL     1      62.154  10.154   3.920  1.00  0.00     0.012 A 
HETATM   11  H   UNL     1      62.854   6.676   1.592  1.00  0.00     0.166 HD
ENDROOT
BRANCH   9  12
HETATM   12  C   UNL     1      63.080  11.283   5.987  1.00  0.00     0.203 C 
BRANCH  12  13
HETATM   13  O   UNL     1      64.400  11.544   6.448  1.00  0.00    -0.396 OA
HETATM   14  H   UNL     1      64.810  12.221   5.887  1.00  0.00     0.209 HD
ENDBRANCH  12  13
ENDBRANCH   9  12
TORSDOF 2
ENDMDL
MODEL 4
REMARK VINA RESULT:      -4.5      2.518      3.775
REMARK  2 active torsions:
REMARK  status: ('A' for Active; 'I' for Inactive)
REMARK    1  A    between atoms: C_9  and  C_12 
REMARK    2  A    between atoms: O_11  and  C_12 
ROOT
HETATM    1  N   UNL     1      63.288   6.715   4.458  1.00  0.00    -0.350 N 
ATOM      2  HN  UNL     1      63.274   5.943   3.791  1.00  0.00     0.166 HD
HETATM    3  C   UNL     1      62.958   8.028   4.221  1.00  0.00     0.060 A 
HETATM    4  C   UNL     1      63.626   6.668   5.727  1.00  0.00     0.181 A 
HETATM    5  N   UNL     1      63.528   7.894   6.321  1.00  0.00    -0.351 N 
HETATM    6  C   UNL     1      63.098   8.791   5.377  1.00  0.00     0.060 A 
HETATM    7  C   UNL     1      62.526   8.649   3.040  1.00  0.00     0.041 A 
HETATM    8  C   UNL     1      62.830  10.158   5.430  1.00  0.00     0.032 A 
HETATM    9  C   UNL     1      62.240  10.026   3.052  1.00  0.00    -0.033 A 
HETATM   10  C   UNL     1      62.400  10.762   4.241  1.00  0.00     0.012 A 
HETATM   11  H   UNL     1      63.729   8.098   7.263  1.00  0.00     0.166 HD
ENDROOT
BRANCH   9  12
HETATM   12  C   UNL     1      61.773  10.705   1.789  1.00  0.00     0.203 C 
BRANCH  12  13
HETATM   13  O   UNL     1      62.052  12.099   1.835  1.00  0.00    -0.396 OA
HETATM   14  H   UNL     1      62.040  12.400   2.757  1.00  0.00     0.209 HD
ENDBRANCH  12  13
ENDBRANCH   9  12
TORSDOF 2
ENDMDL
MODEL 5
REMARK VINA RESULT:      -4.5      3.115      4.593
REMARK  2 active torsions:
REMARK  status: ('A' for Active; 'I' for Inactive)
REMARK    1  A    between atoms: C_9  and  C_12 
REMARK    2  A    between atoms: O_11  and  C_12 
ROOT
HETATM    1  N   UNL     1      63.190   9.781   5.585  1.00  0.00    -0.350 N 
ATOM      2  HN  UNL     1      63.601   9.080   6.202  1.00  0.00     0.166 HD
HETATM    3  C   UNL     1      62.786   9.614   4.282  1.00  0.00     0.060 A 
HETATM    4  C   UNL     1      62.933  11.039   5.867  1.00  0.00     0.181 A 
HETATM    5  N   UNL     1      62.380  11.692   4.803  1.00  0.00    -0.351 N 
HETATM    6  C   UNL     1      62.271  10.800   3.767  1.00  0.00     0.060 A 
HETATM    7  C   UNL     1      62.825   8.474   3.467  1.00  0.00     0.041 A 
HETATM    8  C   UNL     1      61.784  10.921   2.466  1.00  0.00     0.032 A 
HETATM    9  C   UNL     1      62.340   8.553   2.150  1.00  0.00    -0.033 A 
HETATM   10  C   UNL     1      61.832   9.772   1.665  1.00  0.00     0.012 A 
HETATM   11  H   UNL     1      62.107  12.638   4.782  1.00  0.00     0.166 HD
ENDROOT
BRANCH   9  12
HETATM   12  C   UNL     1      62.374   7.333   1.264  1.00  0.00     0.203 C 
BRANCH  12  13
HETATM   13  O   UNL     1      61.437   7.457   0.202  1.00  0.00    -0.396 OA
HETATM   14  H   UNL     1      61.777   7.000  -0.583  1.00  0.00     0.209 HD
ENDBRANCH  12  13
ENDBRANCH   9  12
TORSDOF 2
ENDMDL
MODEL 6
REMARK VINA RESULT:      -4.5      2.982      4.174
REMARK  2 active torsions:
REMARK  status: ('A' for Active; 'I' for Inactive)
REMARK    1  A    between atoms: C_9  and  C_12 
REMARK    2  A    between atoms: O_11  and  C_12 
ROOT
HETATM    1  N   UNL     1      62.376  11.522   4.824  1.00  0.00    -0.350 N 
ATOM      2  HN  UNL     1      61.870  12.392   4.656  1.00  0.00     0.166 HD
HETATM    3  C   UNL     1      62.408  10.407   4.021  1.00  0.00     0.060 A 
HETATM    4  C   UNL     1      63.138  11.227   5.853  1.00  0.00     0.181 A 
HETATM    5  N   UNL     1      63.662   9.970   5.750  1.00  0.00    -0.351 N 
HETATM    6  C   UNL     1      63.210   9.417   4.579  1.00  0.00     0.060 A 
HETATM    7  C   UNL     1      61.775  10.164   2.793  1.00  0.00     0.041 A 
HETATM    8  C   UNL     1      63.425   8.177   3.978  1.00  0.00     0.032 A 
HETATM    9  C   UNL     1      61.970   8.928   2.152  1.00  0.00    -0.033 A 
HETATM   10  C   UNL     1      62.785   7.951   2.752  1.00  0.00     0.012 A 
HETATM   11  H   UNL     1      64.259   9.537   6.401  1.00  0.00     0.166 HD
ENDROOT
BRANCH   9  12
HETATM   12  C   UNL     1      61.297   8.655   0.830  1.00  0.00     0.203 C 
BRANCH  12  13
HETATM   13  O   UNL     1      59.882   8.713   0.966  1.00  0.00    -0.396 OA
HETATM   14  H   UNL     1      59.477   8.782   0.088  1.00  0.00     0.209 HD
ENDBRANCH  12  13
ENDBRANCH   9  12
TORSDOF 2
ENDMDL
MODEL 7
REMARK VINA RESULT:      -4.4      1.137      2.301
REMARK  2 active torsions:
REMARK  status: ('A' for Active; 'I' for Inactive)
REMARK    1  A    between atoms: C_9  and  C_12 
REMARK    2  A    between atoms: O_11  and  C_12 
ROOT
HETATM    1  N   UNL     1      62.286   7.993   1.443  1.00  0.00    -0.350 N 
ATOM      2  HN  UNL     1      62.605   7.164   0.941  1.00  0.00     0.166 HD
HETATM    3  C   UNL     1      62.711   8.440   2.671  1.00  0.00     0.060 A 
HETATM    4  C   UNL     1      61.381   8.862   1.054  1.00  0.00     0.181 A 
HETATM    5  N   UNL     1      61.203   9.853   1.977  1.00  0.00    -0.351 N 
HETATM    6  C   UNL     1      62.048   9.609   3.030  1.00  0.00     0.060 A 
HETATM    7  C   UNL     1      63.667   7.900   3.544  1.00  0.00     0.041 A 
HETATM    8  C   UNL     1      62.282  10.285   4.227  1.00  0.00     0.032 A 
HETATM    9  C   UNL     1      63.936   8.554   4.759  1.00  0.00    -0.033 A 
HETATM   10  C   UNL     1      63.239   9.732   5.087  1.00  0.00     0.012 A 
HETATM   11  H   UNL     1      60.578  10.610   1.901  1.00  0.00     0.166 HD
ENDROOT
BRANCH   9  12
HETATM   12  C   UNL     1      64.963   7.985   5.705  1.00  0.00     0.203 C 
BRANCH  12  13
HETATM   13  O   UNL     1      65.829   9.008   6.181  1.00  0.00    -0.396 OA
HETATM   14  H   UNL     1      65.637   9.836   5.715  1.00  0.00     0.209 HD
ENDBRANCH  12  13
ENDBRANCH   9  12
TORSDOF 2
ENDMDL
MODEL 8
REMARK VINA RESULT:      -4.4      1.846      2.659
REMARK  2 active torsions:
REMARK  status: ('A' for Active; 'I' for Inactive)
REMARK    1  A    between atoms: C_9  and  C_12 
REMARK    2  A    between atoms: O_11  and  C_12 
ROOT
HETATM    1  N   UNL     1      61.961  11.494   3.561  1.00  0.00    -0.350 N 
ATOM      2  HN  UNL     1      61.954  12.203   4.294  1.00  0.00     0.166 HD
HETATM    3  C   UNL     1      62.305  10.169   3.684  1.00  0.00     0.060 A 
HETATM    4  C   UNL     1      61.643  11.652   2.295  1.00  0.00     0.181 A 
HETATM    5  N   UNL     1      61.766  10.485   1.595  1.00  0.00    -0.351 N 
HETATM    6  C   UNL     1      62.189   9.511   2.463  1.00  0.00     0.060 A 
HETATM    7  C   UNL     1      62.727   9.450   4.811  1.00  0.00     0.041 A 
HETATM    8  C   UNL     1      62.473   8.157   2.293  1.00  0.00     0.032 A 
HETATM    9  C   UNL     1      63.020   8.080   4.684  1.00  0.00    -0.033 A 
HETATM   10  C   UNL     1      62.895   7.454   3.430  1.00  0.00     0.012 A 
HETATM   11  H   UNL     1      61.582  10.364   0.636  1.00  0.00     0.166 HD
ENDROOT
BRANCH   9  12
HETATM   12  C   UNL     1      63.472   7.296   5.889  1.00  0.00     0.203 C 
BRANCH  12  13
HETATM   13  O   UNL     1      62.802   7.744   7.061  1.00  0.00    -0.396 OA
HETATM   14  H   UNL     1      62.906   7.085   7.764  1.00  0.00     0.209 HD
ENDBRANCH  12  13
ENDBRANCH   9  12
TORSDOF 2
ENDMDL
MODEL 9
REMARK VINA RESULT:      -4.3      2.860      3.918
REMARK  2 active torsions:
REMARK  status: ('A' for Active; 'I' for Inactive)
REMARK    1  A    between atoms: C_9  and  C_12 
REMARK    2  A    between atoms: O_11  and  C_12 
ROOT
HETATM    1  N   UNL     1      65.521   8.407   6.240  1.00  0.00    -0.350 N 
ATOM      2  HN  UNL     1      65.679   9.080   6.990  1.00  0.00     0.166 HD
HETATM    3  C   UNL     1      64.594   8.486   5.228  1.00  0.00     0.060 A 
HETATM    4  C   UNL     1      66.159   7.276   6.035  1.00  0.00     0.181 A 
HETATM    5  N   UNL     1      65.686   6.622   4.933  1.00  0.00    -0.351 N 
HETATM    6  C   UNL     1      64.678   7.378   4.391  1.00  0.00     0.060 A 
HETATM    7  C   UNL     1      63.643   9.480   4.955  1.00  0.00     0.041 A 
HETATM    8  C   UNL     1      63.857   7.195   3.278  1.00  0.00     0.032 A 
HETATM    9  C   UNL     1      62.798   9.336   3.839  1.00  0.00    -0.033 A 
HETATM   10  C   UNL     1      62.912   8.197   3.021  1.00  0.00     0.012 A 
HETATM   11  H   UNL     1      66.011   5.760   4.588  1.00  0.00     0.166 HD
ENDROOT
BRANCH   9  12
HETATM   12  C   UNL     1      61.773  10.398   3.534  1.00  0.00     0.203 C 
BRANCH  12  13
HETATM   13  O   UNL     1      62.127  11.630   4.152  1.00  0.00    -0.396 OA
HETATM   14  H   UNL     1      62.991  11.920   3.821  1.00  0.00     0.209 HD
ENDBRANCH  12  13
ENDBRANCH   9  12
TORSDOF 2
ENDMDL
