MODEL 1
REMARK VINA RESULT:      -5.3      0.000      0.000
REMARK  4 active torsions:
REMARK  status: ('A' for Active; 'I' for Inactive)
REMARK    1  A    between atoms: C_1  and  C_3 
REMARK    2  A    between atoms: C_1  and  O_9 
REMARK    3  A    between atoms: N_2  and  C_5 
REMARK    4  A    between atoms: C_5  and  C_8 
ROOT
HETATM    1  C   UNL     1      62.961   8.744   4.039  1.00  0.00     0.039 A 
HETATM    2  C   UNL     1      63.397   7.559   3.431  1.00  0.00     0.018 A 
HETATM    3  C   UNL     1      63.753   9.335   5.032  1.00  0.00     0.018 A 
HETATM    4  C   UNL     1      65.418   7.579   4.784  1.00  0.00    -0.033 A 
HETATM    5  C   UNL     1      64.615   6.981   3.802  1.00  0.00     0.010 A 
HETATM    6  C   UNL     1      64.971   8.756   5.402  1.00  0.00     0.010 A 
ENDROOT
BRANCH   4   7
HETATM    7  C   UNL     1      66.757   6.977   5.163  1.00  0.00     0.273 C 
BRANCH   7   8
HETATM    8  N   UNL     1      66.717   6.172   6.399  1.00  0.00    -0.067 N 
HETATM    9  C   UNL     1      67.719   5.092   6.379  1.00  0.00     0.235 C 
HETATM   10  C   UNL     1      67.655   4.248   7.654  1.00  0.00     0.028 C 
HETATM   11  C   UNL     1      67.822   5.109   8.899  1.00  0.00     0.003 C 
HETATM   12  C   UNL     1      66.827   6.262   8.876  1.00  0.00     0.028 C 
HETATM   13  C   UNL     1      66.919   7.046   7.567  1.00  0.00     0.235 C 
HETATM   14  H   UNL     1      65.800   5.731   6.462  1.00  0.00     0.280 HD
ENDBRANCH   7   8
ENDBRANCH   4   7
BRANCH   1  15
HETATM   15  C   UNL     1      61.672   9.340   3.589  1.00  0.00     0.292 C 
HETATM   16  O   UNL     1      60.740   8.685   3.152  1.00  0.00    -0.259 OA
BRANCH  15  17
HETATM   17  O   UNL     1      61.703  10.689   3.728  1.00  0.00    -0.323 OA
HETATM   18  C   UNL     1      61.766  11.428   2.504  1.00  0.00     0.213 C 
ENDBRANCH  15  17
ENDBRANCH   1  15
TORSDOF 4
ENDMDL
MODEL 2
REMARK VINA RESULT:      -5.2      3.572      6.928
REMARK  4 active torsions:
REMARK  status: ('A' for Active; 'I' for Inactive)
REMARK    1  A    between atoms: C_1  and  C_3 
REMARK    2  A    between atoms: C_1  and  O_9 
REMARK    3  A    between atoms: N_2  and  C_5 
REMARK    4  A    between atoms: C_5  and  C_8 
ROOT
HETATM    1  C   UNL     1      66.137   6.316   6.461  1.00  0.00     0.039 A 
HETATM    2  C   UNL     1      64.797   5.995   6.716  1.00  0.00     0.018 A 
HETATM    3  C   UNL     1      66.439   7.497   5.772  1.00  0.00     0.018 A 
HETATM    4  C   UNL     1      64.073   8.043   5.622  1.00  0.00    -0.033 A 
HETATM    5  C   UNL     1      63.774   6.852   6.298  1.00  0.00     0.010 A 
HETATM    6  C   UNL     1      65.414   8.353   5.354  1.00  0.00     0.010 A 
ENDROOT
BRANCH   4   7
HETATM    7  C   UNL     1      62.968   8.994   5.200  1.00  0.00     0.273 C 
BRANCH   7   8
HETATM    8  N   UNL     1      62.897   9.209   3.742  1.00  0.00    -0.067 N 
HETATM    9  C   UNL     1      62.490   7.984   3.030  1.00  0.00     0.235 C 
HETATM   10  C   UNL     1      62.440   8.209   1.518  1.00  0.00     0.028 C 
HETATM   11  C   UNL     1      61.519   9.366   1.158  1.00  0.00     0.003 C 
HETATM   12  C   UNL     1      61.905  10.609   1.950  1.00  0.00     0.028 C 
HETATM   13  C   UNL     1      61.966  10.312   3.449  1.00  0.00     0.235 C 
HETATM   14  H   UNL     1      63.829   9.455   3.410  1.00  0.00     0.280 HD
ENDBRANCH   7   8
ENDBRANCH   4   7
BRANCH   1  15
HETATM   15  C   UNL     1      67.194   5.389   6.952  1.00  0.00     0.292 C 
HETATM   16  O   UNL     1      67.234   4.201   6.678  1.00  0.00    -0.259 OA
BRANCH  15  17
HETATM   17  O   UNL     1      68.075   6.055   7.741  1.00  0.00    -0.323 OA
HETATM   18  C   UNL     1      67.787   6.021   9.142  1.00  0.00     0.213 C 
ENDBRANCH  15  17
ENDBRANCH   1  15
TORSDOF 4
ENDMDL
MODEL 3
REMARK VINA RESULT:      -5.0      3.679      7.232
REMARK  4 active torsions:
REMARK  status: ('A' for Active; 'I' for Inactive)
REMARK    1  A    between atoms: C_1  and  C_3 
REMARK    2  A    between atoms: C_1  and  O_9 
REMARK    3  A    between atoms: N_2  and  C_5 
REMARK    4  A    between atoms: C_5  and  C_8 
ROOT
HETATM    1  C   UNL     1      64.375   8.304   4.822  1.00  0.00     0.039 A 
HETATM    2  C   UNL     1      64.208   7.349   3.811  1.00  0.00     0.018 A 
HETATM    3  C   UNL     1      63.536   9.426   4.849  1.00  0.00     0.018 A 
HETATM    4  C   UNL     1      62.355   8.620   2.881  1.00  0.00    -0.033 A 
HETATM    5  C   UNL     1      63.208   7.508   2.847  1.00  0.00     0.010 A 
HETATM    6  C   UNL     1      62.536   9.582   3.885  1.00  0.00     0.010 A 
ENDROOT
BRANCH   4   7
HETATM    7  C   UNL     1      61.244   8.777   1.860  1.00  0.00     0.273 C 
BRANCH   7   8
HETATM    8  N   UNL     1      60.191   7.749   1.968  1.00  0.00    -0.067 N 
HETATM    9  C   UNL     1      59.546   7.767   3.293  1.00  0.00     0.235 C 
HETATM   10  C   UNL     1      58.471   6.683   3.404  1.00  0.00     0.028 C 
HETATM   11  C   UNL     1      57.431   6.817   2.301  1.00  0.00     0.003 C 
HETATM   12  C   UNL     1      58.113   6.866   0.940  1.00  0.00     0.028 C 
HETATM   13  C   UNL     1      59.194   7.947   0.903  1.00  0.00     0.235 C 
HETATM   14  H   UNL     1      60.627   6.834   1.857  1.00  0.00     0.280 HD
ENDBRANCH   7   8
ENDBRANCH   4   7
BRANCH   1  15
HETATM   15  C   UNL     1      65.434   8.077   5.845  1.00  0.00     0.292 C 
HETATM   16  O   UNL     1      66.585   8.464   5.725  1.00  0.00    -0.259 OA
BRANCH  15  17
HETATM   17  O   UNL     1      64.932   7.382   6.897  1.00  0.00    -0.323 OA
HETATM   18  C   UNL     1      65.887   6.608   7.629  1.00  0.00     0.213 C 
ENDBRANCH  15  17
ENDBRANCH   1  15
TORSDOF 4
ENDMDL
MODEL 4
REMARK VINA RESULT:      -4.8      3.593      6.587
REMARK  4 active torsions:
REMARK  status: ('A' for Active; 'I' for Inactive)
REMARK    1  A    between atoms: C_1  and  C_3 
REMARK    2  A    between atoms: C_1  and  O_9 
REMARK    3  A    between atoms: N_2  and  C_5 
REMARK    4  A    between atoms: C_5  and  C_8 
ROOT
HETATM    1  C   UNL     1      65.509   7.925   4.998  1.00  0.00     0.039 A 
HETATM    2  C   UNL     1      65.331   6.849   4.119  1.00  0.00     0.018 A 
HETATM    3  C   UNL     1      64.485   8.869   5.142  1.00  0.00     0.018 A 
HETATM    4  C   UNL     1      63.104   7.648   3.555  1.00  0.00    -0.033 A 
HETATM    5  C   UNL     1      64.138   6.714   3.401  1.00  0.00     0.010 A 
HETATM    6  C   UNL     1      63.292   8.732   4.424  1.00  0.00     0.010 A 
ENDROOT
BRANCH   4   7
HETATM    7  C   UNL     1      61.794   7.484   2.807  1.00  0.00     0.273 C 
BRANCH   7   8
HETATM    8  N   UNL     1      60.612   7.431   3.689  1.00  0.00    -0.067 N 
HETATM    9  C   UNL     1      59.357   7.558   2.925  1.00  0.00     0.235 C 
HETATM   10  C   UNL     1      58.137   7.525   3.848  1.00  0.00     0.028 C 
HETATM   11  C   UNL     1      58.119   6.263   4.700  1.00  0.00     0.003 C 
HETATM   12  C   UNL     1      59.445   6.105   5.432  1.00  0.00     0.028 C 
HETATM   13  C   UNL     1      60.624   6.177   4.461  1.00  0.00     0.235 C 
HETATM   14  H   UNL     1      60.656   8.223   4.329  1.00  0.00     0.280 HD
ENDBRANCH   7   8
ENDBRANCH   4   7
BRANCH   1  15
HETATM   15  C   UNL     1      66.784   8.011   5.765  1.00  0.00     0.292 C 
HETATM   16  O   UNL     1      67.888   7.947   5.250  1.00  0.00    -0.259 OA
BRANCH  15  17
HETATM   17  O   UNL     1      66.529   8.156   7.090  1.00  0.00    -0.323 OA
HETATM   18  C   UNL     1      66.741   6.986   7.885  1.00  0.00     0.213 C 
ENDBRANCH  15  17
ENDBRANCH   1  15
TORSDOF 4
ENDMDL
MODEL 5
REMARK VINA RESULT:      -4.5      1.549      2.334
REMARK  4 active torsions:
REMARK  status: ('A' for Active; 'I' for Inactive)
REMARK    1  A    between atoms: C_1  and  C_3 
REMARK    2  A    between atoms: C_1  and  O_9 
REMARK    3  A    between atoms: N_2  and  C_5 
REMARK    4  A    between atoms: C_5  and  C_8 
ROOT
HETATM    1  C   UNL     1      62.907   8.664   4.712  1.00  0.00     0.039 A 
HETATM    2  C   UNL     1      62.441   7.544   5.413  1.00  0.00     0.018 A 
HETATM    3  C   UNL     1      64.255   9.026   4.816  1.00  0.00     0.018 A 
HETATM    4  C   UNL     1      64.672   7.137   6.291  1.00  0.00    -0.033 A 
HETATM    5  C   UNL     1      63.318   6.788   6.198  1.00  0.00     0.010 A 
HETATM    6  C   UNL     1      65.131   8.268   5.601  1.00  0.00     0.010 A 
ENDROOT
BRANCH   4   7
HETATM    7  C   UNL     1      65.634   6.298   7.111  1.00  0.00     0.273 C 
BRANCH   7   8
HETATM    8  N   UNL     1      66.003   5.022   6.469  1.00  0.00    -0.067 N 
HETATM    9  C   UNL     1      67.066   5.204   5.465  1.00  0.00     0.235 C 
HETATM   10  C   UNL     1      67.427   3.881   4.788  1.00  0.00     0.028 C 
HETATM   11  C   UNL     1      67.832   2.826   5.809  1.00  0.00     0.003 C 
HETATM   12  C   UNL     1      66.757   2.694   6.879  1.00  0.00     0.028 C 
HETATM   13  C   UNL     1      66.420   4.052   7.496  1.00  0.00     0.235 C 
HETATM   14  H   UNL     1      65.184   4.663   5.979  1.00  0.00     0.280 HD
ENDBRANCH   7   8
ENDBRANCH   4   7
BRANCH   1  15
HETATM   15  C   UNL     1      61.943   9.421   3.864  1.00  0.00     0.292 C 
HETATM   16  O   UNL     1      61.608  10.573   4.084  1.00  0.00    -0.259 OA
BRANCH  15  17
HETATM   17  O   UNL     1      61.501   8.642   2.844  1.00  0.00    -0.323 OA
HETATM   18  C   UNL     1      62.231   8.768   1.619  1.00  0.00     0.213 C 
ENDBRANCH  15  17
ENDBRANCH   1  15
TORSDOF 4
ENDMDL
MODEL 6
REMARK VINA RESULT:      -4.5      3.585      7.036
REMARK  4 active torsions:
REMARK  status: ('A' for Active; 'I' for Inactive)
REMARK    1  A    between atoms: C_1  and  C_3 
REMARK    2  A    between atoms: C_1  and  O_9 
REMARK    3  A    between atoms: N_2  and  C_5 
REMARK    4  A    between atoms: C_5  and  C_8 
ROOT
HETATM    1  C   UNL     1      65.830   6.812   5.518  1.00  0.00     0.039 A 
HETATM    2  C   UNL     1      65.000   6.199   4.569  1.00  0.00     0.018 A 
HETATM    3  C   UNL     1      65.658   8.173   5.800  1.00  0.00     0.018 A 
HETATM    4  C   UNL     1      63.818   8.295   4.213  1.00  0.00    -0.033 A 
HETATM    5  C   UNL     1      64.005   6.936   3.921  1.00  0.00     0.010 A 
HETATM    6  C   UNL     1      64.661   8.908   5.151  1.00  0.00     0.010 A 
ENDROOT
BRANCH   4   7
HETATM    7  C   UNL     1      62.714   9.088   3.540  1.00  0.00     0.273 C 
BRANCH   7   8
HETATM    8  N   UNL     1      61.835   8.271   2.683  1.00  0.00    -0.067 N 
HETATM    9  C   UNL     1      60.541   7.996   3.333  1.00  0.00     0.235 C 
HETATM   10  C   UNL     1      59.644   7.130   2.447  1.00  0.00     0.028 C 
HETATM   11  C   UNL     1      59.431   7.766   1.081  1.00  0.00     0.003 C 
HETATM   12  C   UNL     1      60.772   8.108   0.446  1.00  0.00     0.028 C 
HETATM   13  C   UNL     1      61.632   8.949   1.391  1.00  0.00     0.235 C 
HETATM   14  H   UNL     1      62.290   7.372   2.525  1.00  0.00     0.280 HD
ENDBRANCH   7   8
ENDBRANCH   4   7
BRANCH   1  15
HETATM   15  C   UNL     1      66.857   5.980   6.205  1.00  0.00     0.292 C 
HETATM   16  O   UNL     1      67.336   4.966   5.727  1.00  0.00    -0.259 OA
BRANCH  15  17
HETATM   17  O   UNL     1      67.156   6.509   7.419  1.00  0.00    -0.323 OA
HETATM   18  C   UNL     1      66.469   5.921   8.527  1.00  0.00     0.213 C 
ENDBRANCH  15  17
ENDBRANCH   1  15
TORSDOF 4
ENDMDL
MODEL 7
REMARK VINA RESULT:      -4.5      2.017      3.115
REMARK  4 active torsions:
REMARK  status: ('A' for Active; 'I' for Inactive)
REMARK    1  A    between atoms: C_1  and  C_3 
REMARK    2  A    between atoms: C_1  and  O_9 
REMARK    3  A    between atoms: N_2  and  C_5 
REMARK    4  A    between atoms: C_5  and  C_8 
ROOT
HETATM    1  C   UNL     1      60.738   7.798   3.484  1.00  0.00     0.039 A 
HETATM    2  C   UNL     1      61.253   7.059   4.557  1.00  0.00     0.018 A 
HETATM    3  C   UNL     1      61.492   8.852   2.953  1.00  0.00     0.018 A 
HETATM    4  C   UNL     1      63.278   8.405   4.544  1.00  0.00    -0.033 A 
HETATM    5  C   UNL     1      62.512   7.362   5.083  1.00  0.00     0.010 A 
HETATM    6  C   UNL     1      62.752   9.153   3.481  1.00  0.00     0.010 A 
ENDROOT
BRANCH   4   7
HETATM    7  C   UNL     1      64.661   8.713   5.087  1.00  0.00     0.273 C 
BRANCH   7   8
HETATM    8  N   UNL     1      65.418   7.515   5.495  1.00  0.00    -0.067 N 
HETATM    9  C   UNL     1      66.133   6.908   4.358  1.00  0.00     0.235 C 
HETATM   10  C   UNL     1      66.897   5.653   4.785  1.00  0.00     0.028 C 
HETATM   11  C   UNL     1      67.861   5.950   5.925  1.00  0.00     0.003 C 
HETATM   12  C   UNL     1      67.125   6.638   7.068  1.00  0.00     0.028 C 
HETATM   13  C   UNL     1      66.359   7.865   6.572  1.00  0.00     0.235 C 
HETATM   14  H   UNL     1      64.754   6.820   5.838  1.00  0.00     0.280 HD
ENDBRANCH   7   8
ENDBRANCH   4   7
BRANCH   1  15
HETATM   15  C   UNL     1      59.405   7.419   2.936  1.00  0.00     0.292 C 
HETATM   16  O   UNL     1      59.060   7.634   1.786  1.00  0.00    -0.259 OA
BRANCH  15  17
HETATM   17  O   UNL     1      58.653   6.824   3.896  1.00  0.00    -0.323 OA
HETATM   18  C   UNL     1      57.542   7.593   4.366  1.00  0.00     0.213 C 
ENDBRANCH  15  17
ENDBRANCH   1  15
TORSDOF 4
ENDMDL
MODEL 8
REMARK VINA RESULT:      -4.5      4.517      6.974
REMARK  4 active torsions:
REMARK  status: ('A' for Active; 'I' for Inactive)
REMARK    1  A    between atoms: C_1  and  C_3 
REMARK    2  A    between atoms: C_1  and  O_9 
REMARK    3  A    between atoms: N_2  and  C_5 
REMARK    4  A    between atoms: C_5  and  C_8 
ROOT
HETATM    1  C   UNL     1      63.515   8.155   5.094  1.00  0.00     0.039 A 
HETATM    2  C   UNL     1      62.952   7.420   6.145  1.00  0.00     0.018 A 
HETATM    3  C   UNL     1      62.898   8.136   3.837  1.00  0.00     0.018 A 
HETATM    4  C   UNL     1      61.149   6.678   4.692  1.00  0.00    -0.033 A 
HETATM    5  C   UNL     1      61.779   6.686   5.944  1.00  0.00     0.010 A 
HETATM    6  C   UNL     1      61.724   7.402   3.638  1.00  0.00     0.010 A 
ENDROOT
BRANCH   4   7
HETATM    7  C   UNL     1      59.856   5.913   4.480  1.00  0.00     0.273 C 
BRANCH   7   8
HETATM    8  N   UNL     1      58.884   6.076   5.578  1.00  0.00    -0.067 N 
HETATM    9  C   UNL     1      57.737   6.907   5.172  1.00  0.00     0.235 C 
HETATM   10  C   UNL     1      56.745   7.090   6.322  1.00  0.00     0.028 C 
HETATM   11  C   UNL     1      56.268   5.750   6.863  1.00  0.00     0.003 C 
HETATM   12  C   UNL     1      57.462   4.872   7.216  1.00  0.00     0.028 C 
HETATM   13  C   UNL     1      58.428   4.753   6.037  1.00  0.00     0.235 C 
HETATM   14  H   UNL     1      59.349   6.559   6.346  1.00  0.00     0.280 HD
ENDBRANCH   7   8
ENDBRANCH   4   7
BRANCH   1  15
HETATM   15  C   UNL     1      64.748   8.948   5.363  1.00  0.00     0.292 C 
HETATM   16  O   UNL     1      64.745  10.040   5.906  1.00  0.00    -0.259 OA
BRANCH  15  17
HETATM   17  O   UNL     1      65.842   8.285   4.910  1.00  0.00    -0.323 OA
HETATM   18  C   UNL     1      66.756   7.851   5.922  1.00  0.00     0.213 C 
ENDBRANCH  15  17
ENDBRANCH   1  15
TORSDOF 4
ENDMDL
MODEL 9
REMARK VINA RESULT:      -4.4      5.625      7.766
REMARK  4 active torsions:
REMARK  status: ('A' for Active; 'I' for Inactive)
REMARK    1  A    between atoms: C_1  and  C_3 
REMARK    2  A    between atoms: C_1  and  O_9 
REMARK    3  A    between atoms: N_2  and  C_5 
REMARK    4  A    between atoms: C_5  and  C_8 
ROOT
HETATM    1  C   UNL     1      59.064   5.919   7.262  1.00  0.00     0.039 A 
HETATM    2  C   UNL     1      60.315   5.727   6.660  1.00  0.00     0.018 A 
HETATM    3  C   UNL     1      57.971   6.289   6.468  1.00  0.00     0.018 A 
HETATM    4  C   UNL     1      59.371   6.246   4.479  1.00  0.00    -0.033 A 
HETATM    5  C   UNL     1      60.466   5.892   5.280  1.00  0.00     0.010 A 
HETATM    6  C   UNL     1      58.125   6.453   5.088  1.00  0.00     0.010 A 
ENDROOT
BRANCH   4   7
HETATM    7  C   UNL     1      59.523   6.389   2.977  1.00  0.00     0.273 C 
BRANCH   7   8
HETATM    8  N   UNL     1      60.746   7.108   2.570  1.00  0.00    -0.067 N 
HETATM    9  C   UNL     1      60.979   7.008   1.118  1.00  0.00     0.235 C 
HETATM   10  C   UNL     1      62.261   7.737   0.708  1.00  0.00     0.028 C 
HETATM   11  C   UNL     1      62.236   9.194   1.146  1.00  0.00     0.003 C 
HETATM   12  C   UNL     1      61.926   9.289   2.634  1.00  0.00     0.028 C 
HETATM   13  C   UNL     1      60.653   8.518   2.985  1.00  0.00     0.235 C 
HETATM   14  H   UNL     1      61.542   6.671   3.034  1.00  0.00     0.280 HD
ENDBRANCH   7   8
ENDBRANCH   4   7
BRANCH   1  15
HETATM   15  C   UNL     1      58.943   5.703   8.732  1.00  0.00     0.292 C 
HETATM   16  O   UNL     1      58.576   6.563   9.514  1.00  0.00    -0.259 OA
BRANCH  15  17
HETATM   17  O   UNL     1      59.308   4.435   9.052  1.00  0.00    -0.323 OA
HETATM   18  C   UNL     1      58.361   3.709   9.842  1.00  0.00     0.213 C 
ENDBRANCH  15  17
ENDBRANCH   1  15
TORSDOF 4
ENDMDL
