MODEL 1
REMARK VINA RESULT:      -6.0      0.000      0.000
REMARK  3 active torsions:
REMARK  status: ('A' for Active; 'I' for Inactive)
REMARK    1  A    between atoms: C_1  and  C_3 
REMARK    2  A    between atoms: N_2  and  C_7 
REMARK    3  A    between atoms: C_6  and  C_7 
ROOT
HETATM    1  C   UNL     1      62.188   9.937   2.514  1.00  0.00     0.041 A 
HETATM    2  C   UNL     1      62.754   9.082   3.482  1.00  0.00     0.027 A 
HETATM    3  C   UNL     1      63.030   7.736   3.190  1.00  0.00    -0.032 A 
HETATM    4  C   UNL     1      61.909   9.413   1.237  1.00  0.00     0.018 A 
HETATM    5  C   UNL     1      62.182   8.075   0.944  1.00  0.00     0.002 A 
HETATM    6  C   UNL     1      62.732   7.237   1.914  1.00  0.00     0.009 A 
ENDROOT
BRANCH   3   7
HETATM    7  C   UNL     1      63.604   6.825   4.256  1.00  0.00     0.273 C 
BRANCH   7   8
HETATM    8  N   UNL     1      64.938   7.231   4.754  1.00  0.00    -0.067 N 
HETATM    9  C   UNL     1      66.055   6.619   4.001  1.00  0.00     0.235 C 
HETATM   10  C   UNL     1      67.387   7.233   4.448  1.00  0.00     0.028 C 
HETATM   11  C   UNL     1      67.574   7.024   5.953  1.00  0.00     0.003 C 
HETATM   12  C   UNL     1      66.390   7.638   6.705  1.00  0.00     0.028 C 
HETATM   13  C   UNL     1      65.080   7.016   6.208  1.00  0.00     0.235 C 
HETATM   14  H   UNL     1      64.999   8.235   4.584  1.00  0.00     0.280 HD
ENDBRANCH   7   8
ENDBRANCH   3   7
BRANCH   1  15
HETATM   15  C   UNL     1      61.898  11.361   2.873  1.00  0.00     0.209 C 
HETATM   16  O   UNL     1      61.817  12.200   1.987  1.00  0.00    -0.644 OA
HETATM   17  O   UNL     1      61.729  11.773   4.150  1.00  0.00    -0.644 OA
ENDBRANCH   1  15
TORSDOF 3
ENDMDL
MODEL 2
REMARK VINA RESULT:      -5.6      1.978      3.133
REMARK  3 active torsions:
REMARK  status: ('A' for Active; 'I' for Inactive)
REMARK    1  A    between atoms: C_1  and  C_3 
REMARK    2  A    between atoms: N_2  and  C_7 
REMARK    3  A    between atoms: C_6  and  C_7 
ROOT
HETATM    1  C   UNL     1      63.371   9.273   4.677  1.00  0.00     0.041 A 
HETATM    2  C   UNL     1      64.663   8.904   5.104  1.00  0.00     0.027 A 
HETATM    3  C   UNL     1      65.244   7.691   4.699  1.00  0.00    -0.032 A 
HETATM    4  C   UNL     1      62.671   8.397   3.824  1.00  0.00     0.018 A 
HETATM    5  C   UNL     1      63.247   7.191   3.419  1.00  0.00     0.002 A 
HETATM    6  C   UNL     1      64.521   6.834   3.858  1.00  0.00     0.009 A 
ENDROOT
BRANCH   3   7
HETATM    7  C   UNL     1      66.619   7.298   5.199  1.00  0.00     0.273 C 
BRANCH   7   8
HETATM    8  N   UNL     1      66.608   6.410   6.384  1.00  0.00    -0.067 N 
HETATM    9  C   UNL     1      66.675   7.143   7.667  1.00  0.00     0.235 C 
HETATM   10  C   UNL     1      66.466   6.175   8.837  1.00  0.00     0.028 C 
HETATM   11  C   UNL     1      67.527   5.072   8.791  1.00  0.00     0.003 C 
HETATM   12  C   UNL     1      67.457   4.351   7.442  1.00  0.00     0.028 C 
HETATM   13  C   UNL     1      67.643   5.359   6.303  1.00  0.00     0.235 C 
HETATM   14  H   UNL     1      65.698   5.948   6.370  1.00  0.00     0.280 HD
ENDBRANCH   7   8
ENDBRANCH   3   7
BRANCH   1  15
HETATM   15  C   UNL     1      62.785  10.569   5.146  1.00  0.00     0.209 C 
HETATM   16  O   UNL     1      63.068  10.989   6.258  1.00  0.00    -0.644 OA
HETATM   17  O   UNL     1      61.935  11.301   4.390  1.00  0.00    -0.644 OA
ENDBRANCH   1  15
TORSDOF 3
ENDMDL
MODEL 3
REMARK VINA RESULT:      -5.6      1.789      2.530
REMARK  3 active torsions:
REMARK  status: ('A' for Active; 'I' for Inactive)
REMARK    1  A    between atoms: C_1  and  C_3 
REMARK    2  A    between atoms: N_2  and  C_7 
REMARK    3  A    between atoms: C_6  and  C_7 
ROOT
HETATM    1  C   UNL     1      62.017   9.450   2.707  1.00  0.00     0.041 A 
HETATM    2  C   UNL     1      62.478   8.448   3.585  1.00  0.00     0.027 A 
HETATM    3  C   UNL     1      62.894   8.759   4.890  1.00  0.00    -0.032 A 
HETATM    4  C   UNL     1      61.978  10.781   3.170  1.00  0.00     0.018 A 
HETATM    5  C   UNL     1      62.392  11.093   4.467  1.00  0.00     0.002 A 
HETATM    6  C   UNL     1      62.854  10.092   5.322  1.00  0.00     0.009 A 
ENDROOT
BRANCH   3   7
HETATM    7  C   UNL     1      63.419   7.671   5.804  1.00  0.00     0.273 C 
BRANCH   7   8
HETATM    8  N   UNL     1      64.881   7.715   6.031  1.00  0.00    -0.067 N 
HETATM    9  C   UNL     1      65.672   7.532   4.795  1.00  0.00     0.235 C 
HETATM   10  C   UNL     1      67.158   7.781   5.080  1.00  0.00     0.028 C 
HETATM   11  C   UNL     1      67.641   6.826   6.175  1.00  0.00     0.003 C 
HETATM   12  C   UNL     1      66.786   7.013   7.431  1.00  0.00     0.028 C 
HETATM   13  C   UNL     1      65.309   6.782   7.094  1.00  0.00     0.235 C 
HETATM   14  H   UNL     1      65.078   8.662   6.355  1.00  0.00     0.280 HD
ENDBRANCH   7   8
ENDBRANCH   3   7
BRANCH   1  15
HETATM   15  C   UNL     1      61.597   9.076   1.320  1.00  0.00     0.209 C 
HETATM   16  O   UNL     1      62.409   9.135   0.409  1.00  0.00    -0.644 OA
HETATM   17  O   UNL     1      60.338   8.681   1.021  1.00  0.00    -0.644 OA
ENDBRANCH   1  15
TORSDOF 3
ENDMDL
MODEL 4
REMARK VINA RESULT:      -5.3      3.579      6.196
REMARK  3 active torsions:
REMARK  status: ('A' for Active; 'I' for Inactive)
REMARK    1  A    between atoms: C_1  and  C_3 
REMARK    2  A    between atoms: N_2  and  C_7 
REMARK    3  A    between atoms: C_6  and  C_7 
ROOT
HETATM    1  C   UNL     1      63.888   9.083   4.878  1.00  0.00     0.041 A 
HETATM    2  C   UNL     1      63.214   8.488   3.792  1.00  0.00     0.027 A 
HETATM    3  C   UNL     1      62.150   9.142   3.150  1.00  0.00    -0.032 A 
HETATM    4  C   UNL     1      63.473  10.360   5.306  1.00  0.00     0.018 A 
HETATM    5  C   UNL     1      62.415  11.013   4.669  1.00  0.00     0.002 A 
HETATM    6  C   UNL     1      61.751  10.407   3.602  1.00  0.00     0.009 A 
ENDROOT
BRANCH   3   7
HETATM    7  C   UNL     1      61.416   8.467   2.008  1.00  0.00     0.273 C 
BRANCH   7   8
HETATM    8  N   UNL     1      59.978   8.228   2.262  1.00  0.00    -0.067 N 
HETATM    9  C   UNL     1      59.710   7.599   3.574  1.00  0.00     0.235 C 
HETATM   10  C   UNL     1      58.201   7.562   3.841  1.00  0.00     0.028 C 
HETATM   11  C   UNL     1      57.497   6.791   2.721  1.00  0.00     0.003 C 
HETATM   12  C   UNL     1      57.816   7.442   1.373  1.00  0.00     0.028 C 
HETATM   13  C   UNL     1      59.333   7.483   1.161  1.00  0.00     0.235 C 
HETATM   14  H   UNL     1      59.550   9.153   2.299  1.00  0.00     0.280 HD
ENDBRANCH   7   8
ENDBRANCH   3   7
BRANCH   1  15
HETATM   15  C   UNL     1      65.007   8.344   5.542  1.00  0.00     0.209 C 
HETATM   16  O   UNL     1      66.148   8.480   5.126  1.00  0.00    -0.644 OA
HETATM   17  O   UNL     1      64.812   7.511   6.590  1.00  0.00    -0.644 OA
ENDBRANCH   1  15
TORSDOF 3
ENDMDL
MODEL 5
REMARK VINA RESULT:      -5.2      3.426      5.921
REMARK  3 active torsions:
REMARK  status: ('A' for Active; 'I' for Inactive)
REMARK    1  A    between atoms: C_1  and  C_3 
REMARK    2  A    between atoms: N_2  and  C_7 
REMARK    3  A    between atoms: C_6  and  C_7 
ROOT
HETATM    1  C   UNL     1      62.610   9.791   4.222  1.00  0.00     0.041 A 
HETATM    2  C   UNL     1      61.597   9.560   3.269  1.00  0.00     0.027 A 
HETATM    3  C   UNL     1      61.584   8.391   2.491  1.00  0.00    -0.032 A 
HETATM    4  C   UNL     1      63.614   8.816   4.383  1.00  0.00     0.018 A 
HETATM    5  C   UNL     1      63.603   7.652   3.610  1.00  0.00     0.002 A 
HETATM    6  C   UNL     1      62.601   7.442   2.664  1.00  0.00     0.009 A 
ENDROOT
BRANCH   3   7
HETATM    7  C   UNL     1      60.506   8.181   1.446  1.00  0.00     0.273 C 
BRANCH   7   8
HETATM    8  N   UNL     1      59.157   7.933   2.002  1.00  0.00    -0.067 N 
HETATM    9  C   UNL     1      59.176   7.483   3.411  1.00  0.00     0.235 C 
HETATM   10  C   UNL     1      57.748   7.435   3.967  1.00  0.00     0.028 C 
HETATM   11  C   UNL     1      56.893   6.493   3.113  1.00  0.00     0.003 C 
HETATM   12  C   UNL     1      56.916   6.962   1.656  1.00  0.00     0.028 C 
HETATM   13  C   UNL     1      58.362   7.023   1.152  1.00  0.00     0.235 C 
HETATM   14  H   UNL     1      58.690   8.840   2.001  1.00  0.00     0.280 HD
ENDBRANCH   7   8
ENDBRANCH   3   7
BRANCH   1  15
HETATM   15  C   UNL     1      62.593  11.058   5.020  1.00  0.00     0.209 C 
HETATM   16  O   UNL     1      61.971  12.023   4.602  1.00  0.00    -0.644 OA
HETATM   17  O   UNL     1      63.253  11.190   6.193  1.00  0.00    -0.644 OA
ENDBRANCH   1  15
TORSDOF 3
ENDMDL
MODEL 6
REMARK VINA RESULT:      -5.2      3.518      4.671
REMARK  3 active torsions:
REMARK  status: ('A' for Active; 'I' for Inactive)
REMARK    1  A    between atoms: C_1  and  C_3 
REMARK    2  A    between atoms: N_2  and  C_7 
REMARK    3  A    between atoms: C_6  and  C_7 
ROOT
HETATM    1  C   UNL     1      62.016  10.045   3.560  1.00  0.00     0.041 A 
HETATM    2  C   UNL     1      61.670   8.753   4.006  1.00  0.00     0.027 A 
HETATM    3  C   UNL     1      61.324   7.739   3.099  1.00  0.00    -0.032 A 
HETATM    4  C   UNL     1      62.012  10.299   2.174  1.00  0.00     0.018 A 
HETATM    5  C   UNL     1      61.668   9.292   1.269  1.00  0.00     0.002 A 
HETATM    6  C   UNL     1      61.318   8.021   1.726  1.00  0.00     0.009 A 
ENDROOT
BRANCH   3   7
HETATM    7  C   UNL     1      60.920   6.368   3.604  1.00  0.00     0.273 C 
BRANCH   7   8
HETATM    8  N   UNL     1      60.197   6.381   4.895  1.00  0.00    -0.067 N 
HETATM    9  C   UNL     1      60.865   5.587   5.950  1.00  0.00     0.235 C 
HETATM   10  C   UNL     1      60.164   5.806   7.295  1.00  0.00     0.028 C 
HETATM   11  C   UNL     1      58.689   5.413   7.180  1.00  0.00     0.003 C 
HETATM   12  C   UNL     1      58.030   6.225   6.062  1.00  0.00     0.028 C 
HETATM   13  C   UNL     1      58.778   5.998   4.743  1.00  0.00     0.235 C 
HETATM   14  H   UNL     1      60.222   7.350   5.212  1.00  0.00     0.280 HD
ENDBRANCH   7   8
ENDBRANCH   3   7
BRANCH   1  15
HETATM   15  C   UNL     1      62.365  11.101   4.562  1.00  0.00     0.209 C 
HETATM   16  O   UNL     1      61.992  12.250   4.380  1.00  0.00    -0.644 OA
HETATM   17  O   UNL     1      63.096  10.841   5.671  1.00  0.00    -0.644 OA
ENDBRANCH   1  15
TORSDOF 3
ENDMDL
MODEL 7
REMARK VINA RESULT:      -5.2      3.255      5.921
REMARK  3 active torsions:
REMARK  status: ('A' for Active; 'I' for Inactive)
REMARK    1  A    between atoms: C_1  and  C_3 
REMARK    2  A    between atoms: N_2  and  C_7 
REMARK    3  A    between atoms: C_6  and  C_7 
ROOT
HETATM    1  C   UNL     1      62.920   9.314   4.742  1.00  0.00     0.041 A 
HETATM    2  C   UNL     1      62.662   8.769   3.468  1.00  0.00     0.027 A 
HETATM    3  C   UNL     1      62.111   9.552   2.441  1.00  0.00    -0.032 A 
HETATM    4  C   UNL     1      62.616  10.671   4.965  1.00  0.00     0.018 A 
HETATM    5  C   UNL     1      62.067  11.453   3.945  1.00  0.00     0.002 A 
HETATM    6  C   UNL     1      61.809  10.898   2.692  1.00  0.00     0.009 A 
ENDROOT
BRANCH   3   7
HETATM    7  C   UNL     1      61.809   8.936   1.089  1.00  0.00     0.273 C 
BRANCH   7   8
HETATM    8  N   UNL     1      60.846   7.813   1.131  1.00  0.00    -0.067 N 
HETATM    9  C   UNL     1      61.349   6.584   0.478  1.00  0.00     0.235 C 
HETATM   10  C   UNL     1      60.383   5.422   0.731  1.00  0.00     0.028 C 
HETATM   11  C   UNL     1      58.992   5.781   0.200  1.00  0.00     0.003 C 
HETATM   12  C   UNL     1      58.508   7.072   0.867  1.00  0.00     0.028 C 
HETATM   13  C   UNL     1      59.517   8.198   0.613  1.00  0.00     0.235 C 
HETATM   14  H   UNL     1      60.736   7.584   2.119  1.00  0.00     0.280 HD
ENDBRANCH   7   8
ENDBRANCH   3   7
BRANCH   1  15
HETATM   15  C   UNL     1      63.495   8.439   5.813  1.00  0.00     0.209 C 
HETATM   16  O   UNL     1      64.702   8.252   5.852  1.00  0.00    -0.644 OA
HETATM   17  O   UNL     1      62.730   7.826   6.745  1.00  0.00    -0.644 OA
ENDBRANCH   1  15
TORSDOF 3
ENDMDL
MODEL 8
REMARK VINA RESULT:      -5.1      3.745      6.561
REMARK  3 active torsions:
REMARK  status: ('A' for Active; 'I' for Inactive)
REMARK    1  A    between atoms: C_1  and  C_3 
REMARK    2  A    between atoms: N_2  and  C_7 
REMARK    3  A    between atoms: C_6  and  C_7 
ROOT
HETATM    1  C   UNL     1      65.625   6.142   7.007  1.00  0.00     0.041 A 
HETATM    2  C   UNL     1      64.338   6.460   6.527  1.00  0.00     0.027 A 
HETATM    3  C   UNL     1      64.122   7.585   5.715  1.00  0.00    -0.032 A 
HETATM    4  C   UNL     1      66.700   6.981   6.648  1.00  0.00     0.018 A 
HETATM    5  C   UNL     1      66.487   8.101   5.841  1.00  0.00     0.002 A 
HETATM    6  C   UNL     1      65.206   8.408   5.382  1.00  0.00     0.009 A 
ENDROOT
BRANCH   3   7
HETATM    7  C   UNL     1      62.724   7.927   5.241  1.00  0.00     0.273 C 
BRANCH   7   8
HETATM    8  N   UNL     1      62.671   8.583   3.915  1.00  0.00    -0.067 N 
HETATM    9  C   UNL     1      61.850   9.813   3.901  1.00  0.00     0.235 C 
HETATM   10  C   UNL     1      62.002  10.531   2.555  1.00  0.00     0.028 C 
HETATM   11  C   UNL     1      61.584   9.593   1.419  1.00  0.00     0.003 C 
HETATM   12  C   UNL     1      62.426   8.316   1.475  1.00  0.00     0.028 C 
HETATM   13  C   UNL     1      62.266   7.647   2.846  1.00  0.00     0.235 C 
HETATM   14  H   UNL     1      63.627   8.879   3.719  1.00  0.00     0.280 HD
ENDBRANCH   7   8
ENDBRANCH   3   7
BRANCH   1  15
HETATM   15  C   UNL     1      65.808   4.941   7.881  1.00  0.00     0.209 C 
HETATM   16  O   UNL     1      65.098   3.961   7.712  1.00  0.00    -0.644 OA
HETATM   17  O   UNL     1      66.728   4.892   8.871  1.00  0.00    -0.644 OA
ENDBRANCH   1  15
TORSDOF 3
ENDMDL
MODEL 9
REMARK VINA RESULT:      -4.8      3.941      5.763
REMARK  3 active torsions:
REMARK  status: ('A' for Active; 'I' for Inactive)
REMARK    1  A    between atoms: C_1  and  C_3 
REMARK    2  A    between atoms: N_2  and  C_7 
REMARK    3  A    between atoms: C_6  and  C_7 
ROOT
HETATM    1  C   UNL     1      62.159   9.873   3.923  1.00  0.00     0.041 A 
HETATM    2  C   UNL     1      61.178   8.912   3.604  1.00  0.00     0.027 A 
HETATM    3  C   UNL     1      61.277   7.590   4.067  1.00  0.00    -0.032 A 
HETATM    4  C   UNL     1      63.248   9.478   4.727  1.00  0.00     0.018 A 
HETATM    5  C   UNL     1      63.349   8.163   5.188  1.00  0.00     0.002 A 
HETATM    6  C   UNL     1      62.376   7.221   4.856  1.00  0.00     0.009 A 
ENDROOT
BRANCH   3   7
HETATM    7  C   UNL     1      60.229   6.565   3.682  1.00  0.00     0.273 C 
BRANCH   7   8
HETATM    8  N   UNL     1      59.140   6.402   4.671  1.00  0.00    -0.067 N 
HETATM    9  C   UNL     1      58.803   4.988   4.944  1.00  0.00     0.235 C 
HETATM   10  C   UNL     1      57.810   4.901   6.109  1.00  0.00     0.028 C 
HETATM   11  C   UNL     1      56.548   5.700   5.774  1.00  0.00     0.003 C 
HETATM   12  C   UNL     1      56.928   7.150   5.464  1.00  0.00     0.028 C 
HETATM   13  C   UNL     1      57.941   7.188   4.314  1.00  0.00     0.235 C 
HETATM   14  H   UNL     1      59.507   6.780   5.545  1.00  0.00     0.280 HD
ENDBRANCH   7   8
ENDBRANCH   3   7
BRANCH   1  15
HETATM   15  C   UNL     1      62.021  11.267   3.397  1.00  0.00     0.209 C 
HETATM   16  O   UNL     1      61.910  12.198   4.182  1.00  0.00    -0.644 OA
HETATM   17  O   UNL     1      62.000  11.550   2.075  1.00  0.00    -0.644 OA
ENDBRANCH   1  15
TORSDOF 3
ENDMDL
