MODEL 1
REMARK VINA RESULT:      -5.8      0.000      0.000
REMARK  4 active torsions:
REMARK  status: ('A' for Active; 'I' for Inactive)
REMARK    1  A    between atoms: N_1  and  C_3 
REMARK    2  A    between atoms: C_3  and  C_4 
REMARK    3  A    between atoms: C_10  and  C_15 
REMARK    4  A    between atoms: O_12  and  C_15 
ROOT
HETATM    1  C   UNL     1      64.187   6.951   4.054  1.00  0.00     0.273 C 
ENDROOT
BRANCH   1   2
HETATM    2  N   UNL     1      65.263   6.937   5.065  1.00  0.00    -0.064 N 
HETATM    3  C   UNL     1      65.049   5.880   6.077  1.00  0.00     0.263 C 
HETATM    4  C   UNL     1      66.210   5.786   7.094  1.00  0.00     0.262 C 
HETATM    5  N   UNL     1      67.546   5.609   6.493  1.00  0.00    -0.072 N 
HETATM    6  C   UNL     1      67.739   6.636   5.453  1.00  0.00     0.262 C 
HETATM    7  C   UNL     1      67.723   4.258   5.966  1.00  0.00     0.269 C 
HETATM    8  H   UNL     1      68.260   5.727   7.212  1.00  0.00     0.279 HD
HETATM    9  C   UNL     1      66.582   6.763   4.427  1.00  0.00     0.263 C 
HETATM   10  H   UNL     1      65.239   7.839   5.539  1.00  0.00     0.280 HD
ENDBRANCH   1   2
BRANCH   1  11
HETATM   11  C   UNL     1      63.505   8.301   3.946  1.00  0.00    -0.032 A 
HETATM   12  C   UNL     1      63.678   9.257   4.962  1.00  0.00     0.018 A 
HETATM   13  C   UNL     1      62.935  10.443   4.969  1.00  0.00    -0.034 A 
HETATM   14  C   UNL     1      62.059  10.704   3.907  1.00  0.00     0.009 A 
HETATM   15  C   UNL     1      61.917   9.783   2.866  1.00  0.00     0.001 A 
HETATM   16  C   UNL     1      62.628   8.584   2.891  1.00  0.00     0.009 A 
BRANCH  13  17
HETATM   17  C   UNL     1      63.006  11.378   6.148  1.00  0.00     0.202 C 
BRANCH  17  18
HETATM   18  O   UNL     1      64.351  11.648   6.511  1.00  0.00    -0.396 OA
HETATM   19  H   UNL     1      64.608  11.074   7.250  1.00  0.00     0.209 HD
ENDBRANCH  17  18
ENDBRANCH  13  17
ENDBRANCH   1  11
TORSDOF 4
ENDMDL
MODEL 2
REMARK VINA RESULT:      -5.6      1.933      2.229
REMARK  4 active torsions:
REMARK  status: ('A' for Active; 'I' for Inactive)
REMARK    1  A    between atoms: N_1  and  C_3 
REMARK    2  A    between atoms: C_3  and  C_4 
REMARK    3  A    between atoms: C_10  and  C_15 
REMARK    4  A    between atoms: O_12  and  C_15 
ROOT
HETATM    1  C   UNL     1      63.696   6.959   4.539  1.00  0.00     0.273 C 
ENDROOT
BRANCH   1   2
HETATM    2  N   UNL     1      64.983   7.458   5.062  1.00  0.00    -0.064 N 
HETATM    3  C   UNL     1      65.138   7.166   6.504  1.00  0.00     0.263 C 
HETATM    4  C   UNL     1      66.516   7.598   7.055  1.00  0.00     0.262 C 
HETATM    5  N   UNL     1      67.674   7.043   6.327  1.00  0.00    -0.072 N 
HETATM    6  C   UNL     1      67.495   7.296   4.885  1.00  0.00     0.262 C 
HETATM    7  C   UNL     1      67.857   5.622   6.614  1.00  0.00     0.269 C 
HETATM    8  H   UNL     1      68.526   7.506   6.642  1.00  0.00     0.279 HD
HETATM    9  C   UNL     1      66.114   6.886   4.309  1.00  0.00     0.263 C 
HETATM   10  H   UNL     1      64.982   8.471   4.943  1.00  0.00     0.280 HD
ENDBRANCH   1   2
BRANCH   1  11
HETATM   11  C   UNL     1      63.178   7.785   3.378  1.00  0.00    -0.032 A 
HETATM   12  C   UNL     1      62.852   9.139   3.570  1.00  0.00     0.018 A 
HETATM   13  C   UNL     1      62.222   9.878   2.562  1.00  0.00    -0.034 A 
HETATM   14  C   UNL     1      61.981   9.272   1.323  1.00  0.00     0.009 A 
HETATM   15  C   UNL     1      62.347   7.942   1.104  1.00  0.00     0.001 A 
HETATM   16  C   UNL     1      62.933   7.199   2.129  1.00  0.00     0.009 A 
BRANCH  13  17
HETATM   17  C   UNL     1      61.727  11.273   2.840  1.00  0.00     0.202 C 
BRANCH  17  18
HETATM   18  O   UNL     1      62.106  12.170   1.808  1.00  0.00    -0.396 OA
HETATM   19  H   UNL     1      62.960  11.895   1.438  1.00  0.00     0.209 HD
ENDBRANCH  17  18
ENDBRANCH  13  17
ENDBRANCH   1  11
TORSDOF 4
ENDMDL
MODEL 3
REMARK VINA RESULT:      -5.5      2.185      2.802
REMARK  4 active torsions:
REMARK  status: ('A' for Active; 'I' for Inactive)
REMARK    1  A    between atoms: N_1  and  C_3 
REMARK    2  A    between atoms: C_3  and  C_4 
REMARK    3  A    between atoms: C_10  and  C_15 
REMARK    4  A    between atoms: O_12  and  C_15 
ROOT
HETATM    1  C   UNL     1      63.401   7.545   5.696  1.00  0.00     0.273 C 
ENDROOT
BRANCH   1   2
HETATM    2  N   UNL     1      64.778   7.798   6.163  1.00  0.00    -0.064 N 
HETATM    3  C   UNL     1      65.180   6.852   7.226  1.00  0.00     0.263 C 
HETATM    4  C   UNL     1      66.650   7.039   7.666  1.00  0.00     0.262 C 
HETATM    5  N   UNL     1      67.637   6.975   6.571  1.00  0.00    -0.072 N 
HETATM    6  C   UNL     1      67.210   7.887   5.493  1.00  0.00     0.262 C 
HETATM    7  C   UNL     1      67.817   5.607   6.090  1.00  0.00     0.269 C 
HETATM    8  H   UNL     1      68.548   7.275   6.918  1.00  0.00     0.279 HD
HETATM    9  C   UNL     1      65.735   7.731   5.041  1.00  0.00     0.263 C 
HETATM   10  H   UNL     1      64.792   8.740   6.555  1.00  0.00     0.280 HD
ENDBRANCH   1   2
BRANCH   1  11
HETATM   11  C   UNL     1      62.830   8.704   4.903  1.00  0.00    -0.032 A 
HETATM   12  C   UNL     1      62.325   8.488   3.609  1.00  0.00     0.018 A 
HETATM   13  C   UNL     1      61.944   9.561   2.796  1.00  0.00    -0.034 A 
HETATM   14  C   UNL     1      62.005  10.861   3.312  1.00  0.00     0.009 A 
HETATM   15  C   UNL     1      62.458  11.084   4.614  1.00  0.00     0.001 A 
HETATM   16  C   UNL     1      62.878  10.013   5.402  1.00  0.00     0.009 A 
BRANCH  13  17
HETATM   17  C   UNL     1      61.565   9.326   1.357  1.00  0.00     0.202 C 
BRANCH  17  18
HETATM   18  O   UNL     1      60.227   8.869   1.243  1.00  0.00    -0.396 OA
HETATM   19  H   UNL     1      60.145   8.000   1.670  1.00  0.00     0.209 HD
ENDBRANCH  17  18
ENDBRANCH  13  17
ENDBRANCH   1  11
TORSDOF 4
ENDMDL
MODEL 4
REMARK VINA RESULT:      -4.8      1.720      2.475
REMARK  4 active torsions:
REMARK  status: ('A' for Active; 'I' for Inactive)
REMARK    1  A    between atoms: N_1  and  C_3 
REMARK    2  A    between atoms: C_3  and  C_4 
REMARK    3  A    between atoms: C_10  and  C_15 
REMARK    4  A    between atoms: O_12  and  C_15 
ROOT
HETATM    1  C   UNL     1      64.301   7.181   4.116  1.00  0.00     0.273 C 
ENDROOT
BRANCH   1   2
HETATM    2  N   UNL     1      64.498   6.525   5.424  1.00  0.00    -0.064 N 
HETATM    3  C   UNL     1      64.013   5.128   5.414  1.00  0.00     0.263 C 
HETATM    4  C   UNL     1      64.292   4.390   6.743  1.00  0.00     0.262 C 
HETATM    5  N   UNL     1      65.704   4.404   7.174  1.00  0.00    -0.072 N 
HETATM    6  C   UNL     1      66.198   5.793   7.140  1.00  0.00     0.262 C 
HETATM    7  C   UNL     1      66.523   3.513   6.356  1.00  0.00     0.269 C 
HETATM    8  H   UNL     1      65.770   4.051   8.129  1.00  0.00     0.279 HD
HETATM    9  C   UNL     1      65.918   6.562   5.822  1.00  0.00     0.263 C 
HETATM   10  H   UNL     1      63.948   7.046   6.106  1.00  0.00     0.280 HD
ENDBRANCH   1   2
BRANCH   1  11
HETATM   11  C   UNL     1      63.523   8.478   4.226  1.00  0.00    -0.032 A 
HETATM   12  C   UNL     1      62.824   8.973   3.112  1.00  0.00     0.018 A 
HETATM   13  C   UNL     1      62.235  10.242   3.136  1.00  0.00    -0.034 A 
HETATM   14  C   UNL     1      62.288  10.995   4.317  1.00  0.00     0.009 A 
HETATM   15  C   UNL     1      62.936  10.491   5.446  1.00  0.00     0.001 A 
HETATM   16  C   UNL     1      63.560   9.245   5.398  1.00  0.00     0.009 A 
BRANCH  13  17
HETATM   17  C   UNL     1      61.637  10.827   1.883  1.00  0.00     0.202 C 
BRANCH  17  18
HETATM   18  O   UNL     1      62.002  12.189   1.725  1.00  0.00    -0.396 OA
HETATM   19  H   UNL     1      62.205  12.362   0.791  1.00  0.00     0.209 HD
ENDBRANCH  17  18
ENDBRANCH  13  17
ENDBRANCH   1  11
TORSDOF 4
ENDMDL
MODEL 5
REMARK VINA RESULT:      -4.7      1.668      2.045
REMARK  4 active torsions:
REMARK  status: ('A' for Active; 'I' for Inactive)
REMARK    1  A    between atoms: N_1  and  C_3 
REMARK    2  A    between atoms: C_3  and  C_4 
REMARK    3  A    between atoms: C_10  and  C_15 
REMARK    4  A    between atoms: O_12  and  C_15 
ROOT
HETATM    1  C   UNL     1      64.631   6.433   3.639  1.00  0.00     0.273 C 
ENDROOT
BRANCH   1   2
HETATM    2  N   UNL     1      65.521   7.117   4.598  1.00  0.00    -0.064 N 
HETATM    3  C   UNL     1      65.224   6.728   5.994  1.00  0.00     0.263 C 
HETATM    4  C   UNL     1      66.202   7.360   7.010  1.00  0.00     0.262 C 
HETATM    5  N   UNL     1      67.630   7.106   6.735  1.00  0.00    -0.072 N 
HETATM    6  C   UNL     1      67.913   7.453   5.330  1.00  0.00     0.262 C 
HETATM    7  C   UNL     1      67.998   5.725   7.041  1.00  0.00     0.269 C 
HETATM    8  H   UNL     1      68.202   7.692   7.343  1.00  0.00     0.279 HD
HETATM    9  C   UNL     1      66.937   6.844   4.290  1.00  0.00     0.263 C 
HETATM   10  H   UNL     1      65.348   8.118   4.506  1.00  0.00     0.280 HD
ENDBRANCH   1   2
BRANCH   1  11
HETATM   11  C   UNL     1      63.275   7.101   3.523  1.00  0.00    -0.032 A 
HETATM   12  C   UNL     1      63.190   8.465   3.193  1.00  0.00     0.018 A 
HETATM   13  C   UNL     1      61.967   9.143   3.238  1.00  0.00    -0.034 A 
HETATM   14  C   UNL     1      60.803   8.427   3.550  1.00  0.00     0.009 A 
HETATM   15  C   UNL     1      60.869   7.061   3.830  1.00  0.00     0.001 A 
HETATM   16  C   UNL     1      62.099   6.403   3.827  1.00  0.00     0.009 A 
BRANCH  13  17
HETATM   17  C   UNL     1      61.917  10.636   3.047  1.00  0.00     0.202 C 
BRANCH  17  18
HETATM   18  O   UNL     1      61.856  11.313   4.293  1.00  0.00    -0.396 OA
HETATM   19  H   UNL     1      62.528  12.014   4.313  1.00  0.00     0.209 HD
ENDBRANCH  17  18
ENDBRANCH  13  17
ENDBRANCH   1  11
TORSDOF 4
ENDMDL
MODEL 6
REMARK VINA RESULT:      -4.6      3.766      6.274
REMARK  4 active torsions:
REMARK  status: ('A' for Active; 'I' for Inactive)
REMARK    1  A    between atoms: N_1  and  C_3 
REMARK    2  A    between atoms: C_3  and  C_4 
REMARK    3  A    between atoms: C_10  and  C_15 
REMARK    4  A    between atoms: O_12  and  C_15 
ROOT
HETATM    1  C   UNL     1      61.507   8.417   1.955  1.00  0.00     0.273 C 
ENDROOT
BRANCH   1   2
HETATM    2  N   UNL     1      60.067   8.257   2.235  1.00  0.00    -0.064 N 
HETATM    3  C   UNL     1      59.346   7.679   1.081  1.00  0.00     0.263 C 
HETATM    4  C   UNL     1      57.852   7.416   1.382  1.00  0.00     0.262 C 
HETATM    5  N   UNL     1      57.598   6.581   2.573  1.00  0.00    -0.072 N 
HETATM    6  C   UNL     1      58.355   7.134   3.711  1.00  0.00     0.262 C 
HETATM    7  C   UNL     1      57.931   5.180   2.325  1.00  0.00     0.269 C 
HETATM    8  H   UNL     1      56.603   6.600   2.794  1.00  0.00     0.279 HD
HETATM    9  C   UNL     1      59.853   7.422   3.432  1.00  0.00     0.263 C 
HETATM   10  H   UNL     1      59.691   9.189   2.409  1.00  0.00     0.280 HD
ENDBRANCH   1   2
BRANCH   1  11
HETATM   11  C   UNL     1      62.242   9.140   3.067  1.00  0.00    -0.032 A 
HETATM   12  C   UNL     1      63.325   8.519   3.712  1.00  0.00     0.018 A 
HETATM   13  C   UNL     1      63.915   9.093   4.845  1.00  0.00    -0.034 A 
HETATM   14  C   UNL     1      63.457  10.339   5.293  1.00  0.00     0.009 A 
HETATM   15  C   UNL     1      62.414  10.989   4.629  1.00  0.00     0.001 A 
HETATM   16  C   UNL     1      61.802  10.388   3.529  1.00  0.00     0.009 A 
BRANCH  13  17
HETATM   17  C   UNL     1      64.959   8.337   5.623  1.00  0.00     0.202 C 
BRANCH  17  18
HETATM   18  O   UNL     1      66.247   8.496   5.047  1.00  0.00    -0.396 OA
HETATM   19  H   UNL     1      66.907   8.060   5.609  1.00  0.00     0.209 HD
ENDBRANCH  17  18
ENDBRANCH  13  17
ENDBRANCH   1  11
TORSDOF 4
ENDMDL
MODEL 7
REMARK VINA RESULT:      -4.5      4.356      5.635
REMARK  4 active torsions:
REMARK  status: ('A' for Active; 'I' for Inactive)
REMARK    1  A    between atoms: N_1  and  C_3 
REMARK    2  A    between atoms: C_3  and  C_4 
REMARK    3  A    between atoms: C_10  and  C_15 
REMARK    4  A    between atoms: O_12  and  C_15 
ROOT
HETATM    1  C   UNL     1      60.932   6.388   3.320  1.00  0.00     0.273 C 
ENDROOT
BRANCH   1   2
HETATM    2  N   UNL     1      60.129   6.375   4.558  1.00  0.00    -0.064 N 
HETATM    3  C   UNL     1      58.696   6.617   4.283  1.00  0.00     0.263 C 
HETATM    4  C   UNL     1      57.820   6.518   5.553  1.00  0.00     0.262 C 
HETATM    5  N   UNL     1      57.957   5.253   6.301  1.00  0.00    -0.072 N 
HETATM    6  C   UNL     1      59.389   4.992   6.535  1.00  0.00     0.262 C 
HETATM    7  C   UNL     1      57.306   4.145   5.605  1.00  0.00     0.269 C 
HETATM    8  H   UNL     1      57.484   5.338   7.201  1.00  0.00     0.279 HD
HETATM    9  C   UNL     1      60.294   5.100   5.280  1.00  0.00     0.263 C 
HETATM   10  H   UNL     1      60.471   7.136   5.144  1.00  0.00     0.280 HD
ENDBRANCH   1   2
BRANCH   1  11
HETATM   11  C   UNL     1      61.395   7.781   2.939  1.00  0.00    -0.032 A 
HETATM   12  C   UNL     1      61.825   8.674   3.936  1.00  0.00     0.018 A 
HETATM   13  C   UNL     1      62.103  10.012   3.633  1.00  0.00    -0.034 A 
HETATM   14  C   UNL     1      62.014  10.442   2.302  1.00  0.00     0.009 A 
HETATM   15  C   UNL     1      61.637   9.550   1.297  1.00  0.00     0.001 A 
HETATM   16  C   UNL     1      61.318   8.230   1.614  1.00  0.00     0.009 A 
BRANCH  13  17
HETATM   17  C   UNL     1      62.398  10.995   4.735  1.00  0.00     0.202 C 
BRANCH  17  18
HETATM   18  O   UNL     1      62.070  12.320   4.347  1.00  0.00    -0.396 OA
HETATM   19  H   UNL     1      61.274  12.608   4.822  1.00  0.00     0.209 HD
ENDBRANCH  17  18
ENDBRANCH  13  17
ENDBRANCH   1  11
TORSDOF 4
ENDMDL
MODEL 8
REMARK VINA RESULT:      -4.5      2.884      3.849
REMARK  4 active torsions:
REMARK  status: ('A' for Active; 'I' for Inactive)
REMARK    1  A    between atoms: N_1  and  C_3 
REMARK    2  A    between atoms: C_3  and  C_4 
REMARK    3  A    between atoms: C_10  and  C_15 
REMARK    4  A    between atoms: O_12  and  C_15 
ROOT
HETATM    1  C   UNL     1      62.648   8.167   5.081  1.00  0.00     0.273 C 
ENDROOT
BRANCH   1   2
HETATM    2  N   UNL     1      63.974   7.525   4.992  1.00  0.00    -0.064 N 
HETATM    3  C   UNL     1      65.060   8.455   5.371  1.00  0.00     0.263 C 
HETATM    4  C   UNL     1      66.450   7.779   5.373  1.00  0.00     0.262 C 
HETATM    5  N   UNL     1      66.546   6.565   6.208  1.00  0.00    -0.072 N 
HETATM    6  C   UNL     1      65.436   5.659   5.859  1.00  0.00     0.262 C 
HETATM    7  C   UNL     1      66.557   6.893   7.632  1.00  0.00     0.269 C 
HETATM    8  H   UNL     1      67.431   6.094   6.020  1.00  0.00     0.279 HD
HETATM    9  C   UNL     1      64.031   6.315   5.834  1.00  0.00     0.263 C 
HETATM   10  H   UNL     1      64.112   7.258   4.017  1.00  0.00     0.280 HD
ENDBRANCH   1   2
BRANCH   1  11
HETATM   11  C   UNL     1      62.010   8.380   3.723  1.00  0.00    -0.032 A 
HETATM   12  C   UNL     1      60.735   7.853   3.456  1.00  0.00     0.018 A 
HETATM   13  C   UNL     1      60.193   7.894   2.166  1.00  0.00    -0.034 A 
HETATM   14  C   UNL     1      60.911   8.534   1.147  1.00  0.00     0.009 A 
HETATM   15  C   UNL     1      62.157   9.106   1.412  1.00  0.00     0.001 A 
HETATM   16  C   UNL     1      62.709   9.020   2.690  1.00  0.00     0.009 A 
BRANCH  13  17
HETATM   17  C   UNL     1      58.904   7.179   1.860  1.00  0.00     0.202 C 
BRANCH  17  18
HETATM   18  O   UNL     1      57.962   8.049   1.252  1.00  0.00    -0.396 OA
HETATM   19  H   UNL     1      58.312   8.954   1.253  1.00  0.00     0.209 HD
ENDBRANCH  17  18
ENDBRANCH  13  17
ENDBRANCH   1  11
TORSDOF 4
ENDMDL
MODEL 9
REMARK VINA RESULT:      -4.4      2.374      2.904
REMARK  4 active torsions:
REMARK  status: ('A' for Active; 'I' for Inactive)
REMARK    1  A    between atoms: N_1  and  C_3 
REMARK    2  A    between atoms: C_3  and  C_4 
REMARK    3  A    between atoms: C_10  and  C_15 
REMARK    4  A    between atoms: O_12  and  C_15 
ROOT
HETATM    1  C   UNL     1      64.113   6.266   5.009  1.00  0.00     0.273 C 
ENDROOT
BRANCH   1   2
HETATM    2  N   UNL     1      65.308   6.802   5.689  1.00  0.00    -0.064 N 
HETATM    3  C   UNL     1      65.314   6.469   7.130  1.00  0.00     0.263 C 
HETATM    4  C   UNL     1      66.600   6.939   7.846  1.00  0.00     0.262 C 
HETATM    5  N   UNL     1      67.857   6.459   7.239  1.00  0.00    -0.072 N 
HETATM    6  C   UNL     1      67.829   6.752   5.794  1.00  0.00     0.262 C 
HETATM    7  C   UNL     1      68.072   5.038   7.504  1.00  0.00     0.269 C 
HETATM    8  H   UNL     1      68.646   6.947   7.662  1.00  0.00     0.279 HD
HETATM    9  C   UNL     1      66.543   6.304   5.053  1.00  0.00     0.263 C 
HETATM   10  H   UNL     1      65.274   7.817   5.599  1.00  0.00     0.280 HD
ENDBRANCH   1   2
BRANCH   1  11
HETATM   11  C   UNL     1      63.143   7.355   4.590  1.00  0.00    -0.032 A 
HETATM   12  C   UNL     1      61.865   7.011   4.117  1.00  0.00     0.018 A 
HETATM   13  C   UNL     1      61.013   7.980   3.573  1.00  0.00    -0.034 A 
HETATM   14  C   UNL     1      61.423   9.320   3.569  1.00  0.00     0.009 A 
HETATM   15  C   UNL     1      62.670   9.679   4.082  1.00  0.00     0.001 A 
HETATM   16  C   UNL     1      63.531   8.701   4.580  1.00  0.00     0.009 A 
BRANCH  13  17
HETATM   17  C   UNL     1      59.720   7.573   2.919  1.00  0.00     0.202 C 
BRANCH  17  18
HETATM   18  O   UNL     1      59.548   8.222   1.668  1.00  0.00    -0.396 OA
HETATM   19  H   UNL     1      59.713   9.173   1.771  1.00  0.00     0.209 HD
ENDBRANCH  17  18
ENDBRANCH  13  17
ENDBRANCH   1  11
TORSDOF 4
ENDMDL
