MODEL 1
REMARK VINA RESULT:      -5.4      0.000      0.000
REMARK  3 active torsions:
REMARK  status: ('A' for Active; 'I' for Inactive)
REMARK    1  A    between atoms: C_1  and  C_3 
REMARK    2  A    between atoms: N_2  and  C_5 
REMARK    3  A    between atoms: C_5  and  C_9 
ROOT
HETATM    1  C   UNL     1      62.441  10.054   3.710  1.00  0.00     0.040 A 
HETATM    2  C   UNL     1      62.389   9.028   2.761  1.00  0.00     0.019 A 
HETATM    3  C   UNL     1      62.887   9.781   5.008  1.00  0.00     0.019 A 
HETATM    4  C   UNL     1      63.365   7.482   4.363  1.00  0.00    -0.033 A 
HETATM    5  C   UNL     1      62.850   7.750   3.086  1.00  0.00     0.010 A 
HETATM    6  C   UNL     1      63.346   8.503   5.328  1.00  0.00     0.010 A 
ENDROOT
BRANCH   4   7
HETATM    7  C   UNL     1      63.970   6.131   4.697  1.00  0.00     0.273 C 
BRANCH   7   8
HETATM    8  N   UNL     1      65.180   6.154   5.540  1.00  0.00    -0.067 N 
HETATM    9  C   UNL     1      66.425   6.209   4.767  1.00  0.00     0.235 C 
HETATM   10  C   UNL     1      67.648   6.372   5.671  1.00  0.00     0.028 C 
HETATM   11  C   UNL     1      67.704   5.263   6.712  1.00  0.00     0.003 C 
HETATM   12  C   UNL     1      66.393   5.212   7.489  1.00  0.00     0.028 C 
HETATM   13  C   UNL     1      65.194   5.085   6.545  1.00  0.00     0.235 C 
HETATM   14  H   UNL     1      65.131   7.033   6.056  1.00  0.00     0.280 HD
ENDBRANCH   7   8
ENDBRANCH   4   7
BRANCH   1  15
HETATM   15  C   UNL     1      62.004  11.413   3.313  1.00  0.00     0.209 C 
HETATM   16  O   UNL     1      61.893  11.764   2.151  1.00  0.00    -0.644 OA
HETATM   17  O   UNL     1      61.798  12.239   4.361  1.00  0.00    -0.644 OA
ENDBRANCH   1  15
TORSDOF 3
ENDMDL
MODEL 2
REMARK VINA RESULT:      -5.1      1.587      2.236
REMARK  3 active torsions:
REMARK  status: ('A' for Active; 'I' for Inactive)
REMARK    1  A    between atoms: C_1  and  C_3 
REMARK    2  A    between atoms: N_2  and  C_5 
REMARK    3  A    between atoms: C_5  and  C_9 
ROOT
HETATM    1  C   UNL     1      62.949   8.722   3.859  1.00  0.00     0.040 A 
HETATM    2  C   UNL     1      63.419   7.534   3.291  1.00  0.00     0.019 A 
HETATM    3  C   UNL     1      63.643   9.309   4.923  1.00  0.00     0.019 A 
HETATM    4  C   UNL     1      65.359   7.589   4.756  1.00  0.00    -0.033 A 
HETATM    5  C   UNL     1      64.619   6.971   3.737  1.00  0.00     0.010 A 
HETATM    6  C   UNL     1      64.839   8.744   5.366  1.00  0.00     0.010 A 
ENDROOT
BRANCH   4   7
HETATM    7  C   UNL     1      66.715   7.053   5.176  1.00  0.00     0.273 C 
BRANCH   7   8
HETATM    8  N   UNL     1      66.735   6.231   6.400  1.00  0.00    -0.067 N 
HETATM    9  C   UNL     1      66.859   7.022   7.628  1.00  0.00     0.235 C 
HETATM   10  C   UNL     1      66.736   6.151   8.879  1.00  0.00     0.028 C 
HETATM   11  C   UNL     1      67.759   5.023   8.856  1.00  0.00     0.003 C 
HETATM   12  C   UNL     1      67.625   4.228   7.563  1.00  0.00     0.028 C 
HETATM   13  C   UNL     1      67.717   5.142   6.338  1.00  0.00     0.235 C 
HETATM   14  H   UNL     1      65.817   5.788   6.441  1.00  0.00     0.280 HD
ENDBRANCH   7   8
ENDBRANCH   4   7
BRANCH   1  15
HETATM   15  C   UNL     1      61.708   9.326   3.319  1.00  0.00     0.209 C 
HETATM   16  O   UNL     1      61.020   8.787   2.469  1.00  0.00    -0.644 OA
HETATM   17  O   UNL     1      61.448  10.554   3.816  1.00  0.00    -0.644 OA
ENDBRANCH   1  15
TORSDOF 3
ENDMDL
MODEL 3
REMARK VINA RESULT:      -5.1      1.160      1.921
REMARK  3 active torsions:
REMARK  status: ('A' for Active; 'I' for Inactive)
REMARK    1  A    between atoms: C_1  and  C_3 
REMARK    2  A    between atoms: N_2  and  C_5 
REMARK    3  A    between atoms: C_5  and  C_9 
ROOT
HETATM    1  C   UNL     1      62.394   9.513   3.040  1.00  0.00     0.040 A 
HETATM    2  C   UNL     1      62.687   8.158   2.849  1.00  0.00     0.019 A 
HETATM    3  C   UNL     1      62.466  10.068   4.322  1.00  0.00     0.019 A 
HETATM    4  C   UNL     1      63.263   7.941   5.201  1.00  0.00    -0.033 A 
HETATM    5  C   UNL     1      63.121   7.378   3.924  1.00  0.00     0.010 A 
HETATM    6  C   UNL     1      62.898   9.285   5.393  1.00  0.00     0.010 A 
ENDROOT
BRANCH   4   7
HETATM    7  C   UNL     1      63.836   7.137   6.354  1.00  0.00     0.273 C 
BRANCH   7   8
HETATM    8  N   UNL     1      65.200   6.612   6.161  1.00  0.00    -0.067 N 
HETATM    9  C   UNL     1      65.529   5.506   7.067  1.00  0.00     0.235 C 
HETATM   10  C   UNL     1      66.894   4.896   6.747  1.00  0.00     0.028 C 
HETATM   11  C   UNL     1      67.983   5.961   6.773  1.00  0.00     0.003 C 
HETATM   12  C   UNL     1      67.611   7.108   5.842  1.00  0.00     0.028 C 
HETATM   13  C   UNL     1      66.223   7.664   6.174  1.00  0.00     0.235 C 
HETATM   14  H   UNL     1      65.206   6.216   5.221  1.00  0.00     0.280 HD
ENDBRANCH   7   8
ENDBRANCH   4   7
BRANCH   1  15
HETATM   15  C   UNL     1      62.000  10.327   1.867  1.00  0.00     0.209 C 
HETATM   16  O   UNL     1      62.020  11.546   1.864  1.00  0.00    -0.644 OA
HETATM   17  O   UNL     1      61.562   9.589   0.824  1.00  0.00    -0.644 OA
ENDBRANCH   1  15
TORSDOF 3
ENDMDL
MODEL 4
REMARK VINA RESULT:      -4.9      3.812      6.478
REMARK  3 active torsions:
REMARK  status: ('A' for Active; 'I' for Inactive)
REMARK    1  A    between atoms: C_1  and  C_3 
REMARK    2  A    between atoms: N_2  and  C_5 
REMARK    3  A    between atoms: C_5  and  C_9 
ROOT
HETATM    1  C   UNL     1      66.287   6.334   6.233  1.00  0.00     0.040 A 
HETATM    2  C   UNL     1      66.540   7.537   5.566  1.00  0.00     0.019 A 
HETATM    3  C   UNL     1      64.982   6.011   6.617  1.00  0.00     0.019 A 
HETATM    4  C   UNL     1      64.160   8.033   5.540  1.00  0.00    -0.033 A 
HETATM    5  C   UNL     1      65.481   8.382   5.221  1.00  0.00     0.010 A 
HETATM    6  C   UNL     1      63.928   6.856   6.271  1.00  0.00     0.010 A 
ENDROOT
BRANCH   4   7
HETATM    7  C   UNL     1      62.992   8.884   5.077  1.00  0.00     0.273 C 
BRANCH   7   8
HETATM    8  N   UNL     1      62.841   9.037   3.618  1.00  0.00    -0.067 N 
HETATM    9  C   UNL     1      61.995  10.174   3.239  1.00  0.00     0.235 C 
HETATM   10  C   UNL     1      61.975  10.386   1.725  1.00  0.00     0.028 C 
HETATM   11  C   UNL     1      61.533   9.118   1.006  1.00  0.00     0.003 C 
HETATM   12  C   UNL     1      62.411   7.948   1.431  1.00  0.00     0.028 C 
HETATM   13  C   UNL     1      62.432   7.794   2.954  1.00  0.00     0.235 C 
HETATM   14  H   UNL     1      63.775   9.255   3.273  1.00  0.00     0.280 HD
ENDBRANCH   7   8
ENDBRANCH   4   7
BRANCH   1  15
HETATM   15  C   UNL     1      67.426   5.431   6.526  1.00  0.00     0.209 C 
HETATM   16  O   UNL     1      67.715   4.474   5.828  1.00  0.00    -0.644 OA
HETATM   17  O   UNL     1      68.073   5.739   7.670  1.00  0.00    -0.644 OA
ENDBRANCH   1  15
TORSDOF 3
ENDMDL
MODEL 5
REMARK VINA RESULT:      -4.9      3.862      5.926
REMARK  3 active torsions:
REMARK  status: ('A' for Active; 'I' for Inactive)
REMARK    1  A    between atoms: C_1  and  C_3 
REMARK    2  A    between atoms: N_2  and  C_5 
REMARK    3  A    between atoms: C_5  and  C_9 
ROOT
HETATM    1  C   UNL     1      62.396  10.092   3.610  1.00  0.00     0.040 A 
HETATM    2  C   UNL     1      62.780   8.753   3.743  1.00  0.00     0.019 A 
HETATM    3  C   UNL     1      61.954  10.571   2.373  1.00  0.00     0.019 A 
HETATM    4  C   UNL     1      62.147   8.333   1.434  1.00  0.00    -0.033 A 
HETATM    5  C   UNL     1      62.655   7.879   2.660  1.00  0.00     0.010 A 
HETATM    6  C   UNL     1      61.831   9.695   1.294  1.00  0.00     0.010 A 
ENDROOT
BRANCH   4   7
HETATM    7  C   UNL     1      61.903   7.374   0.283  1.00  0.00     0.273 C 
BRANCH   7   8
HETATM    8  N   UNL     1      60.660   6.583   0.352  1.00  0.00    -0.067 N 
HETATM    9  C   UNL     1      59.518   7.342   0.874  1.00  0.00     0.235 C 
HETATM   10  C   UNL     1      58.221   6.535   0.801  1.00  0.00     0.028 C 
HETATM   11  C   UNL     1      58.367   5.206   1.529  1.00  0.00     0.003 C 
HETATM   12  C   UNL     1      59.570   4.446   0.984  1.00  0.00     0.028 C 
HETATM   13  C   UNL     1      60.839   5.301   1.042  1.00  0.00     0.235 C 
HETATM   14  H   UNL     1      60.430   6.360  -0.616  1.00  0.00     0.280 HD
ENDBRANCH   7   8
ENDBRANCH   4   7
BRANCH   1  15
HETATM   15  C   UNL     1      62.480  10.976   4.797  1.00  0.00     0.209 C 
HETATM   16  O   UNL     1      62.991  10.633   5.849  1.00  0.00    -0.644 OA
HETATM   17  O   UNL     1      61.886  12.175   4.616  1.00  0.00    -0.644 OA
ENDBRANCH   1  15
TORSDOF 3
ENDMDL
MODEL 6
REMARK VINA RESULT:      -4.8      4.927      6.695
REMARK  3 active torsions:
REMARK  status: ('A' for Active; 'I' for Inactive)
REMARK    1  A    between atoms: C_1  and  C_3 
REMARK    2  A    between atoms: N_2  and  C_5 
REMARK    3  A    between atoms: C_5  and  C_9 
ROOT
HETATM    1  C   UNL     1      59.163   6.079   7.404  1.00  0.00     0.040 A 
HETATM    2  C   UNL     1      58.212   6.194   6.385  1.00  0.00     0.019 A 
HETATM    3  C   UNL     1      60.503   5.839   7.083  1.00  0.00     0.019 A 
HETATM    4  C   UNL     1      59.963   5.971   4.712  1.00  0.00    -0.033 A 
HETATM    5  C   UNL     1      58.611   6.141   5.046  1.00  0.00     0.010 A 
HETATM    6  C   UNL     1      60.897   5.787   5.745  1.00  0.00     0.010 A 
ENDROOT
BRANCH   4   7
HETATM    7  C   UNL     1      60.426   6.022   3.268  1.00  0.00     0.273 C 
BRANCH   7   8
HETATM    8  N   UNL     1      61.231   7.198   2.887  1.00  0.00    -0.067 N 
HETATM    9  C   UNL     1      60.817   8.429   3.568  1.00  0.00     0.235 C 
HETATM   10  C   UNL     1      61.758   9.594   3.257  1.00  0.00     0.028 C 
HETATM   11  C   UNL     1      61.867   9.815   1.755  1.00  0.00     0.003 C 
HETATM   12  C   UNL     1      62.278   8.519   1.067  1.00  0.00     0.028 C 
HETATM   13  C   UNL     1      61.332   7.372   1.434  1.00  0.00     0.235 C 
HETATM   14  H   UNL     1      62.174   6.996   3.220  1.00  0.00     0.280 HD
ENDBRANCH   7   8
ENDBRANCH   4   7
BRANCH   1  15
HETATM   15  C   UNL     1      58.716   6.203   8.811  1.00  0.00     0.209 C 
HETATM   16  O   UNL     1      58.318   7.250   9.294  1.00  0.00    -0.644 OA
HETATM   17  O   UNL     1      58.846   5.061   9.519  1.00  0.00    -0.644 OA
ENDBRANCH   1  15
TORSDOF 3
ENDMDL
MODEL 7
REMARK VINA RESULT:      -4.8      3.781      6.460
REMARK  3 active torsions:
REMARK  status: ('A' for Active; 'I' for Inactive)
REMARK    1  A    between atoms: C_1  and  C_3 
REMARK    2  A    between atoms: N_2  and  C_5 
REMARK    3  A    between atoms: C_5  and  C_9 
ROOT
HETATM    1  C   UNL     1      64.480   8.189   4.767  1.00  0.00     0.040 A 
HETATM    2  C   UNL     1      63.627   9.288   4.910  1.00  0.00     0.019 A 
HETATM    3  C   UNL     1      64.266   7.269   3.735  1.00  0.00     0.019 A 
HETATM    4  C   UNL     1      62.426   8.629   2.902  1.00  0.00    -0.033 A 
HETATM    5  C   UNL     1      62.606   9.507   3.981  1.00  0.00     0.010 A 
HETATM    6  C   UNL     1      63.245   7.491   2.810  1.00  0.00     0.010 A 
ENDROOT
BRANCH   4   7
HETATM    7  C   UNL     1      61.394   8.912   1.825  1.00  0.00     0.273 C 
BRANCH   7   8
HETATM    8  N   UNL     1      60.021   8.456   2.109  1.00  0.00    -0.067 N 
HETATM    9  C   UNL     1      59.894   7.763   3.395  1.00  0.00     0.235 C 
HETATM   10  C   UNL     1      58.437   7.429   3.719  1.00  0.00     0.028 C 
HETATM   11  C   UNL     1      57.806   6.614   2.598  1.00  0.00     0.003 C 
HETATM   12  C   UNL     1      57.968   7.343   1.270  1.00  0.00     0.028 C 
HETATM   13  C   UNL     1      59.435   7.690   1.003  1.00  0.00     0.235 C 
HETATM   14  H   UNL     1      59.467   9.309   2.193  1.00  0.00     0.280 HD
ENDBRANCH   7   8
ENDBRANCH   4   7
BRANCH   1  15
HETATM   15  C   UNL     1      65.592   8.022   5.732  1.00  0.00     0.209 C 
HETATM   16  O   UNL     1      65.428   7.645   6.880  1.00  0.00    -0.644 OA
HETATM   17  O   UNL     1      66.794   8.382   5.234  1.00  0.00    -0.644 OA
ENDBRANCH   1  15
TORSDOF 3
ENDMDL
MODEL 8
REMARK VINA RESULT:      -4.8      2.983      3.983
REMARK  3 active torsions:
REMARK  status: ('A' for Active; 'I' for Inactive)
REMARK    1  A    between atoms: C_1  and  C_3 
REMARK    2  A    between atoms: N_2  and  C_5 
REMARK    3  A    between atoms: C_5  and  C_9 
ROOT
HETATM    1  C   UNL     1      62.075   9.898   3.851  1.00  0.00     0.040 A 
HETATM    2  C   UNL     1      61.277   8.873   3.334  1.00  0.00     0.019 A 
HETATM    3  C   UNL     1      62.937   9.638   4.922  1.00  0.00     0.019 A 
HETATM    4  C   UNL     1      62.303   7.288   4.865  1.00  0.00    -0.033 A 
HETATM    5  C   UNL     1      61.392   7.574   3.838  1.00  0.00     0.010 A 
HETATM    6  C   UNL     1      63.048   8.341   5.423  1.00  0.00     0.010 A 
ENDROOT
BRANCH   4   7
HETATM    7  C   UNL     1      62.519   5.865   5.348  1.00  0.00     0.273 C 
BRANCH   7   8
HETATM    8  N   UNL     1      61.369   5.226   6.013  1.00  0.00    -0.067 N 
HETATM    9  C   UNL     1      60.700   6.100   6.982  1.00  0.00     0.235 C 
HETATM   10  C   UNL     1      59.433   5.456   7.547  1.00  0.00     0.028 C 
HETATM   11  C   UNL     1      59.743   4.100   8.164  1.00  0.00     0.003 C 
HETATM   12  C   UNL     1      60.455   3.217   7.147  1.00  0.00     0.028 C 
HETATM   13  C   UNL     1      61.696   3.913   6.580  1.00  0.00     0.235 C 
HETATM   14  H   UNL     1      60.689   5.058   5.271  1.00  0.00     0.280 HD
ENDBRANCH   7   8
ENDBRANCH   4   7
BRANCH   1  15
HETATM   15  C   UNL     1      61.975  11.249   3.249  1.00  0.00     0.209 C 
HETATM   16  O   UNL     1      62.008  11.447   2.047  1.00  0.00    -0.644 OA
HETATM   17  O   UNL     1      61.902  12.239   4.164  1.00  0.00    -0.644 OA
ENDBRANCH   1  15
TORSDOF 3
ENDMDL
MODEL 9
REMARK VINA RESULT:      -4.5      1.662      2.394
REMARK  3 active torsions:
REMARK  status: ('A' for Active; 'I' for Inactive)
REMARK    1  A    between atoms: C_1  and  C_3 
REMARK    2  A    between atoms: N_2  and  C_5 
REMARK    3  A    between atoms: C_5  and  C_9 
ROOT
HETATM    1  C   UNL     1      62.387   9.972   3.689  1.00  0.00     0.040 A 
HETATM    2  C   UNL     1      62.344   8.966   2.717  1.00  0.00     0.019 A 
HETATM    3  C   UNL     1      62.782   9.664   4.995  1.00  0.00     0.019 A 
HETATM    4  C   UNL     1      63.227   7.366   4.321  1.00  0.00    -0.033 A 
HETATM    5  C   UNL     1      62.763   7.670   3.033  1.00  0.00     0.010 A 
HETATM    6  C   UNL     1      63.199   8.369   5.306  1.00  0.00     0.010 A 
ENDROOT
BRANCH   4   7
HETATM    7  C   UNL     1      63.788   5.995   4.650  1.00  0.00     0.273 C 
BRANCH   7   8
HETATM    8  N   UNL     1      64.718   5.422   3.659  1.00  0.00    -0.067 N 
HETATM    9  C   UNL     1      64.314   4.094   3.185  1.00  0.00     0.235 C 
HETATM   10  C   UNL     1      65.221   3.592   2.061  1.00  0.00     0.028 C 
HETATM   11  C   UNL     1      66.679   3.591   2.501  1.00  0.00     0.003 C 
HETATM   12  C   UNL     1      67.070   4.973   3.008  1.00  0.00     0.028 C 
HETATM   13  C   UNL     1      66.115   5.452   4.106  1.00  0.00     0.235 C 
HETATM   14  H   UNL     1      64.661   6.039   2.849  1.00  0.00     0.280 HD
ENDBRANCH   7   8
ENDBRANCH   4   7
BRANCH   1  15
HETATM   15  C   UNL     1      61.997  11.349   3.303  1.00  0.00     0.209 C 
HETATM   16  O   UNL     1      61.914  11.718   2.144  1.00  0.00    -0.644 OA
HETATM   17  O   UNL     1      61.801  12.166   4.359  1.00  0.00    -0.644 OA
ENDBRANCH   1  15
TORSDOF 3
ENDMDL
