MODEL 1
REMARK VINA RESULT:      -5.6      0.000      0.000
REMARK  1 active torsions:
REMARK  status: ('A' for Active; 'I' for Inactive)
REMARK    1  A    between atoms: C_5  and  C_7 
ROOT
HETATM    1  C   UNL     1      62.863   8.989   3.446  1.00  0.00     0.009 A 
HETATM    2  C   UNL     1      63.385   9.082   4.772  1.00  0.00     0.032 A 
HETATM    3  N   UNL     1      63.760   7.024   4.045  1.00  0.00    -0.360 N 
HETATM    4  C   UNL     1      63.121   7.679   3.012  1.00  0.00     0.045 A 
HETATM    5  C   UNL     1      62.197   9.876   2.564  1.00  0.00     0.053 A 
HETATM    6  C   UNL     1      63.928   7.864   5.110  1.00  0.00     0.091 A 
HETATM    7  C   UNL     1      62.749   7.225   1.737  1.00  0.00     0.030 A 
HETATM    8  C   UNL     1      64.184   5.640   4.010  1.00  0.00     0.155 C 
HETATM    9  C   UNL     1      61.823   9.418   1.286  1.00  0.00     0.019 A 
HETATM   10  C   UNL     1      62.098   8.115   0.882  1.00  0.00     0.003 A 
ENDROOT
BRANCH   5  11
HETATM   11  C   UNL     1      61.899  11.266   2.994  1.00  0.00     0.210 C 
HETATM   12  O   UNL     1      61.697  11.665   4.125  1.00  0.00    -0.644 OA
HETATM   13  O   UNL     1      61.864  12.126   1.955  1.00  0.00    -0.644 OA
ENDBRANCH   5  11
TORSDOF 1
ENDMDL
MODEL 2
REMARK VINA RESULT:      -5.4      2.663      4.094
REMARK  1 active torsions:
REMARK  status: ('A' for Active; 'I' for Inactive)
REMARK    1  A    between atoms: C_5  and  C_7 
ROOT
HETATM    1  C   UNL     1      63.342   8.448   3.741  1.00  0.00     0.009 A 
HETATM    2  C   UNL     1      63.682   7.209   3.119  1.00  0.00     0.032 A 
HETATM    3  N   UNL     1      62.195   8.224   1.828  1.00  0.00    -0.360 N 
HETATM    4  C   UNL     1      62.406   9.069   2.899  1.00  0.00     0.045 A 
HETATM    5  C   UNL     1      63.728   9.113   4.932  1.00  0.00     0.053 A 
HETATM    6  C   UNL     1      62.965   7.101   1.950  1.00  0.00     0.091 A 
HETATM    7  C   UNL     1      61.849  10.324   3.193  1.00  0.00     0.030 A 
HETATM    8  C   UNL     1      61.282   8.486   0.736  1.00  0.00     0.155 C 
HETATM    9  C   UNL     1      63.166  10.370   5.227  1.00  0.00     0.019 A 
HETATM   10  C   UNL     1      62.244  10.963   4.369  1.00  0.00     0.003 A 
ENDROOT
BRANCH   5  11
HETATM   11  C   UNL     1      64.708   8.481   5.852  1.00  0.00     0.210 C 
HETATM   12  O   UNL     1      65.879   8.776   6.002  1.00  0.00    -0.644 OA
HETATM   13  O   UNL     1      64.164   7.475   6.567  1.00  0.00    -0.644 OA
ENDBRANCH   5  11
TORSDOF 1
ENDMDL
MODEL 3
REMARK VINA RESULT:      -5.3      1.422      3.167
REMARK  1 active torsions:
REMARK  status: ('A' for Active; 'I' for Inactive)
REMARK    1  A    between atoms: C_5  and  C_7 
ROOT
HETATM    1  C   UNL     1      62.563   9.278   3.062  1.00  0.00     0.009 A 
HETATM    2  C   UNL     1      61.871   9.930   1.997  1.00  0.00     0.032 A 
HETATM    3  N   UNL     1      62.462   7.919   1.282  1.00  0.00    -0.360 N 
HETATM    4  C   UNL     1      62.918   8.007   2.582  1.00  0.00     0.045 A 
HETATM    5  C   UNL     1      62.929   9.628   4.386  1.00  0.00     0.053 A 
HETATM    6  C   UNL     1      61.824   9.073   0.922  1.00  0.00     0.091 A 
HETATM    7  C   UNL     1      63.613   7.075   3.369  1.00  0.00     0.030 A 
HETATM    8  C   UNL     1      62.642   6.771   0.419  1.00  0.00     0.155 C 
HETATM    9  C   UNL     1      63.628   8.693   5.173  1.00  0.00     0.019 A 
HETATM   10  C   UNL     1      63.961   7.439   4.670  1.00  0.00     0.003 A 
ENDROOT
BRANCH   5  11
HETATM   11  C   UNL     1      62.578  10.967   4.923  1.00  0.00     0.210 C 
HETATM   12  O   UNL     1      61.897  11.824   4.392  1.00  0.00    -0.644 OA
HETATM   13  O   UNL     1      63.112  11.185   6.143  1.00  0.00    -0.644 OA
ENDBRANCH   5  11
TORSDOF 1
ENDMDL
MODEL 4
REMARK VINA RESULT:      -5.2      2.804      4.174
REMARK  1 active torsions:
REMARK  status: ('A' for Active; 'I' for Inactive)
REMARK    1  A    between atoms: C_5  and  C_7 
ROOT
HETATM    1  C   UNL     1      62.938   9.145   4.400  1.00  0.00     0.009 A 
HETATM    2  C   UNL     1      62.805  10.301   5.226  1.00  0.00     0.032 A 
HETATM    3  N   UNL     1      62.123  10.848   3.192  1.00  0.00    -0.360 N 
HETATM    4  C   UNL     1      62.493   9.520   3.122  1.00  0.00     0.045 A 
HETATM    5  C   UNL     1      63.389   7.816   4.597  1.00  0.00     0.053 A 
HETATM    6  C   UNL     1      62.304  11.327   4.459  1.00  0.00     0.091 A 
HETATM    7  C   UNL     1      62.473   8.624   2.042  1.00  0.00     0.030 A 
HETATM    8  C   UNL     1      61.624  11.626   2.078  1.00  0.00     0.155 C 
HETATM    9  C   UNL     1      63.371   6.919   3.511  1.00  0.00     0.019 A 
HETATM   10  C   UNL     1      62.918   7.320   2.257  1.00  0.00     0.003 A 
ENDROOT
BRANCH   5  11
HETATM   11  C   UNL     1      63.876   7.386   5.933  1.00  0.00     0.210 C 
HETATM   12  O   UNL     1      64.999   7.024   6.230  1.00  0.00    -0.644 OA
HETATM   13  O   UNL     1      62.906   7.430   6.869  1.00  0.00    -0.644 OA
ENDBRANCH   5  11
TORSDOF 1
ENDMDL
MODEL 5
REMARK VINA RESULT:      -5.0      1.574      1.926
REMARK  1 active torsions:
REMARK  status: ('A' for Active; 'I' for Inactive)
REMARK    1  A    between atoms: C_5  and  C_7 
ROOT
HETATM    1  C   UNL     1      62.165   8.528   3.838  1.00  0.00     0.009 A 
HETATM    2  C   UNL     1      62.285   7.691   4.989  1.00  0.00     0.032 A 
HETATM    3  N   UNL     1      61.882   6.384   3.247  1.00  0.00    -0.360 N 
HETATM    4  C   UNL     1      61.917   7.672   2.753  1.00  0.00     0.045 A 
HETATM    5  C   UNL     1      62.240   9.923   3.598  1.00  0.00     0.053 A 
HETATM    6  C   UNL     1      62.107   6.385   4.595  1.00  0.00     0.091 A 
HETATM    7  C   UNL     1      61.750   8.150   1.444  1.00  0.00     0.030 A 
HETATM    8  C   UNL     1      61.632   5.200   2.453  1.00  0.00     0.155 C 
HETATM    9  C   UNL     1      62.070  10.401   2.284  1.00  0.00     0.019 A 
HETATM   10  C   UNL     1      61.831   9.526   1.227  1.00  0.00     0.003 A 
ENDROOT
BRANCH   5  11
HETATM   11  C   UNL     1      62.491  10.858   4.723  1.00  0.00     0.210 C 
HETATM   12  O   UNL     1      63.161  10.656   5.719  1.00  0.00    -0.644 OA
HETATM   13  O   UNL     1      61.873  12.045   4.550  1.00  0.00    -0.644 OA
ENDBRANCH   5  11
TORSDOF 1
ENDMDL
MODEL 6
REMARK VINA RESULT:      -4.9      1.780      2.940
REMARK  1 active torsions:
REMARK  status: ('A' for Active; 'I' for Inactive)
REMARK    1  A    between atoms: C_5  and  C_7 
ROOT
HETATM    1  C   UNL     1      63.132   8.424   3.333  1.00  0.00     0.009 A 
HETATM    2  C   UNL     1      63.683   7.161   2.957  1.00  0.00     0.032 A 
HETATM    3  N   UNL     1      64.581   7.735   4.898  1.00  0.00    -0.360 N 
HETATM    4  C   UNL     1      63.714   8.757   4.566  1.00  0.00     0.045 A 
HETATM    5  C   UNL     1      62.200   9.324   2.758  1.00  0.00     0.053 A 
HETATM    6  C   UNL     1      64.565   6.765   3.935  1.00  0.00     0.091 A 
HETATM    7  C   UNL     1      63.399   9.942   5.249  1.00  0.00     0.030 A 
HETATM    8  C   UNL     1      65.398   7.700   6.092  1.00  0.00     0.155 C 
HETATM    9  C   UNL     1      61.887  10.514   3.444  1.00  0.00     0.019 A 
HETATM   10  C   UNL     1      62.477  10.813   4.668  1.00  0.00     0.003 A 
ENDROOT
BRANCH   5  11
HETATM   11  C   UNL     1      61.572   9.010   1.450  1.00  0.00     0.210 C 
HETATM   12  O   UNL     1      60.439   8.618   1.247  1.00  0.00    -0.644 OA
HETATM   13  O   UNL     1      62.417   9.205   0.417  1.00  0.00    -0.644 OA
ENDBRANCH   5  11
TORSDOF 1
ENDMDL
MODEL 7
REMARK VINA RESULT:      -4.8      1.370      1.389
REMARK  1 active torsions:
REMARK  status: ('A' for Active; 'I' for Inactive)
REMARK    1  A    between atoms: C_5  and  C_7 
ROOT
HETATM    1  C   UNL     1      63.099   8.783   4.317  1.00  0.00     0.009 A 
HETATM    2  C   UNL     1      64.261   9.162   5.054  1.00  0.00     0.032 A 
HETATM    3  N   UNL     1      64.171   6.949   5.031  1.00  0.00    -0.360 N 
HETATM    4  C   UNL     1      63.073   7.379   4.314  1.00  0.00     0.045 A 
HETATM    5  C   UNL     1      62.062   9.481   3.648  1.00  0.00     0.053 A 
HETATM    6  C   UNL     1      64.897   8.018   5.477  1.00  0.00     0.091 A 
HETATM    7  C   UNL     1      62.062   6.649   3.669  1.00  0.00     0.030 A 
HETATM    8  C   UNL     1      64.502   5.563   5.283  1.00  0.00     0.155 C 
HETATM    9  C   UNL     1      61.048   8.747   3.003  1.00  0.00     0.019 A 
HETATM   10  C   UNL     1      61.053   7.355   3.014  1.00  0.00     0.003 A 
ENDROOT
BRANCH   5  11
HETATM   11  C   UNL     1      62.052  10.966   3.639  1.00  0.00     0.210 C 
HETATM   12  O   UNL     1      62.042  11.713   4.599  1.00  0.00    -0.644 OA
HETATM   13  O   UNL     1      62.053  11.470   2.387  1.00  0.00    -0.644 OA
ENDBRANCH   5  11
TORSDOF 1
ENDMDL
MODEL 8
REMARK VINA RESULT:      -4.6      2.637      4.138
REMARK  1 active torsions:
REMARK  status: ('A' for Active; 'I' for Inactive)
REMARK    1  A    between atoms: C_5  and  C_7 
ROOT
HETATM    1  C   UNL     1      62.510   8.246   4.090  1.00  0.00     0.009 A 
HETATM    2  C   UNL     1      62.516   9.046   2.908  1.00  0.00     0.032 A 
HETATM    3  N   UNL     1      60.681   7.807   2.870  1.00  0.00    -0.360 N 
HETATM    4  C   UNL     1      61.335   7.479   4.041  1.00  0.00     0.045 A 
HETATM    5  C   UNL     1      63.376   8.088   5.201  1.00  0.00     0.053 A 
HETATM    6  C   UNL     1      61.385   8.756   2.182  1.00  0.00     0.091 A 
HETATM    7  C   UNL     1      60.989   6.571   5.054  1.00  0.00     0.030 A 
HETATM    8  C   UNL     1      59.433   7.223   2.429  1.00  0.00     0.155 C 
HETATM    9  C   UNL     1      63.028   7.175   6.215  1.00  0.00     0.019 A 
HETATM   10  C   UNL     1      61.853   6.432   6.140  1.00  0.00     0.003 A 
ENDROOT
BRANCH   5  11
HETATM   11  C   UNL     1      64.633   8.876   5.282  1.00  0.00     0.210 C 
HETATM   12  O   UNL     1      65.750   8.524   4.953  1.00  0.00    -0.644 OA
HETATM   13  O   UNL     1      64.431  10.110   5.787  1.00  0.00    -0.644 OA
ENDBRANCH   5  11
TORSDOF 1
ENDMDL
MODEL 9
REMARK VINA RESULT:      -4.6      2.771      3.737
REMARK  1 active torsions:
REMARK  status: ('A' for Active; 'I' for Inactive)
REMARK    1  A    between atoms: C_5  and  C_7 
ROOT
HETATM    1  C   UNL     1      62.767   8.370   3.233  1.00  0.00     0.009 A 
HETATM    2  C   UNL     1      63.305   7.698   4.373  1.00  0.00     0.032 A 
HETATM    3  N   UNL     1      62.955   9.810   4.941  1.00  0.00    -0.360 N 
HETATM    4  C   UNL     1      62.550   9.700   3.626  1.00  0.00     0.045 A 
HETATM    5  C   UNL     1      62.439   7.992   1.907  1.00  0.00     0.053 A 
HETATM    6  C   UNL     1      63.408   8.605   5.401  1.00  0.00     0.091 A 
HETATM    7  C   UNL     1      62.015  10.661   2.753  1.00  0.00     0.030 A 
HETATM    8  C   UNL     1      62.915  11.030   5.718  1.00  0.00     0.155 C 
HETATM    9  C   UNL     1      61.904   8.958   1.033  1.00  0.00     0.019 A 
HETATM   10  C   UNL     1      61.696  10.269   1.453  1.00  0.00     0.003 A 
ENDROOT
BRANCH   5  11
HETATM   11  C   UNL     1      62.664   6.595   1.455  1.00  0.00     0.210 C 
HETATM   12  O   UNL     1      63.730   6.040   1.267  1.00  0.00    -0.644 OA
HETATM   13  O   UNL     1      61.507   5.932   1.249  1.00  0.00    -0.644 OA
ENDBRANCH   5  11
TORSDOF 1
ENDMDL
