MODEL 1
REMARK VINA RESULT:      -5.7      0.000      0.000
REMARK  4 active torsions:
REMARK  status: ('A' for Active; 'I' for Inactive)
REMARK    1  A    between atoms: N_1  and  C_3 
REMARK    2  A    between atoms: C_3  and  C_8 
REMARK    3  A    between atoms: C_9  and  C_16 
REMARK    4  A    between atoms: O_15  and  C_16 
ROOT
HETATM    1  C   UNL     1      63.760   7.169   5.885  1.00  0.00     0.273 C 
ENDROOT
BRANCH   1   2
HETATM    2  N   UNL     1      65.126   7.442   6.371  1.00  0.00    -0.064 N 
HETATM    3  C   UNL     1      65.436   6.687   7.602  1.00  0.00     0.263 C 
HETATM    4  C   UNL     1      66.896   6.888   8.072  1.00  0.00     0.262 C 
HETATM    5  N   UNL     1      67.921   6.588   7.055  1.00  0.00    -0.072 N 
HETATM    6  C   UNL     1      67.581   7.310   5.813  1.00  0.00     0.262 C 
HETATM    7  C   UNL     1      68.051   5.150   6.831  1.00  0.00     0.269 C 
HETATM    8  H   UNL     1      68.832   6.905   7.386  1.00  0.00     0.279 HD
HETATM    9  C   UNL     1      66.121   7.136   5.326  1.00  0.00     0.263 C 
HETATM   10  H   UNL     1      65.171   8.436   6.596  1.00  0.00     0.280 HD
ENDBRANCH   1   2
BRANCH   1  11
HETATM   11  C   UNL     1      63.300   8.158   4.832  1.00  0.00    -0.033 A 
HETATM   12  C   UNL     1      62.973   9.473   5.188  1.00  0.00     0.009 A 
HETATM   13  C   UNL     1      62.433  10.353   4.248  1.00  0.00     0.010 A 
HETATM   14  C   UNL     1      62.216   9.936   2.929  1.00  0.00    -0.035 A 
HETATM   15  C   UNL     1      62.593   8.638   2.559  1.00  0.00     0.010 A 
HETATM   16  C   UNL     1      63.132   7.757   3.499  1.00  0.00     0.009 A 
BRANCH  14  17
HETATM   17  C   UNL     1      61.545  10.845   1.933  1.00  0.00     0.202 C 
BRANCH  17  18
HETATM   18  O   UNL     1      62.149  12.130   1.925  1.00  0.00    -0.396 OA
HETATM   19  H   UNL     1      61.955  12.583   2.761  1.00  0.00     0.209 HD
ENDBRANCH  17  18
ENDBRANCH  14  17
ENDBRANCH   1  11
TORSDOF 4
ENDMDL
MODEL 2
REMARK VINA RESULT:      -5.6      0.369      1.249
REMARK  4 active torsions:
REMARK  status: ('A' for Active; 'I' for Inactive)
REMARK    1  A    between atoms: N_1  and  C_3 
REMARK    2  A    between atoms: C_3  and  C_8 
REMARK    3  A    between atoms: C_9  and  C_16 
REMARK    4  A    between atoms: O_15  and  C_16 
ROOT
HETATM    1  C   UNL     1      63.486   7.290   6.096  1.00  0.00     0.273 C 
ENDROOT
BRANCH   1   2
HETATM    2  N   UNL     1      64.893   7.586   6.424  1.00  0.00    -0.064 N 
HETATM    3  C   UNL     1      65.384   6.768   7.552  1.00  0.00     0.263 C 
HETATM    4  C   UNL     1      66.884   6.998   7.847  1.00  0.00     0.262 C 
HETATM    5  N   UNL     1      67.779   6.805   6.690  1.00  0.00    -0.072 N 
HETATM    6  C   UNL     1      67.259   7.591   5.553  1.00  0.00     0.262 C 
HETATM    7  C   UNL     1      67.926   5.390   6.355  1.00  0.00     0.269 C 
HETATM    8  H   UNL     1      68.715   7.137   6.925  1.00  0.00     0.279 HD
HETATM    9  C   UNL     1      65.755   7.388   5.244  1.00  0.00     0.263 C 
HETATM   10  H   UNL     1      64.934   8.565   6.709  1.00  0.00     0.280 HD
ENDBRANCH   1   2
BRANCH   1  11
HETATM   11  C   UNL     1      62.935   8.179   5.000  1.00  0.00    -0.033 A 
HETATM   12  C   UNL     1      62.592   7.640   3.753  1.00  0.00     0.009 A 
HETATM   13  C   UNL     1      62.201   8.471   2.700  1.00  0.00     0.010 A 
HETATM   14  C   UNL     1      62.139   9.858   2.877  1.00  0.00    -0.035 A 
HETATM   15  C   UNL     1      62.429  10.394   4.139  1.00  0.00     0.010 A 
HETATM   16  C   UNL     1      62.823   9.564   5.191  1.00  0.00     0.009 A 
BRANCH  14  17
HETATM   17  C   UNL     1      61.813  10.768   1.723  1.00  0.00     0.202 C 
BRANCH  17  18
HETATM   18  O   UNL     1      62.088  12.124   2.046  1.00  0.00    -0.396 OA
HETATM   19  H   UNL     1      62.982  12.192   2.416  1.00  0.00     0.209 HD
ENDBRANCH  17  18
ENDBRANCH  14  17
ENDBRANCH   1  11
TORSDOF 4
ENDMDL
MODEL 3
REMARK VINA RESULT:      -5.1      1.461      2.305
REMARK  4 active torsions:
REMARK  status: ('A' for Active; 'I' for Inactive)
REMARK    1  A    between atoms: N_1  and  C_3 
REMARK    2  A    between atoms: C_3  and  C_8 
REMARK    3  A    between atoms: C_9  and  C_16 
REMARK    4  A    between atoms: O_15  and  C_16 
ROOT
HETATM    1  C   UNL     1      65.969   7.600   5.430  1.00  0.00     0.273 C 
ENDROOT
BRANCH   1   2
HETATM    2  N   UNL     1      65.702   6.776   6.624  1.00  0.00    -0.064 N 
HETATM    3  C   UNL     1      65.807   5.331   6.334  1.00  0.00     0.263 C 
HETATM    4  C   UNL     1      65.624   4.456   7.596  1.00  0.00     0.262 C 
HETATM    5  N   UNL     1      66.525   4.787   8.716  1.00  0.00    -0.072 N 
HETATM    6  C   UNL     1      66.449   6.239   8.971  1.00  0.00     0.262 C 
HETATM    7  C   UNL     1      67.894   4.350   8.450  1.00  0.00     0.269 C 
HETATM    8  H   UNL     1      66.228   4.285   9.552  1.00  0.00     0.279 HD
HETATM    9  C   UNL     1      66.618   7.139   7.722  1.00  0.00     0.263 C 
HETATM   10  H   UNL     1      64.742   6.967   6.911  1.00  0.00     0.280 HD
ENDBRANCH   1   2
BRANCH   1  11
HETATM   11  C   UNL     1      64.711   7.944   4.658  1.00  0.00    -0.033 A 
HETATM   12  C   UNL     1      64.334   7.186   3.541  1.00  0.00     0.009 A 
HETATM   13  C   UNL     1      63.247   7.570   2.753  1.00  0.00     0.010 A 
HETATM   14  C   UNL     1      62.510   8.716   3.071  1.00  0.00    -0.035 A 
HETATM   15  C   UNL     1      62.852   9.445   4.219  1.00  0.00     0.010 A 
HETATM   16  C   UNL     1      63.941   9.063   5.006  1.00  0.00     0.009 A 
BRANCH  14  17
HETATM   17  C   UNL     1      61.398   9.192   2.174  1.00  0.00     0.202 C 
BRANCH  17  18
HETATM   18  O   UNL     1      61.378  10.610   2.091  1.00  0.00    -0.396 OA
HETATM   19  H   UNL     1      61.490  10.881   1.166  1.00  0.00     0.209 HD
ENDBRANCH  17  18
ENDBRANCH  14  17
ENDBRANCH   1  11
TORSDOF 4
ENDMDL
MODEL 4
REMARK VINA RESULT:      -4.9      1.619      2.178
REMARK  4 active torsions:
REMARK  status: ('A' for Active; 'I' for Inactive)
REMARK    1  A    between atoms: N_1  and  C_3 
REMARK    2  A    between atoms: C_3  and  C_8 
REMARK    3  A    between atoms: C_9  and  C_16 
REMARK    4  A    between atoms: O_15  and  C_16 
ROOT
HETATM    1  C   UNL     1      64.275   8.856   5.412  1.00  0.00     0.273 C 
ENDROOT
BRANCH   1   2
HETATM    2  N   UNL     1      65.081   7.645   5.657  1.00  0.00    -0.064 N 
HETATM    3  C   UNL     1      66.463   7.972   6.066  1.00  0.00     0.263 C 
HETATM    4  C   UNL     1      67.293   6.716   6.418  1.00  0.00     0.262 C 
HETATM    5  N   UNL     1      66.686   5.837   7.436  1.00  0.00    -0.072 N 
HETATM    6  C   UNL     1      65.292   5.550   7.043  1.00  0.00     0.262 C 
HETATM    7  C   UNL     1      66.767   6.427   8.770  1.00  0.00     0.269 C 
HETATM    8  H   UNL     1      67.207   4.962   7.483  1.00  0.00     0.279 HD
HETATM    9  C   UNL     1      64.441   6.791   6.674  1.00  0.00     0.263 C 
HETATM   10  H   UNL     1      65.131   7.136   4.774  1.00  0.00     0.280 HD
ENDBRANCH   1   2
BRANCH   1  11
HETATM   11  C   UNL     1      63.474   8.783   4.128  1.00  0.00    -0.033 A 
HETATM   12  C   UNL     1      62.575   9.803   3.793  1.00  0.00     0.009 A 
HETATM   13  C   UNL     1      61.745   9.684   2.676  1.00  0.00     0.010 A 
HETATM   14  C   UNL     1      61.805   8.543   1.867  1.00  0.00    -0.035 A 
HETATM   15  C   UNL     1      62.742   7.546   2.170  1.00  0.00     0.010 A 
HETATM   16  C   UNL     1      63.570   7.664   3.288  1.00  0.00     0.009 A 
BRANCH  14  17
HETATM   17  C   UNL     1      60.848   8.361   0.718  1.00  0.00     0.202 C 
BRANCH  17  18
HETATM   18  O   UNL     1      59.502   8.525   1.141  1.00  0.00    -0.396 OA
HETATM   19  H   UNL     1      59.368   8.056   1.980  1.00  0.00     0.209 HD
ENDBRANCH  17  18
ENDBRANCH  14  17
ENDBRANCH   1  11
TORSDOF 4
ENDMDL
MODEL 5
REMARK VINA RESULT:      -4.8      3.948      6.275
REMARK  4 active torsions:
REMARK  status: ('A' for Active; 'I' for Inactive)
REMARK    1  A    between atoms: N_1  and  C_3 
REMARK    2  A    between atoms: C_3  and  C_8 
REMARK    3  A    between atoms: C_9  and  C_16 
REMARK    4  A    between atoms: O_15  and  C_16 
ROOT
HETATM    1  C   UNL     1      62.314   7.434   1.907  1.00  0.00     0.273 C 
ENDROOT
BRANCH   1   2
HETATM    2  N   UNL     1      61.082   6.677   2.197  1.00  0.00    -0.064 N 
HETATM    3  C   UNL     1      60.200   6.580   1.016  1.00  0.00     0.263 C 
HETATM    4  C   UNL     1      58.949   5.709   1.276  1.00  0.00     0.262 C 
HETATM    5  N   UNL     1      59.233   4.351   1.776  1.00  0.00    -0.072 N 
HETATM    6  C   UNL     1      60.149   4.452   2.929  1.00  0.00     0.262 C 
HETATM    7  C   UNL     1      59.773   3.494   0.722  1.00  0.00     0.269 C 
HETATM    8  H   UNL     1      58.363   3.911   2.078  1.00  0.00     0.279 HD
HETATM    9  C   UNL     1      61.405   5.328   2.699  1.00  0.00     0.263 C 
HETATM   10  H   UNL     1      60.578   7.192   2.921  1.00  0.00     0.280 HD
ENDBRANCH   1   2
BRANCH   1  11
HETATM   11  C   UNL     1      62.609   8.501   2.943  1.00  0.00    -0.033 A 
HETATM   12  C   UNL     1      63.518   8.251   3.980  1.00  0.00     0.009 A 
HETATM   13  C   UNL     1      63.702   9.182   5.005  1.00  0.00     0.010 A 
HETATM   14  C   UNL     1      62.986  10.384   5.008  1.00  0.00    -0.035 A 
HETATM   15  C   UNL     1      62.117  10.658   3.944  1.00  0.00     0.010 A 
HETATM   16  C   UNL     1      61.931   9.727   2.919  1.00  0.00     0.009 A 
BRANCH  14  17
HETATM   17  C   UNL     1      63.105  11.350   6.158  1.00  0.00     0.202 C 
BRANCH  17  18
HETATM   18  O   UNL     1      64.465  11.573   6.500  1.00  0.00    -0.396 OA
HETATM   19  H   UNL     1      64.533  12.370   7.051  1.00  0.00     0.209 HD
ENDBRANCH  17  18
ENDBRANCH  14  17
ENDBRANCH   1  11
TORSDOF 4
ENDMDL
MODEL 6
REMARK VINA RESULT:      -4.6      3.927      5.631
REMARK  4 active torsions:
REMARK  status: ('A' for Active; 'I' for Inactive)
REMARK    1  A    between atoms: N_1  and  C_3 
REMARK    2  A    between atoms: C_3  and  C_8 
REMARK    3  A    between atoms: C_9  and  C_16 
REMARK    4  A    between atoms: O_15  and  C_16 
ROOT
HETATM    1  C   UNL     1      62.292   7.366   1.905  1.00  0.00     0.273 C 
ENDROOT
BRANCH   1   2
HETATM    2  N   UNL     1      61.151   6.513   2.287  1.00  0.00    -0.064 N 
HETATM    3  C   UNL     1      61.563   5.397   3.164  1.00  0.00     0.263 C 
HETATM    4  C   UNL     1      60.366   4.548   3.651  1.00  0.00     0.262 C 
HETATM    5  N   UNL     1      59.296   5.313   4.319  1.00  0.00    -0.072 N 
HETATM    6  C   UNL     1      58.919   6.452   3.459  1.00  0.00     0.262 C 
HETATM    7  C   UNL     1      59.701   5.748   5.654  1.00  0.00     0.269 C 
HETATM    8  H   UNL     1      58.482   4.713   4.454  1.00  0.00     0.279 HD
HETATM    9  C   UNL     1      60.101   7.312   2.947  1.00  0.00     0.263 C 
HETATM   10  H   UNL     1      60.776   6.111   1.427  1.00  0.00     0.280 HD
ENDBRANCH   1   2
BRANCH   1  11
HETATM   11  C   UNL     1      62.587   8.448   2.924  1.00  0.00    -0.033 A 
HETATM   12  C   UNL     1      63.499   8.216   3.962  1.00  0.00     0.009 A 
HETATM   13  C   UNL     1      63.684   9.161   4.973  1.00  0.00     0.010 A 
HETATM   14  C   UNL     1      62.965  10.362   4.961  1.00  0.00    -0.035 A 
HETATM   15  C   UNL     1      62.094  10.619   3.895  1.00  0.00     0.010 A 
HETATM   16  C   UNL     1      61.906   9.673   2.884  1.00  0.00     0.009 A 
BRANCH  14  17
HETATM   17  C   UNL     1      63.086  11.345   6.097  1.00  0.00     0.202 C 
BRANCH  17  18
HETATM   18  O   UNL     1      64.444  11.538   6.464  1.00  0.00    -0.396 OA
HETATM   19  H   UNL     1      64.822  12.259   5.935  1.00  0.00     0.209 HD
ENDBRANCH  17  18
ENDBRANCH  14  17
ENDBRANCH   1  11
TORSDOF 4
ENDMDL
MODEL 7
REMARK VINA RESULT:      -4.5      4.226      5.404
REMARK  4 active torsions:
REMARK  status: ('A' for Active; 'I' for Inactive)
REMARK    1  A    between atoms: N_1  and  C_3 
REMARK    2  A    between atoms: C_3  and  C_8 
REMARK    3  A    between atoms: C_9  and  C_16 
REMARK    4  A    between atoms: O_15  and  C_16 
ROOT
HETATM    1  C   UNL     1      63.268   5.220   5.544  1.00  0.00     0.273 C 
ENDROOT
BRANCH   1   2
HETATM    2  N   UNL     1      64.062   6.356   6.048  1.00  0.00    -0.064 N 
HETATM    3  C   UNL     1      65.250   5.909   6.805  1.00  0.00     0.263 C 
HETATM    4  C   UNL     1      66.144   7.086   7.260  1.00  0.00     0.262 C 
HETATM    5  N   UNL     1      66.577   7.989   6.177  1.00  0.00    -0.072 N 
HETATM    6  C   UNL     1      65.392   8.397   5.398  1.00  0.00     0.262 C 
HETATM    7  C   UNL     1      67.596   7.366   5.335  1.00  0.00     0.269 C 
HETATM    8  H   UNL     1      67.014   8.818   6.580  1.00  0.00     0.279 HD
HETATM    9  C   UNL     1      64.472   7.238   4.940  1.00  0.00     0.263 C 
HETATM   10  H   UNL     1      63.463   6.879   6.689  1.00  0.00     0.280 HD
ENDBRANCH   1   2
BRANCH   1  11
HETATM   11  C   UNL     1      62.008   4.977   6.351  1.00  0.00    -0.033 A 
HETATM   12  C   UNL     1      61.143   6.036   6.655  1.00  0.00     0.009 A 
HETATM   13  C   UNL     1      60.048   5.843   7.499  1.00  0.00     0.010 A 
HETATM   14  C   UNL     1      59.791   4.582   8.050  1.00  0.00    -0.035 A 
HETATM   15  C   UNL     1      60.624   3.509   7.704  1.00  0.00     0.010 A 
HETATM   16  C   UNL     1      61.721   3.703   6.861  1.00  0.00     0.009 A 
BRANCH  14  17
HETATM   17  C   UNL     1      58.671   4.385   9.037  1.00  0.00     0.202 C 
BRANCH  17  18
HETATM   18  O   UNL     1      58.605   5.464   9.958  1.00  0.00    -0.396 OA
HETATM   19  H   UNL     1      58.368   6.278   9.486  1.00  0.00     0.209 HD
ENDBRANCH  17  18
ENDBRANCH  14  17
ENDBRANCH   1  11
TORSDOF 4
ENDMDL
MODEL 8
REMARK VINA RESULT:      -4.5     11.054     12.929
REMARK  4 active torsions:
REMARK  status: ('A' for Active; 'I' for Inactive)
REMARK    1  A    between atoms: N_1  and  C_3 
REMARK    2  A    between atoms: C_3  and  C_8 
REMARK    3  A    between atoms: C_9  and  C_16 
REMARK    4  A    between atoms: O_15  and  C_16 
ROOT
HETATM    1  C   UNL     1      60.047  -0.258  11.358  1.00  0.00     0.273 C 
ENDROOT
BRANCH   1   2
HETATM    2  N   UNL     1      59.392   0.022  12.649  1.00  0.00    -0.064 N 
HETATM    3  C   UNL     1      59.422   1.460  12.985  1.00  0.00     0.263 C 
HETATM    4  C   UNL     1      58.656   1.783  14.289  1.00  0.00     0.262 C 
HETATM    5  N   UNL     1      57.258   1.313  14.320  1.00  0.00    -0.072 N 
HETATM    6  C   UNL     1      57.230  -0.114  13.940  1.00  0.00     0.262 C 
HETATM    7  C   UNL     1      56.401   2.124  13.458  1.00  0.00     0.269 C 
HETATM    8  H   UNL     1      56.885   1.415  15.264  1.00  0.00     0.279 HD
HETATM    9  C   UNL     1      58.000  -0.467  12.643  1.00  0.00     0.263 C 
HETATM   10  H   UNL     1      59.919  -0.477  13.367  1.00  0.00     0.280 HD
ENDBRANCH   1   2
BRANCH   1  11
HETATM   11  C   UNL     1      61.552  -0.393  11.476  1.00  0.00    -0.033 A 
HETATM   12  C   UNL     1      62.145  -0.668  12.716  1.00  0.00     0.009 A 
HETATM   13  C   UNL     1      63.534  -0.672  12.856  1.00  0.00     0.010 A 
HETATM   14  C   UNL     1      64.359  -0.408  11.757  1.00  0.00    -0.035 A 
HETATM   15  C   UNL     1      63.769  -0.186  10.505  1.00  0.00     0.010 A 
HETATM   16  C   UNL     1      62.379  -0.180  10.364  1.00  0.00     0.009 A 
BRANCH  14  17
HETATM   17  C   UNL     1      65.853  -0.313  11.919  1.00  0.00     0.202 C 
BRANCH  17  18
HETATM   18  O   UNL     1      66.199   0.580  12.967  1.00  0.00    -0.396 OA
HETATM   19  H   UNL     1      66.968   0.232  13.447  1.00  0.00     0.209 HD
ENDBRANCH  17  18
ENDBRANCH  14  17
ENDBRANCH   1  11
TORSDOF 4
ENDMDL
MODEL 9
REMARK VINA RESULT:      -4.3      3.327      3.882
REMARK  4 active torsions:
REMARK  status: ('A' for Active; 'I' for Inactive)
REMARK    1  A    between atoms: N_1  and  C_3 
REMARK    2  A    between atoms: C_3  and  C_8 
REMARK    3  A    between atoms: C_9  and  C_16 
REMARK    4  A    between atoms: O_15  and  C_16 
ROOT
HETATM    1  C   UNL     1      63.410   6.124   3.040  1.00  0.00     0.273 C 
ENDROOT
BRANCH   1   2
HETATM    2  N   UNL     1      64.618   5.345   3.370  1.00  0.00    -0.064 N 
HETATM    3  C   UNL     1      64.324   4.232   4.297  1.00  0.00     0.263 C 
HETATM    4  C   UNL     1      65.561   3.349   4.579  1.00  0.00     0.262 C 
HETATM    5  N   UNL     1      66.223   2.808   3.377  1.00  0.00    -0.072 N 
HETATM    6  C   UNL     1      66.474   3.917   2.436  1.00  0.00     0.262 C 
HETATM    7  C   UNL     1      65.434   1.740   2.765  1.00  0.00     0.269 C 
HETATM    8  H   UNL     1      67.113   2.385   3.640  1.00  0.00     0.279 HD
HETATM    9  C   UNL     1      65.254   4.826   2.145  1.00  0.00     0.263 C 
HETATM   10  H   UNL     1      65.264   5.979   3.841  1.00  0.00     0.280 HD
ENDBRANCH   1   2
BRANCH   1  11
HETATM   11  C   UNL     1      63.402   7.498   3.678  1.00  0.00    -0.033 A 
HETATM   12  C   UNL     1      64.418   7.876   4.565  1.00  0.00     0.009 A 
HETATM   13  C   UNL     1      64.352   9.091   5.250  1.00  0.00     0.010 A 
HETATM   14  C   UNL     1      63.270   9.957   5.054  1.00  0.00    -0.035 A 
HETATM   15  C   UNL     1      62.280   9.606   4.127  1.00  0.00     0.010 A 
HETATM   16  C   UNL     1      62.345   8.389   3.443  1.00  0.00     0.009 A 
BRANCH  14  17
HETATM   17  C   UNL     1      63.140  11.223   5.859  1.00  0.00     0.202 C 
BRANCH  17  18
HETATM   18  O   UNL     1      64.371  11.562   6.483  1.00  0.00    -0.396 OA
HETATM   19  H   UNL     1      64.289  12.430   6.908  1.00  0.00     0.209 HD
ENDBRANCH  17  18
ENDBRANCH  14  17
ENDBRANCH   1  11
TORSDOF 4
ENDMDL
