MODEL 1
REMARK VINA RESULT:      -5.4      0.000      0.000
REMARK  4 active torsions:
REMARK  status: ('A' for Active; 'I' for Inactive)
REMARK    1  A    between atoms: N_1  and  C_2 
REMARK    2  A    between atoms: C_2  and  C_3 
REMARK    3  A    between atoms: C_4  and  C_12 
REMARK    4  A    between atoms: O_11  and  C_12 
ROOT
HETATM    1  C   UNL     1      62.933   8.299   5.032  1.00  0.00    -0.033 A 
HETATM    2  C   UNL     1      62.090   9.955   2.907  1.00  0.00    -0.035 A 
HETATM    3  C   UNL     1      62.492   7.741   3.825  1.00  0.00     0.009 A 
HETATM    4  C   UNL     1      62.879   9.692   5.188  1.00  0.00     0.009 A 
HETATM    5  C   UNL     1      62.084   8.560   2.769  1.00  0.00     0.010 A 
HETATM    6  C   UNL     1      62.465  10.512   4.135  1.00  0.00     0.010 A 
ENDROOT
BRANCH   1   7
HETATM    7  C   UNL     1      63.504   7.421   6.130  1.00  0.00     0.273 C 
BRANCH   7   8
HETATM    8  N   UNL     1      64.965   7.510   6.342  1.00  0.00    -0.067 N 
HETATM    9  C   UNL     1      65.731   7.437   5.094  1.00  0.00     0.235 C 
HETATM   10  C   UNL     1      67.229   7.648   5.328  1.00  0.00     0.028 C 
HETATM   11  C   UNL     1      67.766   6.672   6.369  1.00  0.00     0.003 C 
HETATM   12  C   UNL     1      66.940   6.773   7.646  1.00  0.00     0.028 C 
HETATM   13  C   UNL     1      65.453   6.562   7.349  1.00  0.00     0.235 C 
HETATM   14  H   UNL     1      65.126   8.442   6.723  1.00  0.00     0.280 HD
ENDBRANCH   7   8
ENDBRANCH   1   7
BRANCH   2  15
HETATM   15  C   UNL     1      61.720  10.831   1.743  1.00  0.00     0.202 C 
BRANCH  15  16
HETATM   16  O   UNL     1      62.084  12.184   2.000  1.00  0.00    -0.396 OA
HETATM   17  H   UNL     1      63.044  12.242   2.127  1.00  0.00     0.209 HD
ENDBRANCH  15  16
ENDBRANCH   2  15
TORSDOF 4
ENDMDL
MODEL 2
REMARK VINA RESULT:      -5.3      0.764      1.795
REMARK  4 active torsions:
REMARK  status: ('A' for Active; 'I' for Inactive)
REMARK    1  A    between atoms: N_1  and  C_2 
REMARK    2  A    between atoms: C_2  and  C_3 
REMARK    3  A    between atoms: C_4  and  C_12 
REMARK    4  A    between atoms: O_11  and  C_12 
ROOT
HETATM    1  C   UNL     1      63.327   8.253   4.997  1.00  0.00    -0.033 A 
HETATM    2  C   UNL     1      62.306   9.881   2.929  1.00  0.00    -0.035 A 
HETATM    3  C   UNL     1      62.954   9.580   5.252  1.00  0.00     0.009 A 
HETATM    4  C   UNL     1      63.250   7.774   3.681  1.00  0.00     0.009 A 
HETATM    5  C   UNL     1      62.439  10.383   4.231  1.00  0.00     0.010 A 
HETATM    6  C   UNL     1      62.741   8.579   2.658  1.00  0.00     0.010 A 
ENDROOT
BRANCH   1   7
HETATM    7  C   UNL     1      63.757   7.338   6.128  1.00  0.00     0.273 C 
BRANCH   7   8
HETATM    8  N   UNL     1      65.123   6.779   6.031  1.00  0.00    -0.067 N 
HETATM    9  C   UNL     1      65.380   5.720   7.012  1.00  0.00     0.235 C 
HETATM   10  C   UNL     1      66.757   5.079   6.817  1.00  0.00     0.028 C 
HETATM   11  C   UNL     1      67.860   6.131   6.831  1.00  0.00     0.003 C 
HETATM   12  C   UNL     1      67.553   7.216   5.806  1.00  0.00     0.028 C 
HETATM   13  C   UNL     1      66.164   7.813   6.045  1.00  0.00     0.235 C 
HETATM   14  H   UNL     1      65.171   6.337   5.114  1.00  0.00     0.280 HD
ENDBRANCH   7   8
ENDBRANCH   1   7
BRANCH   2  15
HETATM   15  C   UNL     1      61.683  10.726   1.853  1.00  0.00     0.202 C 
BRANCH  15  16
HETATM   16  O   UNL     1      62.065  12.089   2.005  1.00  0.00    -0.396 OA
HETATM   17  H   UNL     1      62.387  12.237   2.907  1.00  0.00     0.209 HD
ENDBRANCH  15  16
ENDBRANCH   2  15
TORSDOF 4
ENDMDL
MODEL 3
REMARK VINA RESULT:      -5.2      3.696      6.212
REMARK  4 active torsions:
REMARK  status: ('A' for Active; 'I' for Inactive)
REMARK    1  A    between atoms: N_1  and  C_2 
REMARK    2  A    between atoms: C_2  and  C_3 
REMARK    3  A    between atoms: C_4  and  C_12 
REMARK    4  A    between atoms: O_11  and  C_12 
ROOT
HETATM    1  C   UNL     1      62.273   9.334   2.021  1.00  0.00    -0.033 A 
HETATM    2  C   UNL     1      62.628  10.509   4.563  1.00  0.00    -0.035 A 
HETATM    3  C   UNL     1      61.823  10.637   2.274  1.00  0.00     0.009 A 
HETATM    4  C   UNL     1      62.838   8.602   3.076  1.00  0.00     0.009 A 
HETATM    5  C   UNL     1      62.008  11.223   3.529  1.00  0.00     0.010 A 
HETATM    6  C   UNL     1      63.017   9.185   4.333  1.00  0.00     0.010 A 
ENDROOT
BRANCH   1   7
HETATM    7  C   UNL     1      62.198   8.745   0.625  1.00  0.00     0.273 C 
BRANCH   7   8
HETATM    8  N   UNL     1      61.094   7.793   0.378  1.00  0.00    -0.067 N 
HETATM    9  C   UNL     1      59.848   8.172   1.052  1.00  0.00     0.235 C 
HETATM   10  C   UNL     1      58.691   7.238   0.689  1.00  0.00     0.028 C 
HETATM   11  C   UNL     1      59.053   5.782   0.963  1.00  0.00     0.003 C 
HETATM   12  C   UNL     1      60.354   5.430   0.252  1.00  0.00     0.028 C 
HETATM   13  C   UNL     1      61.469   6.401   0.648  1.00  0.00     0.235 C 
HETATM   14  H   UNL     1      60.906   7.850  -0.623  1.00  0.00     0.280 HD
ENDBRANCH   7   8
ENDBRANCH   1   7
BRANCH   2  15
HETATM   15  C   UNL     1      62.889  11.171   5.887  1.00  0.00     0.202 C 
BRANCH  15  16
HETATM   16  O   UNL     1      64.289  11.293   6.118  1.00  0.00    -0.396 OA
HETATM   17  H   UNL     1      64.461  12.080   6.658  1.00  0.00     0.209 HD
ENDBRANCH  15  16
ENDBRANCH   2  15
TORSDOF 4
ENDMDL
MODEL 4
REMARK VINA RESULT:      -5.1      1.551      2.504
REMARK  4 active torsions:
REMARK  status: ('A' for Active; 'I' for Inactive)
REMARK    1  A    between atoms: N_1  and  C_2 
REMARK    2  A    between atoms: C_2  and  C_3 
REMARK    3  A    between atoms: C_4  and  C_12 
REMARK    4  A    between atoms: O_11  and  C_12 
ROOT
HETATM    1  C   UNL     1      65.244   7.669   4.710  1.00  0.00    -0.033 A 
HETATM    2  C   UNL     1      62.781   8.555   3.653  1.00  0.00    -0.035 A 
HETATM    3  C   UNL     1      64.598   6.941   3.701  1.00  0.00     0.009 A 
HETATM    4  C   UNL     1      64.609   8.805   5.232  1.00  0.00     0.009 A 
HETATM    5  C   UNL     1      63.384   7.385   3.171  1.00  0.00     0.010 A 
HETATM    6  C   UNL     1      63.391   9.246   4.706  1.00  0.00     0.010 A 
ENDROOT
BRANCH   1   7
HETATM    7  C   UNL     1      66.625   7.266   5.192  1.00  0.00     0.273 C 
BRANCH   7   8
HETATM    8  N   UNL     1      66.673   6.448   6.423  1.00  0.00    -0.067 N 
HETATM    9  C   UNL     1      66.765   7.254   7.645  1.00  0.00     0.235 C 
HETATM   10  C   UNL     1      66.696   6.392   8.907  1.00  0.00     0.028 C 
HETATM   11  C   UNL     1      67.755   5.295   8.883  1.00  0.00     0.003 C 
HETATM   12  C   UNL     1      67.631   4.486   7.597  1.00  0.00     0.028 C 
HETATM   13  C   UNL     1      67.699   5.400   6.371  1.00  0.00     0.235 C 
HETATM   14  H   UNL     1      65.775   5.968   6.464  1.00  0.00     0.280 HD
ENDBRANCH   7   8
ENDBRANCH   1   7
BRANCH   2  15
HETATM   15  C   UNL     1      61.513   9.066   3.027  1.00  0.00     0.202 C 
BRANCH  15  16
HETATM   16  O   UNL     1      61.107  10.284   3.643  1.00  0.00    -0.396 OA
HETATM   17  H   UNL     1      60.976  10.962   2.963  1.00  0.00     0.209 HD
ENDBRANCH  15  16
ENDBRANCH   2  15
TORSDOF 4
ENDMDL
MODEL 5
REMARK VINA RESULT:      -4.9      2.960      6.241
REMARK  4 active torsions:
REMARK  status: ('A' for Active; 'I' for Inactive)
REMARK    1  A    between atoms: N_1  and  C_2 
REMARK    2  A    between atoms: C_2  and  C_3 
REMARK    3  A    between atoms: C_4  and  C_12 
REMARK    4  A    between atoms: O_11  and  C_12 
ROOT
HETATM    1  C   UNL     1      64.028   7.531   5.354  1.00  0.00    -0.033 A 
HETATM    2  C   UNL     1      66.544   6.754   6.371  1.00  0.00    -0.035 A 
HETATM    3  C   UNL     1      65.209   7.908   4.700  1.00  0.00     0.009 A 
HETATM    4  C   UNL     1      64.124   6.822   6.560  1.00  0.00     0.009 A 
HETATM    5  C   UNL     1      66.454   7.516   5.198  1.00  0.00     0.010 A 
HETATM    6  C   UNL     1      65.370   6.434   7.062  1.00  0.00     0.010 A 
ENDROOT
BRANCH   1   7
HETATM    7  C   UNL     1      62.673   7.838   4.745  1.00  0.00     0.273 C 
BRANCH   7   8
HETATM    8  N   UNL     1      62.647   8.892   3.708  1.00  0.00    -0.067 N 
HETATM    9  C   UNL     1      61.924  10.096   4.132  1.00  0.00     0.235 C 
HETATM   10  C   UNL     1      62.010  11.213   3.089  1.00  0.00     0.028 C 
HETATM   11  C   UNL     1      61.535  10.730   1.724  1.00  0.00     0.003 C 
HETATM   12  C   UNL     1      62.304   9.476   1.324  1.00  0.00     0.028 C 
HETATM   13  C   UNL     1      62.188   8.399   2.405  1.00  0.00     0.235 C 
HETATM   14  H   UNL     1      63.619   9.172   3.583  1.00  0.00     0.280 HD
ENDBRANCH   7   8
ENDBRANCH   1   7
BRANCH   2  15
HETATM   15  C   UNL     1      67.882   6.274   6.860  1.00  0.00     0.202 C 
BRANCH  15  16
HETATM   16  O   UNL     1      67.987   6.439   8.271  1.00  0.00    -0.396 OA
HETATM   17  H   UNL     1      68.754   5.944   8.598  1.00  0.00     0.209 HD
ENDBRANCH  15  16
ENDBRANCH   2  15
TORSDOF 4
ENDMDL
MODEL 6
REMARK VINA RESULT:      -4.5      1.857      2.468
REMARK  4 active torsions:
REMARK  status: ('A' for Active; 'I' for Inactive)
REMARK    1  A    between atoms: N_1  and  C_2 
REMARK    2  A    between atoms: C_2  and  C_3 
REMARK    3  A    between atoms: C_4  and  C_12 
REMARK    4  A    between atoms: O_11  and  C_12 
ROOT
HETATM    1  C   UNL     1      62.658   8.597   4.068  1.00  0.00    -0.033 A 
HETATM    2  C   UNL     1      60.859   8.352   1.908  1.00  0.00    -0.035 A 
HETATM    3  C   UNL     1      61.873   7.446   3.922  1.00  0.00     0.009 A 
HETATM    4  C   UNL     1      62.481   9.652   3.162  1.00  0.00     0.009 A 
HETATM    5  C   UNL     1      60.989   7.320   2.848  1.00  0.00     0.010 A 
HETATM    6  C   UNL     1      61.593   9.530   2.090  1.00  0.00     0.010 A 
ENDROOT
BRANCH   1   7
HETATM    7  C   UNL     1      63.716   8.681   5.154  1.00  0.00     0.273 C 
BRANCH   7   8
HETATM    8  N   UNL     1      64.635   7.528   5.259  1.00  0.00    -0.067 N 
HETATM    9  C   UNL     1      64.511   6.810   6.532  1.00  0.00     0.235 C 
HETATM   10  C   UNL     1      65.388   5.556   6.571  1.00  0.00     0.028 C 
HETATM   11  C   UNL     1      66.842   5.891   6.260  1.00  0.00     0.003 C 
HETATM   12  C   UNL     1      66.927   6.641   4.936  1.00  0.00     0.028 C 
HETATM   13  C   UNL     1      66.027   7.878   4.953  1.00  0.00     0.235 C 
HETATM   14  H   UNL     1      64.337   6.877   4.534  1.00  0.00     0.280 HD
ENDBRANCH   7   8
ENDBRANCH   1   7
BRANCH   2  15
HETATM   15  C   UNL     1      59.961   8.179   0.714  1.00  0.00     0.202 C 
BRANCH  15  16
HETATM   16  O   UNL     1      58.609   8.457   1.062  1.00  0.00    -0.396 OA
HETATM   17  H   UNL     1      58.565   8.751   1.985  1.00  0.00     0.209 HD
ENDBRANCH  15  16
ENDBRANCH   2  15
TORSDOF 4
ENDMDL
MODEL 7
REMARK VINA RESULT:      -4.4      4.361      6.369
REMARK  4 active torsions:
REMARK  status: ('A' for Active; 'I' for Inactive)
REMARK    1  A    between atoms: N_1  and  C_2 
REMARK    2  A    between atoms: C_2  and  C_3 
REMARK    3  A    between atoms: C_4  and  C_12 
REMARK    4  A    between atoms: O_11  and  C_12 
ROOT
HETATM    1  C   UNL     1      60.905   6.527   5.273  1.00  0.00    -0.033 A 
HETATM    2  C   UNL     1      58.813   5.740   6.998  1.00  0.00    -0.035 A 
HETATM    3  C   UNL     1      59.582   6.481   4.814  1.00  0.00     0.009 A 
HETATM    4  C   UNL     1      61.177   6.107   6.583  1.00  0.00     0.009 A 
HETATM    5  C   UNL     1      58.545   6.101   5.670  1.00  0.00     0.010 A 
HETATM    6  C   UNL     1      60.142   5.721   7.438  1.00  0.00     0.010 A 
ENDROOT
BRANCH   1   7
HETATM    7  C   UNL     1      62.013   7.068   4.389  1.00  0.00     0.273 C 
BRANCH   7   8
HETATM    8  N   UNL     1      61.679   8.259   3.579  1.00  0.00    -0.067 N 
HETATM    9  C   UNL     1      61.892   8.053   2.142  1.00  0.00     0.235 C 
HETATM   10  C   UNL     1      61.431   9.256   1.316  1.00  0.00     0.028 C 
HETATM   11  C   UNL     1      62.092  10.542   1.799  1.00  0.00     0.003 C 
HETATM   12  C   UNL     1      61.854  10.715   3.295  1.00  0.00     0.028 C 
HETATM   13  C   UNL     1      62.327   9.481   4.066  1.00  0.00     0.235 C 
HETATM   14  H   UNL     1      60.676   8.397   3.702  1.00  0.00     0.280 HD
ENDBRANCH   7   8
ENDBRANCH   1   7
BRANCH   2  15
HETATM   15  C   UNL     1      57.686   5.404   7.933  1.00  0.00     0.202 C 
BRANCH  15  16
HETATM   16  O   UNL     1      58.192   4.973   9.192  1.00  0.00    -0.396 OA
HETATM   17  H   UNL     1      58.930   5.545   9.457  1.00  0.00     0.209 HD
ENDBRANCH  15  16
ENDBRANCH   2  15
TORSDOF 4
ENDMDL
MODEL 8
REMARK VINA RESULT:      -4.3      2.913      3.692
REMARK  4 active torsions:
REMARK  status: ('A' for Active; 'I' for Inactive)
REMARK    1  A    between atoms: N_1  and  C_2 
REMARK    2  A    between atoms: C_2  and  C_3 
REMARK    3  A    between atoms: C_4  and  C_12 
REMARK    4  A    between atoms: O_11  and  C_12 
ROOT
HETATM    1  C   UNL     1      64.715   6.939   3.906  1.00  0.00    -0.033 A 
HETATM    2  C   UNL     1      63.791   9.407   4.917  1.00  0.00    -0.035 A 
HETATM    3  C   UNL     1      65.429   7.611   4.907  1.00  0.00     0.009 A 
HETATM    4  C   UNL     1      63.574   7.550   3.368  1.00  0.00     0.009 A 
HETATM    5  C   UNL     1      64.967   8.828   5.415  1.00  0.00     0.010 A 
HETATM    6  C   UNL     1      63.114   8.770   3.871  1.00  0.00     0.010 A 
ENDROOT
BRANCH   1   7
HETATM    7  C   UNL     1      65.138   5.555   3.448  1.00  0.00     0.273 C 
BRANCH   7   8
HETATM    8  N   UNL     1      65.716   4.673   4.485  1.00  0.00    -0.067 N 
HETATM    9  C   UNL     1      67.161   4.477   4.331  1.00  0.00     0.235 C 
HETATM   10  C   UNL     1      67.755   3.658   5.479  1.00  0.00     0.028 C 
HETATM   11  C   UNL     1      67.026   2.329   5.641  1.00  0.00     0.003 C 
HETATM   12  C   UNL     1      65.529   2.575   5.791  1.00  0.00     0.028 C 
HETATM   13  C   UNL     1      64.995   3.403   4.620  1.00  0.00     0.235 C 
HETATM   14  H   UNL     1      65.588   5.171   5.366  1.00  0.00     0.280 HD
ENDBRANCH   7   8
ENDBRANCH   1   7
BRANCH   2  15
HETATM   15  C   UNL     1      63.261  10.678   5.519  1.00  0.00     0.202 C 
BRANCH  15  16
HETATM   16  O   UNL     1      64.284  11.353   6.244  1.00  0.00    -0.396 OA
HETATM   17  H   UNL     1      64.157  12.311   6.166  1.00  0.00     0.209 HD
ENDBRANCH  15  16
ENDBRANCH   2  15
TORSDOF 4
ENDMDL
MODEL 9
REMARK VINA RESULT:      -4.3      2.709      4.112
REMARK  4 active torsions:
REMARK  status: ('A' for Active; 'I' for Inactive)
REMARK    1  A    between atoms: N_1  and  C_2 
REMARK    2  A    between atoms: C_2  and  C_3 
REMARK    3  A    between atoms: C_4  and  C_12 
REMARK    4  A    between atoms: O_11  and  C_12 
ROOT
HETATM    1  C   UNL     1      62.700   7.427   4.096  1.00  0.00    -0.033 A 
HETATM    2  C   UNL     1      62.185  10.136   3.491  1.00  0.00    -0.035 A 
HETATM    3  C   UNL     1      63.149   8.446   4.948  1.00  0.00     0.009 A 
HETATM    4  C   UNL     1      62.053   7.784   2.904  1.00  0.00     0.009 A 
HETATM    5  C   UNL     1      62.885   9.786   4.654  1.00  0.00     0.010 A 
HETATM    6  C   UNL     1      61.795   9.124   2.606  1.00  0.00     0.010 A 
ENDROOT
BRANCH   1   7
HETATM    7  C   UNL     1      62.864   5.968   4.479  1.00  0.00     0.273 C 
BRANCH   7   8
HETATM    8  N   UNL     1      62.191   5.541   5.725  1.00  0.00    -0.067 N 
HETATM    9  C   UNL     1      62.221   4.088   5.924  1.00  0.00     0.235 C 
HETATM   10  C   UNL     1      61.623   3.682   7.273  1.00  0.00     0.028 C 
HETATM   11  C   UNL     1      60.214   4.238   7.440  1.00  0.00     0.003 C 
HETATM   12  C   UNL     1      60.224   5.746   7.219  1.00  0.00     0.028 C 
HETATM   13  C   UNL     1      60.839   6.092   5.860  1.00  0.00     0.235 C 
HETATM   14  H   UNL     1      62.743   5.945   6.482  1.00  0.00     0.280 HD
ENDBRANCH   7   8
ENDBRANCH   1   7
BRANCH   2  15
HETATM   15  C   UNL     1      61.841  11.574   3.219  1.00  0.00     0.202 C 
BRANCH  15  16
HETATM   16  O   UNL     1      62.098  11.900   1.857  1.00  0.00    -0.396 OA
HETATM   17  H   UNL     1      61.296  11.755   1.332  1.00  0.00     0.209 HD
ENDBRANCH  15  16
ENDBRANCH   2  15
TORSDOF 4
ENDMDL
