MODEL 1
REMARK VINA RESULT:      -5.5      0.000      0.000
REMARK  1 active torsions:
REMARK  status: ('A' for Active; 'I' for Inactive)
REMARK    1  A    between atoms: C_1  and  C_3 
ROOT
HETATM    1  N   UNL     1      60.839   8.489   0.923  1.00  0.00    -0.191 NA
HETATM    2  C   UNL     1      63.873   9.069   4.673  1.00  0.00    -0.001 A 
HETATM    3  C   UNL     1      61.405   8.871   1.861  1.00  0.00     0.099 C 
HETATM    4  C   UNL     1      63.160   8.605   3.556  1.00  0.00     0.037 A 
HETATM    5  C   UNL     1      62.104   9.350   3.017  1.00  0.00     0.045 A 
HETATM    6  C   UNL     1      63.486  10.287   5.252  1.00  0.00     0.014 A 
HETATM    7  C   UNL     1      62.429  11.034   4.719  1.00  0.00     0.002 A 
HETATM    8  C   UNL     1      61.742  10.568   3.600  1.00  0.00     0.023 A 
ENDROOT
BRANCH   2   9
HETATM    9  C   UNL     1      65.013   8.321   5.203  1.00  0.00     0.085 A 
HETATM   10  O   UNL     1      65.737   8.939   6.185  1.00  0.00    -0.322 OA
HETATM   11  C   UNL     1      66.714   8.082   6.573  1.00  0.00     0.142 A 
HETATM   12  C   UNL     1      66.641   6.914   5.854  1.00  0.00     0.027 A 
HETATM   13  C   UNL     1      65.549   7.070   4.963  1.00  0.00     0.040 A 
ENDBRANCH   2   9
TORSDOF 1
ENDMDL
MODEL 2
REMARK VINA RESULT:      -5.3      1.872      2.689
REMARK  1 active torsions:
REMARK  status: ('A' for Active; 'I' for Inactive)
REMARK    1  A    between atoms: C_1  and  C_3 
ROOT
HETATM    1  N   UNL     1      61.873  11.779   4.248  1.00  0.00    -0.191 NA
HETATM    2  C   UNL     1      64.471   7.747   5.020  1.00  0.00    -0.001 A 
HETATM    3  C   UNL     1      62.361  10.729   4.185  1.00  0.00     0.099 C 
HETATM    4  C   UNL     1      63.894   9.026   5.066  1.00  0.00     0.037 A 
HETATM    5  C   UNL     1      62.957   9.427   4.105  1.00  0.00     0.045 A 
HETATM    6  C   UNL     1      64.104   6.888   3.973  1.00  0.00     0.014 A 
HETATM    7  C   UNL     1      63.171   7.285   3.009  1.00  0.00     0.002 A 
HETATM    8  C   UNL     1      62.595   8.552   3.078  1.00  0.00     0.023 A 
ENDROOT
BRANCH   2   9
HETATM    9  C   UNL     1      65.406   7.305   6.055  1.00  0.00     0.085 A 
HETATM   10  O   UNL     1      64.869   7.058   7.289  1.00  0.00    -0.322 OA
HETATM   11  C   UNL     1      65.872   6.622   8.090  1.00  0.00     0.142 A 
HETATM   12  C   UNL     1      67.058   6.587   7.399  1.00  0.00     0.027 A 
HETATM   13  C   UNL     1      66.761   7.036   6.087  1.00  0.00     0.040 A 
ENDBRANCH   2   9
TORSDOF 1
ENDMDL
MODEL 3
REMARK VINA RESULT:      -5.1      3.189      5.726
REMARK  1 active torsions:
REMARK  status: ('A' for Active; 'I' for Inactive)
REMARK    1  A    between atoms: C_1  and  C_3 
ROOT
HETATM    1  N   UNL     1      66.402   4.615   8.825  1.00  0.00    -0.191 NA
HETATM    2  C   UNL     1      65.458   7.974   5.444  1.00  0.00    -0.001 A 
HETATM    3  C   UNL     1      66.453   5.359   7.937  1.00  0.00     0.099 C 
HETATM    4  C   UNL     1      65.403   7.047   6.497  1.00  0.00     0.037 A 
HETATM    5  C   UNL     1      66.524   6.282   6.842  1.00  0.00     0.045 A 
HETATM    6  C   UNL     1      66.659   8.099   4.729  1.00  0.00     0.014 A 
HETATM    7  C   UNL     1      67.782   7.335   5.068  1.00  0.00     0.002 A 
HETATM    8  C   UNL     1      67.715   6.431   6.126  1.00  0.00     0.023 A 
ENDROOT
BRANCH   2   9
HETATM    9  C   UNL     1      64.307   8.815   5.118  1.00  0.00     0.085 A 
HETATM   10  O   UNL     1      64.234  10.017   5.768  1.00  0.00    -0.322 OA
HETATM   11  C   UNL     1      63.134  10.664   5.307  1.00  0.00     0.142 A 
HETATM   12  C   UNL     1      62.484   9.898   4.371  1.00  0.00     0.027 A 
HETATM   13  C   UNL     1      63.235   8.701   4.253  1.00  0.00     0.040 A 
ENDBRANCH   2   9
TORSDOF 1
ENDMDL
MODEL 4
REMARK VINA RESULT:      -4.7      2.576      5.137
REMARK  1 active torsions:
REMARK  status: ('A' for Active; 'I' for Inactive)
REMARK    1  A    between atoms: C_1  and  C_3 
ROOT
HETATM    1  N   UNL     1      67.162   3.886   3.113  1.00  0.00    -0.191 NA
HETATM    2  C   UNL     1      65.417   7.933   5.158  1.00  0.00    -0.001 A 
HETATM    3  C   UNL     1      66.977   4.818   3.778  1.00  0.00     0.099 C 
HETATM    4  C   UNL     1      65.672   6.818   4.343  1.00  0.00     0.037 A 
HETATM    5  C   UNL     1      66.750   5.965   4.608  1.00  0.00     0.045 A 
HETATM    6  C   UNL     1      66.286   8.186   6.231  1.00  0.00     0.014 A 
HETATM    7  C   UNL     1      67.367   7.338   6.498  1.00  0.00     0.002 A 
HETATM    8  C   UNL     1      67.596   6.226   5.690  1.00  0.00     0.023 A 
ENDROOT
BRANCH   2   9
HETATM    9  C   UNL     1      64.259   8.793   4.919  1.00  0.00     0.085 A 
HETATM   10  O   UNL     1      64.197   9.943   5.656  1.00  0.00    -0.322 OA
HETATM   11  C   UNL     1      63.088  10.619   5.266  1.00  0.00     0.142 A 
HETATM   12  C   UNL     1      62.420   9.923   4.289  1.00  0.00     0.027 A 
HETATM   13  C   UNL     1      63.169   8.739   4.069  1.00  0.00     0.040 A 
ENDBRANCH   2   9
TORSDOF 1
ENDMDL
MODEL 5
REMARK VINA RESULT:      -4.4      4.167      6.882
REMARK  1 active torsions:
REMARK  status: ('A' for Active; 'I' for Inactive)
REMARK    1  A    between atoms: C_1  and  C_3 
ROOT
HETATM    1  N   UNL     1      67.523   1.603   7.627  1.00  0.00    -0.191 NA
HETATM    2  C   UNL     1      66.163   6.257   7.308  1.00  0.00    -0.001 A 
HETATM    3  C   UNL     1      67.384   2.745   7.777  1.00  0.00     0.099 C 
HETATM    4  C   UNL     1      66.364   4.880   7.121  1.00  0.00     0.037 A 
HETATM    5  C   UNL     1      67.211   4.155   7.970  1.00  0.00     0.045 A 
HETATM    6  C   UNL     1      66.850   6.895   8.352  1.00  0.00     0.014 A 
HETATM    7  C   UNL     1      67.700   6.176   9.200  1.00  0.00     0.002 A 
HETATM    8  C   UNL     1      67.877   4.807   9.012  1.00  0.00     0.023 A 
ENDROOT
BRANCH   2   9
HETATM    9  C   UNL     1      65.235   7.004   6.460  1.00  0.00     0.085 A 
HETATM   10  O   UNL     1      63.968   7.169   6.950  1.00  0.00    -0.322 OA
HETATM   11  C   UNL     1      63.277   7.915   6.052  1.00  0.00     0.142 A 
HETATM   12  C   UNL     1      64.073   8.234   4.979  1.00  0.00     0.027 A 
HETATM   13  C   UNL     1      65.335   7.640   5.237  1.00  0.00     0.040 A 
ENDBRANCH   2   9
TORSDOF 1
ENDMDL
MODEL 6
REMARK VINA RESULT:      -4.2      2.695      4.886
REMARK  1 active torsions:
REMARK  status: ('A' for Active; 'I' for Inactive)
REMARK    1  A    between atoms: C_1  and  C_3 
ROOT
HETATM    1  N   UNL     1      62.907   3.567   5.489  1.00  0.00    -0.191 NA
HETATM    2  C   UNL     1      63.520   8.225   4.250  1.00  0.00    -0.001 A 
HETATM    3  C   UNL     1      63.286   4.657   5.370  1.00  0.00     0.099 C 
HETATM    4  C   UNL     1      63.091   6.895   4.381  1.00  0.00     0.037 A 
HETATM    5  C   UNL     1      63.756   6.005   5.233  1.00  0.00     0.045 A 
HETATM    6  C   UNL     1      64.648   8.635   4.977  1.00  0.00     0.014 A 
HETATM    7  C   UNL     1      65.319   7.749   5.828  1.00  0.00     0.002 A 
HETATM    8  C   UNL     1      64.870   6.436   5.959  1.00  0.00     0.023 A 
ENDROOT
BRANCH   2   9
HETATM    9  C   UNL     1      62.793   9.172   3.406  1.00  0.00     0.085 A 
HETATM   10  O   UNL     1      62.459  10.366   3.985  1.00  0.00    -0.322 OA
HETATM   11  C   UNL     1      61.837  11.117   3.043  1.00  0.00     0.142 A 
HETATM   12  C   UNL     1      61.753  10.428   1.858  1.00  0.00     0.027 A 
HETATM   13  C   UNL     1      62.362   9.169   2.092  1.00  0.00     0.040 A 
ENDBRANCH   2   9
TORSDOF 1
ENDMDL
MODEL 7
REMARK VINA RESULT:      -3.8     12.778     13.401
REMARK  1 active torsions:
REMARK  status: ('A' for Active; 'I' for Inactive)
REMARK    1  A    between atoms: C_1  and  C_3 
ROOT
HETATM    1  N   UNL     1      59.474   1.745   9.086  1.00  0.00    -0.191 NA
HETATM    2  C   UNL     1      56.838   2.227  13.139  1.00  0.00    -0.001 A 
HETATM    3  C   UNL     1      59.091   1.764  10.181  1.00  0.00     0.099 C 
HETATM    4  C   UNL     1      57.326   2.226  11.823  1.00  0.00     0.037 A 
HETATM    5  C   UNL     1      58.622   1.779  11.536  1.00  0.00     0.045 A 
HETATM    6  C   UNL     1      57.691   1.791  14.165  1.00  0.00     0.014 A 
HETATM    7  C   UNL     1      58.988   1.347  13.884  1.00  0.00     0.002 A 
HETATM    8  C   UNL     1      59.451   1.337  12.570  1.00  0.00     0.023 A 
ENDROOT
BRANCH   2   9
HETATM    9  C   UNL     1      55.467   2.638  13.435  1.00  0.00     0.085 A 
HETATM   10  O   UNL     1      55.098   3.878  12.989  1.00  0.00    -0.322 OA
HETATM   11  C   UNL     1      53.795   4.059  13.317  1.00  0.00     0.142 A 
HETATM   12  C   UNL     1      53.308   2.958  13.977  1.00  0.00     0.027 A 
HETATM   13  C   UNL     1      54.388   2.043  14.061  1.00  0.00     0.040 A 
ENDBRANCH   2   9
TORSDOF 1
ENDMDL
MODEL 8
REMARK VINA RESULT:      -3.7      3.099      5.382
REMARK  1 active torsions:
REMARK  status: ('A' for Active; 'I' for Inactive)
REMARK    1  A    between atoms: C_1  and  C_3 
ROOT
HETATM    1  N   UNL     1      65.947   3.909   5.031  1.00  0.00    -0.191 NA
HETATM    2  C   UNL     1      63.467   7.811   3.536  1.00  0.00    -0.001 A 
HETATM    3  C   UNL     1      65.502   4.972   4.892  1.00  0.00     0.099 C 
HETATM    4  C   UNL     1      64.037   6.538   3.698  1.00  0.00     0.037 A 
HETATM    5  C   UNL     1      64.950   6.285   4.730  1.00  0.00     0.045 A 
HETATM    6  C   UNL     1      63.853   8.831   4.419  1.00  0.00     0.014 A 
HETATM    7  C   UNL     1      64.768   8.584   5.449  1.00  0.00     0.002 A 
HETATM    8  C   UNL     1      65.312   7.311   5.607  1.00  0.00     0.023 A 
ENDROOT
BRANCH   2   9
HETATM    9  C   UNL     1      62.470   8.063   2.497  1.00  0.00     0.085 A 
HETATM   10  O   UNL     1      61.718   6.989   2.107  1.00  0.00    -0.322 OA
HETATM   11  C   UNL     1      60.832   7.426   1.178  1.00  0.00     0.142 A 
HETATM   12  C   UNL     1      61.000   8.770   0.950  1.00  0.00     0.027 A 
HETATM   13  C   UNL     1      62.062   9.181   1.793  1.00  0.00     0.040 A 
ENDBRANCH   2   9
TORSDOF 1
ENDMDL
MODEL 9
REMARK VINA RESULT:      -3.6      1.838      2.420
REMARK  1 active torsions:
REMARK  status: ('A' for Active; 'I' for Inactive)
REMARK    1  A    between atoms: C_1  and  C_3 
ROOT
HETATM    1  N   UNL     1      60.401   8.088   2.672  1.00  0.00    -0.191 NA
HETATM    2  C   UNL     1      64.838   7.299   4.488  1.00  0.00    -0.001 A 
HETATM    3  C   UNL     1      61.415   8.162   3.229  1.00  0.00     0.099 C 
HETATM    4  C   UNL     1      63.594   7.212   3.843  1.00  0.00     0.037 A 
HETATM    5  C   UNL     1      62.670   8.262   3.916  1.00  0.00     0.045 A 
HETATM    6  C   UNL     1      65.124   8.457   5.228  1.00  0.00     0.014 A 
HETATM    7  C   UNL     1      64.203   9.507   5.307  1.00  0.00     0.002 A 
HETATM    8  C   UNL     1      62.979   9.411   4.648  1.00  0.00     0.023 A 
ENDROOT
BRANCH   2   9
HETATM    9  C   UNL     1      65.827   6.230   4.365  1.00  0.00     0.085 A 
HETATM   10  O   UNL     1      66.298   5.705   5.538  1.00  0.00    -0.322 OA
HETATM   11  C   UNL     1      67.162   4.709   5.221  1.00  0.00     0.142 A 
HETATM   12  C   UNL     1      67.268   4.580   3.858  1.00  0.00     0.027 A 
HETATM   13  C   UNL     1      66.414   5.566   3.304  1.00  0.00     0.040 A 
ENDBRANCH   2   9
TORSDOF 1
ENDMDL
