MODEL 1
REMARK VINA RESULT:      -5.4      0.000      0.000
REMARK  3 active torsions:
REMARK  status: ('A' for Active; 'I' for Inactive)
REMARK    1  A    between atoms: C_4  and  C_8 
REMARK    2  A    between atoms: C_6  and  C_7 
REMARK    3  A    between atoms: C_8  and  N_10 
ROOT
HETATM    1  N   UNL     1      63.539   6.960   5.551  1.00  0.00    -0.298 N 
ATOM      2  HN  UNL     1      62.597   6.602   5.392  1.00  0.00     0.187 HD
HETATM    3  N   UNL     1      64.557   6.338   6.175  1.00  0.00    -0.299 N 
HETATM    4  C   UNL     1      65.703   7.086   6.222  1.00  0.00     0.056 A 
HETATM    5  C   UNL     1      65.381   8.276   5.604  1.00  0.00     0.060 A 
HETATM    6  C   UNL     1      64.032   8.151   5.183  1.00  0.00     0.060 A 
HETATM    7  C   UNL     1      64.341   4.989   6.642  1.00  0.00     0.177 C 
ENDROOT
BRANCH   6   8
HETATM    8  C   UNL     1      63.234   9.118   4.427  1.00  0.00    -0.008 A 
HETATM    9  C   UNL     1      62.817   8.821   3.120  1.00  0.00     0.014 A 
HETATM   10  C   UNL     1      62.078   9.745   2.379  1.00  0.00     0.001 A 
HETATM   11  C   UNL     1      61.740  10.975   2.939  1.00  0.00     0.000 A 
HETATM   12  C   UNL     1      62.139  11.280   4.239  1.00  0.00     0.001 A 
HETATM   13  C   UNL     1      62.885  10.357   4.980  1.00  0.00     0.014 A 
ENDBRANCH   6   8
BRANCH   4  14
HETATM   14  C   UNL     1      66.995   6.630   6.796  1.00  0.00     0.290 C 
BRANCH  14  15
HETATM   15  N   UNL     1      67.284   7.245   8.092  1.00  0.00    -0.074 N 
HETATM   16  C   UNL     1      66.715   6.496   9.209  1.00  0.00     0.267 C 
HETATM   17  H   UNL     1      66.896   8.187   8.099  1.00  0.00     0.277 HD
HETATM   18  H   UNL     1      68.297   7.253   8.211  1.00  0.00     0.277 HD
ENDBRANCH  14  15
ENDBRANCH   4  14
TORSDOF 3
ENDMDL
MODEL 2
REMARK VINA RESULT:      -5.1      1.569      2.275
REMARK  3 active torsions:
REMARK  status: ('A' for Active; 'I' for Inactive)
REMARK    1  A    between atoms: C_4  and  C_8 
REMARK    2  A    between atoms: C_6  and  C_7 
REMARK    3  A    between atoms: C_8  and  N_10 
ROOT
HETATM    1  N   UNL     1      64.659   7.731   6.569  1.00  0.00    -0.298 N 
ATOM      2  HN  UNL     1      63.941   8.011   7.236  1.00  0.00     0.187 HD
HETATM    3  N   UNL     1      65.716   6.927   6.791  1.00  0.00    -0.299 N 
HETATM    4  C   UNL     1      66.498   6.740   5.683  1.00  0.00     0.056 A 
HETATM    5  C   UNL     1      65.908   7.498   4.693  1.00  0.00     0.060 A 
HETATM    6  C   UNL     1      64.755   8.083   5.278  1.00  0.00     0.060 A 
HETATM    7  C   UNL     1      65.852   6.336   8.102  1.00  0.00     0.177 C 
ENDROOT
BRANCH   6   8
HETATM    8  C   UNL     1      63.752   8.931   4.632  1.00  0.00    -0.008 A 
HETATM    9  C   UNL     1      63.371  10.148   5.220  1.00  0.00     0.014 A 
HETATM   10  C   UNL     1      62.397  10.953   4.627  1.00  0.00     0.001 A 
HETATM   11  C   UNL     1      61.795  10.554   3.436  1.00  0.00     0.000 A 
HETATM   12  C   UNL     1      62.169   9.352   2.837  1.00  0.00     0.001 A 
HETATM   13  C   UNL     1      63.141   8.543   3.432  1.00  0.00     0.014 A 
ENDBRANCH   6   8
BRANCH   4  14
HETATM   14  C   UNL     1      67.692   5.859   5.622  1.00  0.00     0.290 C 
BRANCH  14  15
HETATM   15  N   UNL     1      67.383   4.528   5.099  1.00  0.00    -0.074 N 
HETATM   16  C   UNL     1      67.448   3.491   6.125  1.00  0.00     0.267 C 
HETATM   17  H   UNL     1      68.053   4.303   4.364  1.00  0.00     0.277 HD
HETATM   18  H   UNL     1      66.427   4.549   4.743  1.00  0.00     0.277 HD
ENDBRANCH  14  15
ENDBRANCH   4  14
TORSDOF 3
ENDMDL
MODEL 3
REMARK VINA RESULT:      -5.1      2.110      6.010
REMARK  3 active torsions:
REMARK  status: ('A' for Active; 'I' for Inactive)
REMARK    1  A    between atoms: C_4  and  C_8 
REMARK    2  A    between atoms: C_6  and  C_7 
REMARK    3  A    between atoms: C_8  and  N_10 
ROOT
HETATM    1  N   UNL     1      64.290   9.464   5.628  1.00  0.00    -0.298 N 
ATOM      2  HN  UNL     1      64.903   9.807   6.367  1.00  0.00     0.187 HD
HETATM    3  N   UNL     1      63.171  10.046   5.156  1.00  0.00    -0.299 N 
HETATM    4  C   UNL     1      62.571   9.332   4.153  1.00  0.00     0.056 A 
HETATM    5  C   UNL     1      63.352   8.207   3.994  1.00  0.00     0.060 A 
HETATM    6  C   UNL     1      64.423   8.335   4.917  1.00  0.00     0.060 A 
HETATM    7  C   UNL     1      62.795  11.329   5.700  1.00  0.00     0.177 C 
ENDROOT
BRANCH   6   8
HETATM    8  C   UNL     1      65.559   7.432   5.105  1.00  0.00    -0.008 A 
HETATM    9  C   UNL     1      65.991   6.612   4.052  1.00  0.00     0.014 A 
HETATM   10  C   UNL     1      67.057   5.728   4.227  1.00  0.00     0.001 A 
HETATM   11  C   UNL     1      67.708   5.657   5.456  1.00  0.00     0.000 A 
HETATM   12  C   UNL     1      67.295   6.472   6.509  1.00  0.00     0.001 A 
HETATM   13  C   UNL     1      66.224   7.354   6.336  1.00  0.00     0.014 A 
ENDBRANCH   6   8
BRANCH   4  14
HETATM   14  C   UNL     1      61.360   9.763   3.409  1.00  0.00     0.290 C 
BRANCH  14  15
HETATM   15  N   UNL     1      61.674  10.305   2.087  1.00  0.00    -0.074 N 
HETATM   16  C   UNL     1      61.786  11.761   2.089  1.00  0.00     0.267 C 
HETATM   17  H   UNL     1      60.934  10.036   1.440  1.00  0.00     0.277 HD
HETATM   18  H   UNL     1      62.578   9.927   1.804  1.00  0.00     0.277 HD
ENDBRANCH  14  15
ENDBRANCH   4  14
TORSDOF 3
ENDMDL
MODEL 4
REMARK VINA RESULT:      -4.9      1.277      2.243
REMARK  3 active torsions:
REMARK  status: ('A' for Active; 'I' for Inactive)
REMARK    1  A    between atoms: C_4  and  C_8 
REMARK    2  A    between atoms: C_6  and  C_7 
REMARK    3  A    between atoms: C_8  and  N_10 
ROOT
HETATM    1  N   UNL     1      65.122   8.513   5.777  1.00  0.00    -0.298 N 
ATOM      2  HN  UNL     1      65.614   9.405   5.747  1.00  0.00     0.187 HD
HETATM    3  N   UNL     1      65.509   7.385   6.403  1.00  0.00    -0.299 N 
HETATM    4  C   UNL     1      64.621   6.352   6.258  1.00  0.00     0.056 A 
HETATM    5  C   UNL     1      63.612   6.854   5.464  1.00  0.00     0.060 A 
HETATM    6  C   UNL     1      63.950   8.207   5.202  1.00  0.00     0.060 A 
HETATM    7  C   UNL     1      66.731   7.423   7.171  1.00  0.00     0.177 C 
ENDROOT
BRANCH   6   8
HETATM    8  C   UNL     1      63.175   9.198   4.453  1.00  0.00    -0.008 A 
HETATM    9  C   UNL     1      62.752   8.920   3.144  1.00  0.00     0.014 A 
HETATM   10  C   UNL     1      62.035   9.866   2.410  1.00  0.00     0.001 A 
HETATM   11  C   UNL     1      61.728  11.101   2.978  1.00  0.00     0.000 A 
HETATM   12  C   UNL     1      62.135  11.388   4.279  1.00  0.00     0.001 A 
HETATM   13  C   UNL     1      62.857  10.442   5.014  1.00  0.00     0.014 A 
ENDBRANCH   6   8
BRANCH   4  14
HETATM   14  C   UNL     1      64.762   5.014   6.887  1.00  0.00     0.290 C 
BRANCH  14  15
HETATM   15  N   UNL     1      65.035   3.958   5.911  1.00  0.00    -0.074 N 
HETATM   16  C   UNL     1      66.344   4.101   5.281  1.00  0.00     0.267 C 
HETATM   17  H   UNL     1      64.318   3.990   5.187  1.00  0.00     0.277 HD
HETATM   18  H   UNL     1      65.028   3.068   6.409  1.00  0.00     0.277 HD
ENDBRANCH  14  15
ENDBRANCH   4  14
TORSDOF 3
ENDMDL
MODEL 5
REMARK VINA RESULT:      -4.6      2.242      6.065
REMARK  3 active torsions:
REMARK  status: ('A' for Active; 'I' for Inactive)
REMARK    1  A    between atoms: C_4  and  C_8 
REMARK    2  A    between atoms: C_6  and  C_7 
REMARK    3  A    between atoms: C_8  and  N_10 
ROOT
HETATM    1  N   UNL     1      64.128   7.088   3.178  1.00  0.00    -0.298 N 
ATOM      2  HN  UNL     1      64.554   6.303   2.686  1.00  0.00     0.187 HD
HETATM    3  N   UNL     1      63.066   7.820   2.789  1.00  0.00    -0.299 N 
HETATM    4  C   UNL     1      62.735   8.809   3.677  1.00  0.00     0.056 A 
HETATM    5  C   UNL     1      63.666   8.712   4.689  1.00  0.00     0.060 A 
HETATM    6  C   UNL     1      64.504   7.617   4.352  1.00  0.00     0.060 A 
HETATM    7  C   UNL     1      62.399   7.445   1.565  1.00  0.00     0.177 C 
ENDROOT
BRANCH   6   8
HETATM    8  C   UNL     1      65.614   7.062   5.128  1.00  0.00    -0.008 A 
HETATM    9  C   UNL     1      65.841   7.495   6.444  1.00  0.00     0.014 A 
HETATM   10  C   UNL     1      66.911   6.993   7.186  1.00  0.00     0.001 A 
HETATM   11  C   UNL     1      67.765   6.048   6.623  1.00  0.00     0.000 A 
HETATM   12  C   UNL     1      67.548   5.602   5.321  1.00  0.00     0.001 A 
HETATM   13  C   UNL     1      66.479   6.108   4.575  1.00  0.00     0.014 A 
ENDBRANCH   6   8
BRANCH   4  14
HETATM   14  C   UNL     1      61.576   9.727   3.534  1.00  0.00     0.290 C 
BRANCH  14  15
HETATM   15  N   UNL     1      61.979  11.127   3.407  1.00  0.00    -0.074 N 
HETATM   16  C   UNL     1      61.797  11.644   2.053  1.00  0.00     0.267 C 
HETATM   17  H   UNL     1      62.964  11.207   3.658  1.00  0.00     0.277 HD
HETATM   18  H   UNL     1      61.386  11.678   4.028  1.00  0.00     0.277 HD
ENDBRANCH  14  15
ENDBRANCH   4  14
TORSDOF 3
ENDMDL
MODEL 6
REMARK VINA RESULT:      -4.5      2.106      3.784
REMARK  3 active torsions:
REMARK  status: ('A' for Active; 'I' for Inactive)
REMARK    1  A    between atoms: C_4  and  C_8 
REMARK    2  A    between atoms: C_6  and  C_7 
REMARK    3  A    between atoms: C_8  and  N_10 
ROOT
HETATM    1  N   UNL     1      63.764   7.702   4.997  1.00  0.00    -0.298 N 
ATOM      2  HN  UNL     1      64.629   8.222   4.851  1.00  0.00     0.187 HD
HETATM    3  N   UNL     1      63.585   6.607   5.759  1.00  0.00    -0.299 N 
HETATM    4  C   UNL     1      62.296   6.144   5.751  1.00  0.00     0.056 A 
HETATM    5  C   UNL     1      61.615   6.992   4.904  1.00  0.00     0.060 A 
HETATM    6  C   UNL     1      62.558   7.961   4.470  1.00  0.00     0.060 A 
HETATM    7  C   UNL     1      64.716   6.114   6.510  1.00  0.00     0.177 C 
ENDROOT
BRANCH   6   8
HETATM    8  C   UNL     1      62.325   9.118   3.605  1.00  0.00    -0.008 A 
HETATM    9  C   UNL     1      62.139  10.392   4.164  1.00  0.00     0.014 A 
HETATM   10  C   UNL     1      61.890  11.499   3.351  1.00  0.00     0.001 A 
HETATM   11  C   UNL     1      61.829  11.346   1.968  1.00  0.00     0.000 A 
HETATM   12  C   UNL     1      62.020  10.089   1.398  1.00  0.00     0.001 A 
HETATM   13  C   UNL     1      62.264   8.978   2.212  1.00  0.00     0.014 A 
ENDBRANCH   6   8
BRANCH   4  14
HETATM   14  C   UNL     1      61.801   4.990   6.544  1.00  0.00     0.290 C 
BRANCH  14  15
HETATM   15  N   UNL     1      61.137   3.982   5.718  1.00  0.00    -0.074 N 
HETATM   16  C   UNL     1      59.754   3.745   6.123  1.00  0.00     0.267 C 
HETATM   17  H   UNL     1      61.654   3.107   5.793  1.00  0.00     0.277 HD
HETATM   18  H   UNL     1      61.121   4.329   4.759  1.00  0.00     0.277 HD
ENDBRANCH  14  15
ENDBRANCH   4  14
TORSDOF 3
ENDMDL
MODEL 7
REMARK VINA RESULT:      -4.5      2.038      2.223
REMARK  3 active torsions:
REMARK  status: ('A' for Active; 'I' for Inactive)
REMARK    1  A    between atoms: C_4  and  C_8 
REMARK    2  A    between atoms: C_6  and  C_7 
REMARK    3  A    between atoms: C_8  and  N_10 
ROOT
HETATM    1  N   UNL     1      63.080   7.066   5.150  1.00  0.00    -0.298 N 
ATOM      2  HN  UNL     1      62.372   7.406   5.800  1.00  0.00     0.187 HD
HETATM    3  N   UNL     1      63.829   5.952   5.265  1.00  0.00    -0.299 N 
HETATM    4  C   UNL     1      64.692   5.769   4.218  1.00  0.00     0.056 A 
HETATM    5  C   UNL     1      64.492   6.855   3.392  1.00  0.00     0.060 A 
HETATM    6  C   UNL     1      63.468   7.629   3.996  1.00  0.00     0.060 A 
HETATM    7  C   UNL     1      63.593   5.093   6.401  1.00  0.00     0.177 C 
ENDROOT
BRANCH   6   8
HETATM    8  C   UNL     1      62.848   8.853   3.487  1.00  0.00    -0.008 A 
HETATM    9  C   UNL     1      62.513   8.963   2.129  1.00  0.00     0.014 A 
HETATM   10  C   UNL     1      61.945  10.134   1.626  1.00  0.00     0.001 A 
HETATM   11  C   UNL     1      61.700  11.210   2.478  1.00  0.00     0.000 A 
HETATM   12  C   UNL     1      62.020  11.112   3.830  1.00  0.00     0.001 A 
HETATM   13  C   UNL     1      62.593   9.940   4.334  1.00  0.00     0.014 A 
ENDBRANCH   6   8
BRANCH   4  14
HETATM   14  C   UNL     1      65.593   4.600   4.052  1.00  0.00     0.290 C 
BRANCH  14  15
HETATM   15  N   UNL     1      67.008   4.969   4.096  1.00  0.00    -0.074 N 
HETATM   16  C   UNL     1      67.463   5.297   5.444  1.00  0.00     0.267 C 
HETATM   17  H   UNL     1      67.152   5.780   3.495  1.00  0.00     0.277 HD
HETATM   18  H   UNL     1      67.548   4.163   3.777  1.00  0.00     0.277 HD
ENDBRANCH  14  15
ENDBRANCH   4  14
TORSDOF 3
ENDMDL
MODEL 8
REMARK VINA RESULT:      -4.3      1.738      2.322
REMARK  3 active torsions:
REMARK  status: ('A' for Active; 'I' for Inactive)
REMARK    1  A    between atoms: C_4  and  C_8 
REMARK    2  A    between atoms: C_6  and  C_7 
REMARK    3  A    between atoms: C_8  and  N_10 
ROOT
HETATM    1  N   UNL     1      65.591   7.408   4.903  1.00  0.00    -0.298 N 
ATOM      2  HN  UNL     1      65.906   7.708   3.981  1.00  0.00     0.187 HD
HETATM    3  N   UNL     1      66.353   7.014   5.941  1.00  0.00    -0.299 N 
HETATM    4  C   UNL     1      65.625   6.675   7.051  1.00  0.00     0.056 A 
HETATM    5  C   UNL     1      64.307   6.844   6.682  1.00  0.00     0.060 A 
HETATM    6  C   UNL     1      64.328   7.320   5.345  1.00  0.00     0.060 A 
HETATM    7  C   UNL     1      67.787   7.057   5.781  1.00  0.00     0.177 C 
ENDROOT
BRANCH   6   8
HETATM    8  C   UNL     1      63.189   7.710   4.512  1.00  0.00    -0.008 A 
HETATM    9  C   UNL     1      62.102   6.837   4.350  1.00  0.00     0.014 A 
HETATM   10  C   UNL     1      61.021   7.186   3.538  1.00  0.00     0.001 A 
HETATM   11  C   UNL     1      61.012   8.415   2.882  1.00  0.00     0.000 A 
HETATM   12  C   UNL     1      62.081   9.295   3.040  1.00  0.00     0.001 A 
HETATM   13  C   UNL     1      63.166   8.944   3.850  1.00  0.00     0.014 A 
ENDBRANCH   6   8
BRANCH   4  14
HETATM   14  C   UNL     1      66.204   6.263   8.355  1.00  0.00     0.290 C 
BRANCH  14  15
HETATM   15  N   UNL     1      66.192   4.812   8.543  1.00  0.00    -0.074 N 
HETATM   16  C   UNL     1      67.534   4.241   8.597  1.00  0.00     0.267 C 
HETATM   17  H   UNL     1      65.687   4.387   7.766  1.00  0.00     0.277 HD
HETATM   18  H   UNL     1      65.739   4.620   9.437  1.00  0.00     0.277 HD
ENDBRANCH  14  15
ENDBRANCH   4  14
TORSDOF 3
ENDMDL
MODEL 9
REMARK VINA RESULT:      -4.2      2.736      6.115
REMARK  3 active torsions:
REMARK  status: ('A' for Active; 'I' for Inactive)
REMARK    1  A    between atoms: C_4  and  C_8 
REMARK    2  A    between atoms: C_6  and  C_7 
REMARK    3  A    between atoms: C_8  and  N_10 
ROOT
HETATM    1  N   UNL     1      63.016   8.758   3.417  1.00  0.00    -0.298 N 
ATOM      2  HN  UNL     1      63.810   9.342   3.155  1.00  0.00     0.187 HD
HETATM    3  N   UNL     1      61.819   8.680   2.805  1.00  0.00    -0.299 N 
HETATM    4  C   UNL     1      60.961   7.794   3.401  1.00  0.00     0.056 A 
HETATM    5  C   UNL     1      61.656   7.292   4.481  1.00  0.00     0.060 A 
HETATM    6  C   UNL     1      62.938   7.901   4.446  1.00  0.00     0.060 A 
HETATM    7  C   UNL     1      61.619   9.463   1.608  1.00  0.00     0.177 C 
ENDROOT
BRANCH   6   8
HETATM    8  C   UNL     1      64.071   7.663   5.341  1.00  0.00    -0.008 A 
HETATM    9  C   UNL     1      65.266   8.381   5.174  1.00  0.00     0.014 A 
HETATM   10  C   UNL     1      66.362   8.145   6.004  1.00  0.00     0.001 A 
HETATM   11  C   UNL     1      66.276   7.190   7.015  1.00  0.00     0.000 A 
HETATM   12  C   UNL     1      65.094   6.475   7.198  1.00  0.00     0.001 A 
HETATM   13  C   UNL     1      63.997   6.708   6.363  1.00  0.00     0.014 A 
ENDBRANCH   6   8
BRANCH   4  14
HETATM   14  C   UNL     1      59.601   7.464   2.907  1.00  0.00     0.290 C 
BRANCH  14  15
HETATM   15  N   UNL     1      58.546   8.129   3.673  1.00  0.00    -0.074 N 
HETATM   16  C   UNL     1      57.761   7.196   4.477  1.00  0.00     0.267 C 
HETATM   17  H   UNL     1      57.922   8.606   3.024  1.00  0.00     0.277 HD
HETATM   18  H   UNL     1      58.996   8.784   4.314  1.00  0.00     0.277 HD
ENDBRANCH  14  15
ENDBRANCH   4  14
TORSDOF 3
ENDMDL
