MODEL 1
REMARK VINA RESULT:      -5.4      0.000      0.000
REMARK  3 active torsions:
REMARK  status: ('A' for Active; 'I' for Inactive)
REMARK    1  A    between atoms: C_1  and  C_2 
REMARK    2  A    between atoms: C_7  and  C_9 
REMARK    3  A    between atoms: N_8  and  C_9 
ROOT
HETATM    1  C   UNL     1      62.872   9.266   4.075  1.00  0.00     0.006 A 
HETATM    2  C   UNL     1      62.478  10.582   4.414  1.00  0.00    -0.020 A 
HETATM    3  C   UNL     1      62.661   8.830   2.749  1.00  0.00     0.015 A 
HETATM    4  C   UNL     1      61.919  11.412   3.415  1.00  0.00     0.010 A 
HETATM    5  C   UNL     1      62.095   9.659   1.781  1.00  0.00     0.001 A 
HETATM    6  C   UNL     1      61.726  10.954   2.113  1.00  0.00     0.001 A 
ENDROOT
BRANCH   1   7
HETATM    7  C   UNL     1      63.497   8.331   5.017  1.00  0.00     0.085 A 
HETATM    8  O   UNL     1      64.857   8.452   5.156  1.00  0.00    -0.322 OA
HETATM    9  C   UNL     1      65.264   7.533   6.067  1.00  0.00     0.142 A 
HETATM   10  C   UNL     1      64.194   6.812   6.532  1.00  0.00     0.027 A 
HETATM   11  C   UNL     1      63.059   7.325   5.861  1.00  0.00     0.040 A 
ENDBRANCH   1   7
BRANCH   2  12
HETATM   12  C   UNL     1      62.626  11.177   5.793  1.00  0.00     0.269 C 
BRANCH  12  13
HETATM   13  N   UNL     1      64.028  11.329   6.159  1.00  0.00    -0.075 N 
HETATM   14  H   UNL     1      64.193  12.281   6.486  1.00  0.00     0.274 HD
HETATM   15  H   UNL     1      64.614  11.143   5.346  1.00  0.00     0.274 HD
HETATM   16  H   UNL     1      64.259  10.669   6.902  1.00  0.00     0.274 HD
ENDBRANCH  12  13
ENDBRANCH   2  12
TORSDOF 3
ENDMDL
MODEL 2
REMARK VINA RESULT:      -4.9      1.992      2.781
REMARK  3 active torsions:
REMARK  status: ('A' for Active; 'I' for Inactive)
REMARK    1  A    between atoms: C_1  and  C_2 
REMARK    2  A    between atoms: C_7  and  C_9 
REMARK    3  A    between atoms: N_8  and  C_9 
ROOT
HETATM    1  C   UNL     1      63.537   9.117   4.751  1.00  0.00     0.006 A 
HETATM    2  C   UNL     1      63.034   8.728   3.486  1.00  0.00    -0.020 A 
HETATM    3  C   UNL     1      63.166  10.383   5.252  1.00  0.00     0.015 A 
HETATM    4  C   UNL     1      62.165   9.601   2.793  1.00  0.00     0.010 A 
HETATM    5  C   UNL     1      62.317  11.237   4.546  1.00  0.00     0.001 A 
HETATM    6  C   UNL     1      61.813  10.844   3.316  1.00  0.00     0.001 A 
ENDROOT
BRANCH   1   7
HETATM    7  C   UNL     1      64.413   8.278   5.576  1.00  0.00     0.085 A 
HETATM    8  O   UNL     1      65.666   8.785   5.813  1.00  0.00    -0.322 OA
HETATM    9  C   UNL     1      66.330   7.900   6.597  1.00  0.00     0.142 A 
HETATM   10  C   UNL     1      65.534   6.819   6.881  1.00  0.00     0.027 A 
HETATM   11  C   UNL     1      64.303   7.062   6.228  1.00  0.00     0.040 A 
ENDBRANCH   1   7
BRANCH   2  12
HETATM   12  C   UNL     1      63.359   7.414   2.818  1.00  0.00     0.269 C 
BRANCH  12  13
HETATM   13  N   UNL     1      62.670   7.282   1.541  1.00  0.00    -0.075 N 
HETATM   14  H   UNL     1      61.727   7.662   1.623  1.00  0.00     0.274 HD
HETATM   15  H   UNL     1      62.618   6.297   1.283  1.00  0.00     0.274 HD
HETATM   16  H   UNL     1      63.182   7.795   0.823  1.00  0.00     0.274 HD
ENDBRANCH  12  13
ENDBRANCH   2  12
TORSDOF 3
ENDMDL
MODEL 3
REMARK VINA RESULT:      -4.8      1.573      1.755
REMARK  3 active torsions:
REMARK  status: ('A' for Active; 'I' for Inactive)
REMARK    1  A    between atoms: C_1  and  C_2 
REMARK    2  A    between atoms: C_7  and  C_9 
REMARK    3  A    between atoms: N_8  and  C_9 
ROOT
HETATM    1  C   UNL     1      62.833   8.690   3.283  1.00  0.00     0.006 A 
HETATM    2  C   UNL     1      62.628   9.841   4.082  1.00  0.00    -0.020 A 
HETATM    3  C   UNL     1      62.448   8.746   1.926  1.00  0.00     0.015 A 
HETATM    4  C   UNL     1      62.077  11.000   3.489  1.00  0.00     0.010 A 
HETATM    5  C   UNL     1      61.894   9.896   1.363  1.00  0.00     0.001 A 
HETATM    6  C   UNL     1      61.711  11.026   2.145  1.00  0.00     0.001 A 
ENDROOT
BRANCH   1   7
HETATM    7  C   UNL     1      63.431   7.446   3.780  1.00  0.00     0.085 A 
HETATM    8  O   UNL     1      62.560   6.566   4.372  1.00  0.00    -0.322 OA
HETATM    9  C   UNL     1      63.269   5.475   4.754  1.00  0.00     0.142 A 
HETATM   10  C   UNL     1      64.592   5.622   4.422  1.00  0.00     0.027 A 
HETATM   11  C   UNL     1      64.696   6.885   3.795  1.00  0.00     0.040 A 
ENDBRANCH   1   7
BRANCH   2  12
HETATM   12  C   UNL     1      62.973   9.920   5.549  1.00  0.00     0.269 C 
BRANCH  12  13
HETATM   13  N   UNL     1      63.323  11.280   5.940  1.00  0.00    -0.075 N 
HETATM   14  H   UNL     1      62.498  11.749   6.313  1.00  0.00     0.274 HD
HETATM   15  H   UNL     1      63.665  11.791   5.126  1.00  0.00     0.274 HD
HETATM   16  H   UNL     1      64.051  11.252   6.653  1.00  0.00     0.274 HD
ENDBRANCH  12  13
ENDBRANCH   2  12
TORSDOF 3
ENDMDL
MODEL 4
REMARK VINA RESULT:      -4.8      2.160      3.001
REMARK  3 active torsions:
REMARK  status: ('A' for Active; 'I' for Inactive)
REMARK    1  A    between atoms: C_1  and  C_2 
REMARK    2  A    between atoms: C_7  and  C_9 
REMARK    3  A    between atoms: N_8  and  C_9 
ROOT
HETATM    1  C   UNL     1      62.564   9.214   3.833  1.00  0.00     0.006 A 
HETATM    2  C   UNL     1      62.425   8.924   2.454  1.00  0.00    -0.020 A 
HETATM    3  C   UNL     1      62.306  10.533   4.263  1.00  0.00     0.015 A 
HETATM    4  C   UNL     1      62.010   9.949   1.574  1.00  0.00     0.010 A 
HETATM    5  C   UNL     1      61.910  11.535   3.376  1.00  0.00     0.001 A 
HETATM    6  C   UNL     1      61.758  11.242   2.029  1.00  0.00     0.001 A 
ENDROOT
BRANCH   1   7
HETATM    7  C   UNL     1      62.950   8.222   4.842  1.00  0.00     0.085 A 
HETATM    8  O   UNL     1      61.947   7.388   5.266  1.00  0.00    -0.322 OA
HETATM    9  C   UNL     1      62.476   6.532   6.176  1.00  0.00     0.142 A 
HETATM   10  C   UNL     1      63.812   6.790   6.357  1.00  0.00     0.027 A 
HETATM   11  C   UNL     1      64.117   7.872   5.500  1.00  0.00     0.040 A 
ENDBRANCH   1   7
BRANCH   2  12
HETATM   12  C   UNL     1      62.684   7.566   1.849  1.00  0.00     0.269 C 
BRANCH  12  13
HETATM   13  N   UNL     1      61.587   6.645   2.119  1.00  0.00    -0.075 N 
HETATM   14  H   UNL     1      60.959   7.058   2.810  1.00  0.00     0.274 HD
HETATM   15  H   UNL     1      61.960   5.768   2.481  1.00  0.00     0.274 HD
HETATM   16  H   UNL     1      61.073   6.466   1.257  1.00  0.00     0.274 HD
ENDBRANCH  12  13
ENDBRANCH   2  12
TORSDOF 3
ENDMDL
MODEL 5
REMARK VINA RESULT:      -4.6      2.009      2.613
REMARK  3 active torsions:
REMARK  status: ('A' for Active; 'I' for Inactive)
REMARK    1  A    between atoms: C_1  and  C_2 
REMARK    2  A    between atoms: C_7  and  C_9 
REMARK    3  A    between atoms: N_8  and  C_9 
ROOT
HETATM    1  C   UNL     1      62.551   8.738   2.882  1.00  0.00     0.006 A 
HETATM    2  C   UNL     1      62.555   9.375   4.146  1.00  0.00    -0.020 A 
HETATM    3  C   UNL     1      62.179   9.502   1.754  1.00  0.00     0.015 A 
HETATM    4  C   UNL     1      62.218  10.745   4.227  1.00  0.00     0.010 A 
HETATM    5  C   UNL     1      61.837  10.851   1.857  1.00  0.00     0.001 A 
HETATM    6  C   UNL     1      61.859  11.475   3.095  1.00  0.00     0.001 A 
ENDROOT
BRANCH   1   7
HETATM    7  C   UNL     1      62.920   7.334   2.672  1.00  0.00     0.085 A 
HETATM    8  O   UNL     1      64.220   7.013   2.970  1.00  0.00    -0.322 OA
HETATM    9  C   UNL     1      64.383   5.686   2.738  1.00  0.00     0.142 A 
HETATM   10  C   UNL     1      63.211   5.130   2.293  1.00  0.00     0.027 A 
HETATM   11  C   UNL     1      62.271   6.185   2.253  1.00  0.00     0.040 A 
ENDBRANCH   1   7
BRANCH   2  12
HETATM   12  C   UNL     1      62.912   8.681   5.437  1.00  0.00     0.269 C 
BRANCH  12  13
HETATM   13  N   UNL     1      64.351   8.690   5.666  1.00  0.00    -0.075 N 
HETATM   14  H   UNL     1      64.711   7.737   5.605  1.00  0.00     0.274 HD
HETATM   15  H   UNL     1      64.546   9.067   6.592  1.00  0.00     0.274 HD
HETATM   16  H   UNL     1      64.804   9.270   4.960  1.00  0.00     0.274 HD
ENDBRANCH  12  13
ENDBRANCH   2  12
TORSDOF 3
ENDMDL
MODEL 6
REMARK VINA RESULT:      -4.3      2.191      4.816
REMARK  3 active torsions:
REMARK  status: ('A' for Active; 'I' for Inactive)
REMARK    1  A    between atoms: C_1  and  C_2 
REMARK    2  A    between atoms: C_7  and  C_9 
REMARK    3  A    between atoms: N_8  and  C_9 
ROOT
HETATM    1  C   UNL     1      63.316   8.426   4.644  1.00  0.00     0.006 A 
HETATM    2  C   UNL     1      62.647   7.289   5.156  1.00  0.00    -0.020 A 
HETATM    3  C   UNL     1      64.649   8.651   5.051  1.00  0.00     0.015 A 
HETATM    4  C   UNL     1      63.340   6.415   6.024  1.00  0.00     0.010 A 
HETATM    5  C   UNL     1      65.313   7.783   5.919  1.00  0.00     0.001 A 
HETATM    6  C   UNL     1      64.658   6.661   6.404  1.00  0.00     0.001 A 
ENDROOT
BRANCH   1   7
HETATM    7  C   UNL     1      62.710   9.380   3.708  1.00  0.00     0.085 A 
HETATM    8  O   UNL     1      62.609   8.950   2.409  1.00  0.00    -0.322 OA
HETATM    9  C   UNL     1      62.018   9.937   1.691  1.00  0.00     0.142 A 
HETATM   10  C   UNL     1      61.727  11.009   2.497  1.00  0.00     0.027 A 
HETATM   11  C   UNL     1      62.169  10.651   3.792  1.00  0.00     0.040 A 
ENDBRANCH   1   7
BRANCH   2  12
HETATM   12  C   UNL     1      61.219   6.933   4.825  1.00  0.00     0.269 C 
BRANCH  12  13
HETATM   13  N   UNL     1      61.113   6.336   3.499  1.00  0.00    -0.075 N 
HETATM   14  H   UNL     1      61.996   5.884   3.259  1.00  0.00     0.274 HD
HETATM   15  H   UNL     1      60.907   7.062   2.814  1.00  0.00     0.274 HD
HETATM   16  H   UNL     1      60.365   5.643   3.496  1.00  0.00     0.274 HD
ENDBRANCH  12  13
ENDBRANCH   2  12
TORSDOF 3
ENDMDL
MODEL 7
REMARK VINA RESULT:      -4.3      1.884      4.451
REMARK  3 active torsions:
REMARK  status: ('A' for Active; 'I' for Inactive)
REMARK    1  A    between atoms: C_1  and  C_2 
REMARK    2  A    between atoms: C_7  and  C_9 
REMARK    3  A    between atoms: N_8  and  C_9 
ROOT
HETATM    1  C   UNL     1      62.248   8.105   4.346  1.00  0.00     0.006 A 
HETATM    2  C   UNL     1      63.353   7.957   5.218  1.00  0.00    -0.020 A 
HETATM    3  C   UNL     1      61.181   7.188   4.466  1.00  0.00     0.015 A 
HETATM    4  C   UNL     1      63.335   6.926   6.184  1.00  0.00     0.010 A 
HETATM    5  C   UNL     1      61.187   6.168   5.417  1.00  0.00     0.001 A 
HETATM    6  C   UNL     1      62.265   6.038   6.281  1.00  0.00     0.001 A 
ENDROOT
BRANCH   1   7
HETATM    7  C   UNL     1      62.140   9.160   3.333  1.00  0.00     0.085 A 
HETATM    8  O   UNL     1      62.285   8.748   2.032  1.00  0.00    -0.322 OA
HETATM    9  C   UNL     1      62.142   9.836   1.234  1.00  0.00     0.142 A 
HETATM   10  C   UNL     1      61.904  10.956   1.989  1.00  0.00     0.027 A 
HETATM   11  C   UNL     1      61.900  10.523   3.336  1.00  0.00     0.040 A 
ENDBRANCH   1   7
BRANCH   2  12
HETATM   12  C   UNL     1      64.569   8.850   5.194  1.00  0.00     0.269 C 
BRANCH  12  13
HETATM   13  N   UNL     1      65.578   8.401   6.145  1.00  0.00    -0.075 N 
HETATM   14  H   UNL     1      65.133   7.839   6.872  1.00  0.00     0.274 HD
HETATM   15  H   UNL     1      66.029   9.210   6.570  1.00  0.00     0.274 HD
HETATM   16  H   UNL     1      66.277   7.837   5.660  1.00  0.00     0.274 HD
ENDBRANCH  12  13
ENDBRANCH   2  12
TORSDOF 3
ENDMDL
MODEL 8
REMARK VINA RESULT:      -4.3      2.839      6.208
REMARK  3 active torsions:
REMARK  status: ('A' for Active; 'I' for Inactive)
REMARK    1  A    between atoms: C_1  and  C_2 
REMARK    2  A    between atoms: C_7  and  C_9 
REMARK    3  A    between atoms: N_8  and  C_9 
ROOT
HETATM    1  C   UNL     1      65.968   6.657   6.919  1.00  0.00     0.006 A 
HETATM    2  C   UNL     1      67.026   6.023   6.225  1.00  0.00    -0.020 A 
HETATM    3  C   UNL     1      65.991   6.634   8.330  1.00  0.00     0.015 A 
HETATM    4  C   UNL     1      68.070   5.422   6.963  1.00  0.00     0.010 A 
HETATM    5  C   UNL     1      67.025   6.023   9.041  1.00  0.00     0.001 A 
HETATM    6  C   UNL     1      68.068   5.418   8.357  1.00  0.00     0.001 A 
ENDROOT
BRANCH   1   7
HETATM    7  C   UNL     1      64.853   7.346   6.259  1.00  0.00     0.085 A 
HETATM    8  O   UNL     1      65.194   8.454   5.525  1.00  0.00    -0.322 OA
HETATM    9  C   UNL     1      64.058   8.953   4.976  1.00  0.00     0.142 A 
HETATM   10  C   UNL     1      62.976   8.189   5.335  1.00  0.00     0.027 A 
HETATM   11  C   UNL     1      63.486   7.157   6.157  1.00  0.00     0.040 A 
ENDBRANCH   1   7
BRANCH   2  12
HETATM   12  C   UNL     1      67.123   5.954   4.721  1.00  0.00     0.269 C 
BRANCH  12  13
HETATM   13  N   UNL     1      67.747   7.151   4.172  1.00  0.00    -0.075 N 
HETATM   14  H   UNL     1      68.571   6.887   3.631  1.00  0.00     0.274 HD
HETATM   15  H   UNL     1      68.025   7.770   4.933  1.00  0.00     0.274 HD
HETATM   16  H   UNL     1      67.083   7.634   3.567  1.00  0.00     0.274 HD
ENDBRANCH  12  13
ENDBRANCH   2  12
TORSDOF 3
ENDMDL
MODEL 9
REMARK VINA RESULT:      -4.2      2.196      4.084
REMARK  3 active torsions:
REMARK  status: ('A' for Active; 'I' for Inactive)
REMARK    1  A    between atoms: C_1  and  C_2 
REMARK    2  A    between atoms: C_7  and  C_9 
REMARK    3  A    between atoms: N_8  and  C_9 
ROOT
HETATM    1  C   UNL     1      62.422   9.334   3.271  1.00  0.00     0.006 A 
HETATM    2  C   UNL     1      63.293   8.966   4.325  1.00  0.00    -0.020 A 
HETATM    3  C   UNL     1      61.822  10.610   3.321  1.00  0.00     0.015 A 
HETATM    4  C   UNL     1      63.548   9.892   5.362  1.00  0.00     0.010 A 
HETATM    5  C   UNL     1      62.076  11.506   4.361  1.00  0.00     0.001 A 
HETATM    6  C   UNL     1      62.943  11.147   5.382  1.00  0.00     0.001 A 
ENDROOT
BRANCH   1   7
HETATM    7  C   UNL     1      62.114   8.471   2.125  1.00  0.00     0.085 A 
HETATM    8  O   UNL     1      61.406   7.333   2.416  1.00  0.00    -0.322 OA
HETATM    9  C   UNL     1      61.195   6.667   1.252  1.00  0.00     0.142 A 
HETATM   10  C   UNL     1      61.753   7.351   0.201  1.00  0.00     0.027 A 
HETATM   11  C   UNL     1      62.341   8.509   0.760  1.00  0.00     0.040 A 
ENDBRANCH   1   7
BRANCH   2  12
HETATM   12  C   UNL     1      63.990   7.631   4.413  1.00  0.00     0.269 C 
BRANCH  12  13
HETATM   13  N   UNL     1      65.228   7.727   5.177  1.00  0.00    -0.075 N 
HETATM   14  H   UNL     1      65.828   8.440   4.764  1.00  0.00     0.274 HD
HETATM   15  H   UNL     1      65.708   6.827   5.161  1.00  0.00     0.274 HD
HETATM   16  H   UNL     1      65.014   7.980   6.142  1.00  0.00     0.274 HD
ENDBRANCH  12  13
ENDBRANCH   2  12
TORSDOF 3
ENDMDL
