MODEL 1
REMARK VINA RESULT:      -5.4      0.000      0.000
REMARK  3 active torsions:
REMARK  status: ('A' for Active; 'I' for Inactive)
REMARK    1  A    between atoms: C_1  and  C_2 
REMARK    2  A    between atoms: C_8  and  C_12 
REMARK    3  A    between atoms: N_9  and  C_12 
ROOT
HETATM    1  C   UNL     1      63.534   9.176   4.780  1.00  0.00    -0.002 A 
HETATM    2  C   UNL     1      63.078   8.776   3.514  1.00  0.00     0.023 A 
HETATM    3  C   UNL     1      62.200   9.570   2.757  1.00  0.00    -0.032 A 
HETATM    4  C   UNL     1      63.117  10.422   5.267  1.00  0.00     0.014 A 
HETATM    5  C   UNL     1      62.262  11.235   4.517  1.00  0.00     0.002 A 
HETATM    6  C   UNL     1      61.802  10.807   3.271  1.00  0.00     0.009 A 
ENDROOT
BRANCH   1   7
HETATM    7  C   UNL     1      64.396   8.291   5.561  1.00  0.00     0.085 A 
HETATM    8  O   UNL     1      65.642   8.763   5.871  1.00  0.00    -0.322 OA
HETATM    9  C   UNL     1      66.263   7.812   6.613  1.00  0.00     0.142 A 
HETATM   10  C   UNL     1      65.441   6.726   6.789  1.00  0.00     0.027 A 
HETATM   11  C   UNL     1      64.238   7.031   6.108  1.00  0.00     0.040 A 
ENDBRANCH   1   7
BRANCH   3  12
HETATM   12  C   UNL     1      61.700   9.087   1.414  1.00  0.00     0.270 C 
BRANCH  12  13
HETATM   13  N   UNL     1      60.259   8.833   1.445  1.00  0.00    -0.075 N 
HETATM   14  C   UNL     1      59.865   7.894   0.408  1.00  0.00     0.267 C 
HETATM   15  H   UNL     1      59.764   9.714   1.301  1.00  0.00     0.277 HD
HETATM   16  H   UNL     1      60.022   8.431   2.352  1.00  0.00     0.277 HD
ENDBRANCH  12  13
ENDBRANCH   3  12
TORSDOF 3
ENDMDL
MODEL 2
REMARK VINA RESULT:      -5.1      1.759      2.902
REMARK  3 active torsions:
REMARK  status: ('A' for Active; 'I' for Inactive)
REMARK    1  A    between atoms: C_1  and  C_2 
REMARK    2  A    between atoms: C_8  and  C_12 
REMARK    3  A    between atoms: N_9  and  C_12 
ROOT
HETATM    1  C   UNL     1      64.561   7.425   4.999  1.00  0.00    -0.002 A 
HETATM    2  C   UNL     1      63.824   8.619   5.046  1.00  0.00     0.023 A 
HETATM    3  C   UNL     1      63.000   9.024   3.982  1.00  0.00    -0.032 A 
HETATM    4  C   UNL     1      64.426   6.612   3.866  1.00  0.00     0.014 A 
HETATM    5  C   UNL     1      63.592   6.988   2.809  1.00  0.00     0.002 A 
HETATM    6  C   UNL     1      62.887   8.191   2.866  1.00  0.00     0.009 A 
ENDROOT
BRANCH   1   7
HETATM    7  C   UNL     1      65.455   7.073   6.100  1.00  0.00     0.085 A 
HETATM    8  O   UNL     1      64.890   6.966   7.341  1.00  0.00    -0.322 OA
HETATM    9  C   UNL     1      65.874   6.609   8.205  1.00  0.00     0.142 A 
HETATM   10  C   UNL     1      67.072   6.483   7.546  1.00  0.00     0.027 A 
HETATM   11  C   UNL     1      66.805   6.787   6.189  1.00  0.00     0.040 A 
ENDBRANCH   1   7
BRANCH   3  12
HETATM   12  C   UNL     1      62.253  10.337   4.054  1.00  0.00     0.270 C 
BRANCH  12  13
HETATM   13  N   UNL     1      61.401  10.527   2.878  1.00  0.00    -0.075 N 
HETATM   14  C   UNL     1      61.775  11.723   2.142  1.00  0.00     0.267 C 
HETATM   15  H   UNL     1      60.431  10.613   3.182  1.00  0.00     0.277 HD
HETATM   16  H   UNL     1      61.516   9.721   2.264  1.00  0.00     0.277 HD
ENDBRANCH  12  13
ENDBRANCH   3  12
TORSDOF 3
ENDMDL
MODEL 3
REMARK VINA RESULT:      -5.0      3.351      6.602
REMARK  3 active torsions:
REMARK  status: ('A' for Active; 'I' for Inactive)
REMARK    1  A    between atoms: C_1  and  C_2 
REMARK    2  A    between atoms: C_8  and  C_12 
REMARK    3  A    between atoms: N_9  and  C_12 
ROOT
HETATM    1  C   UNL     1      65.608   7.895   5.543  1.00  0.00    -0.002 A 
HETATM    2  C   UNL     1      65.581   7.251   6.791  1.00  0.00     0.023 A 
HETATM    3  C   UNL     1      66.646   6.448   7.234  1.00  0.00    -0.032 A 
HETATM    4  C   UNL     1      66.755   7.747   4.751  1.00  0.00     0.014 A 
HETATM    5  C   UNL     1      67.833   6.971   5.188  1.00  0.00     0.002 A 
HETATM    6  C   UNL     1      67.774   6.321   6.421  1.00  0.00     0.009 A 
ENDROOT
BRANCH   1   7
HETATM    7  C   UNL     1      64.454   8.669   5.094  1.00  0.00     0.085 A 
HETATM    8  O   UNL     1      64.217   9.852   5.739  1.00  0.00    -0.322 OA
HETATM    9  C   UNL     1      63.131  10.421   5.158  1.00  0.00     0.142 A 
HETATM   10  C   UNL     1      62.654   9.625   4.145  1.00  0.00     0.027 A 
HETATM   11  C   UNL     1      63.503   8.493   4.105  1.00  0.00     0.040 A 
ENDBRANCH   1   7
BRANCH   3  12
HETATM   12  C   UNL     1      66.562   5.740   8.568  1.00  0.00     0.270 C 
BRANCH  12  13
HETATM   13  N   UNL     1      66.537   4.286   8.395  1.00  0.00    -0.075 N 
HETATM   14  C   UNL     1      67.759   3.674   8.891  1.00  0.00     0.267 C 
HETATM   15  H   UNL     1      66.437   4.072   7.402  1.00  0.00     0.277 HD
HETATM   16  H   UNL     1      65.751   3.912   8.926  1.00  0.00     0.277 HD
ENDBRANCH  12  13
ENDBRANCH   3  12
TORSDOF 3
ENDMDL
MODEL 4
REMARK VINA RESULT:      -4.8      2.790      5.659
REMARK  3 active torsions:
REMARK  status: ('A' for Active; 'I' for Inactive)
REMARK    1  A    between atoms: C_1  and  C_2 
REMARK    2  A    between atoms: C_8  and  C_12 
REMARK    3  A    between atoms: N_9  and  C_12 
ROOT
HETATM    1  C   UNL     1      62.009   8.274   4.171  1.00  0.00    -0.002 A 
HETATM    2  C   UNL     1      63.146   8.005   4.949  1.00  0.00     0.023 A 
HETATM    3  C   UNL     1      63.237   6.861   5.759  1.00  0.00    -0.032 A 
HETATM    4  C   UNL     1      60.962   7.342   4.190  1.00  0.00     0.014 A 
HETATM    5  C   UNL     1      61.046   6.186   4.972  1.00  0.00     0.002 A 
HETATM    6  C   UNL     1      62.176   5.951   5.756  1.00  0.00     0.009 A 
ENDROOT
BRANCH   1   7
HETATM    7  C   UNL     1      61.929   9.508   3.391  1.00  0.00     0.085 A 
HETATM    8  O   UNL     1      61.838  10.676   4.097  1.00  0.00    -0.322 OA
HETATM    9  C   UNL     1      61.804  11.691   3.197  1.00  0.00     0.142 A 
HETATM   10  C   UNL     1      61.869  11.202   1.916  1.00  0.00     0.027 A 
HETATM   11  C   UNL     1      61.945   9.793   2.038  1.00  0.00     0.040 A 
ENDBRANCH   1   7
BRANCH   3  12
HETATM   12  C   UNL     1      64.463   6.626   6.613  1.00  0.00     0.270 C 
BRANCH  12  13
HETATM   13  N   UNL     1      65.356   7.786   6.587  1.00  0.00    -0.075 N 
HETATM   14  C   UNL     1      66.648   7.471   7.176  1.00  0.00     0.267 C 
HETATM   15  H   UNL     1      64.927   8.547   7.114  1.00  0.00     0.277 HD
HETATM   16  H   UNL     1      65.503   8.058   5.615  1.00  0.00     0.277 HD
ENDBRANCH  12  13
ENDBRANCH   3  12
TORSDOF 3
ENDMDL
MODEL 5
REMARK VINA RESULT:      -4.6      2.557      5.365
REMARK  3 active torsions:
REMARK  status: ('A' for Active; 'I' for Inactive)
REMARK    1  A    between atoms: C_1  and  C_2 
REMARK    2  A    between atoms: C_8  and  C_12 
REMARK    3  A    between atoms: N_9  and  C_12 
ROOT
HETATM    1  C   UNL     1      62.167   9.173   3.265  1.00  0.00    -0.002 A 
HETATM    2  C   UNL     1      63.239   8.513   3.886  1.00  0.00     0.023 A 
HETATM    3  C   UNL     1      63.967   9.103   4.933  1.00  0.00    -0.032 A 
HETATM    4  C   UNL     1      61.809  10.440   3.743  1.00  0.00     0.014 A 
HETATM    5  C   UNL     1      62.508  11.032   4.800  1.00  0.00     0.002 A 
HETATM    6  C   UNL     1      63.585  10.368   5.386  1.00  0.00     0.009 A 
ENDROOT
BRANCH   1   7
HETATM    7  C   UNL     1      61.477   8.549   2.138  1.00  0.00     0.085 A 
HETATM    8  O   UNL     1      60.319   7.879   2.421  1.00  0.00    -0.322 OA
HETATM    9  C   UNL     1      59.828   7.405   1.248  1.00  0.00     0.142 A 
HETATM   10  C   UNL     1      60.650   7.754   0.205  1.00  0.00     0.027 A 
HETATM   11  C   UNL     1      61.717   8.488   0.777  1.00  0.00     0.040 A 
ENDBRANCH   1   7
BRANCH   3  12
HETATM   12  C   UNL     1      65.141   8.375   5.550  1.00  0.00     0.270 C 
BRANCH  12  13
HETATM   13  N   UNL     1      64.936   6.926   5.531  1.00  0.00    -0.075 N 
HETATM   14  C   UNL     1      65.035   6.360   6.867  1.00  0.00     0.267 C 
HETATM   15  H   UNL     1      65.645   6.498   4.935  1.00  0.00     0.277 HD
HETATM   16  H   UNL     1      64.000   6.738   5.170  1.00  0.00     0.277 HD
ENDBRANCH  12  13
ENDBRANCH   3  12
TORSDOF 3
ENDMDL
MODEL 6
REMARK VINA RESULT:      -4.6     10.508     12.200
REMARK  3 active torsions:
REMARK  status: ('A' for Active; 'I' for Inactive)
REMARK    1  A    between atoms: C_1  and  C_2 
REMARK    2  A    between atoms: C_8  and  C_12 
REMARK    3  A    between atoms: N_9  and  C_12 
ROOT
HETATM    1  C   UNL     1      58.278   2.533  11.647  1.00  0.00    -0.002 A 
HETATM    2  C   UNL     1      56.956   2.582  12.118  1.00  0.00     0.023 A 
HETATM    3  C   UNL     1      56.595   2.058  13.370  1.00  0.00    -0.032 A 
HETATM    4  C   UNL     1      59.254   1.975  12.484  1.00  0.00     0.014 A 
HETATM    5  C   UNL     1      58.916   1.470  13.743  1.00  0.00     0.002 A 
HETATM    6  C   UNL     1      57.591   1.507  14.180  1.00  0.00     0.009 A 
ENDROOT
BRANCH   1   7
HETATM    7  C   UNL     1      58.599   3.033  10.312  1.00  0.00     0.085 A 
HETATM    8  O   UNL     1      58.488   4.382  10.117  1.00  0.00    -0.322 OA
HETATM    9  C   UNL     1      58.853   4.638   8.836  1.00  0.00     0.142 A 
HETATM   10  C   UNL     1      59.199   3.475   8.192  1.00  0.00     0.027 A 
HETATM   11  C   UNL     1      59.031   2.438   9.141  1.00  0.00     0.040 A 
ENDBRANCH   1   7
BRANCH   3  12
HETATM   12  C   UNL     1      55.153   2.094  13.825  1.00  0.00     0.270 C 
BRANCH  12  13
HETATM   13  N   UNL     1      54.908   3.223  14.724  1.00  0.00    -0.075 N 
HETATM   14  C   UNL     1      54.344   4.356  14.010  1.00  0.00     0.267 C 
HETATM   15  H   UNL     1      55.791   3.504  15.150  1.00  0.00     0.277 HD
HETATM   16  H   UNL     1      54.242   2.927  15.438  1.00  0.00     0.277 HD
ENDBRANCH  12  13
ENDBRANCH   3  12
TORSDOF 3
ENDMDL
MODEL 7
REMARK VINA RESULT:      -4.5      1.412      2.263
REMARK  3 active torsions:
REMARK  status: ('A' for Active; 'I' for Inactive)
REMARK    1  A    between atoms: C_1  and  C_2 
REMARK    2  A    between atoms: C_8  and  C_12 
REMARK    3  A    between atoms: N_9  and  C_12 
ROOT
HETATM    1  C   UNL     1      63.794   7.803   5.190  1.00  0.00    -0.002 A 
HETATM    2  C   UNL     1      63.476   8.866   4.330  1.00  0.00     0.023 A 
HETATM    3  C   UNL     1      62.207   8.988   3.739  1.00  0.00    -0.032 A 
HETATM    4  C   UNL     1      62.791   6.869   5.481  1.00  0.00     0.014 A 
HETATM    5  C   UNL     1      61.515   6.988   4.920  1.00  0.00     0.002 A 
HETATM    6  C   UNL     1      61.229   8.040   4.049  1.00  0.00     0.009 A 
ENDROOT
BRANCH   1   7
HETATM    7  C   UNL     1      65.145   7.679   5.733  1.00  0.00     0.085 A 
HETATM    8  O   UNL     1      65.248   7.338   7.054  1.00  0.00    -0.322 OA
HETATM    9  C   UNL     1      66.570   7.250   7.348  1.00  0.00     0.142 A 
HETATM   10  C   UNL     1      67.330   7.531   6.239  1.00  0.00     0.027 A 
HETATM   11  C   UNL     1      66.413   7.813   5.198  1.00  0.00     0.040 A 
ENDBRANCH   1   7
BRANCH   3  12
HETATM   12  C   UNL     1      61.916  10.126   2.787  1.00  0.00     0.270 C 
BRANCH  12  13
HETATM   13  N   UNL     1      61.231   9.649   1.583  1.00  0.00    -0.075 N 
HETATM   14  C   UNL     1      62.151   8.968   0.687  1.00  0.00     0.267 C 
HETATM   15  H   UNL     1      60.822  10.447   1.097  1.00  0.00     0.277 HD
HETATM   16  H   UNL     1      60.507   8.988   1.866  1.00  0.00     0.277 HD
ENDBRANCH  12  13
ENDBRANCH   3  12
TORSDOF 3
ENDMDL
MODEL 8
REMARK VINA RESULT:      -4.3      4.315      7.642
REMARK  3 active torsions:
REMARK  status: ('A' for Active; 'I' for Inactive)
REMARK    1  A    between atoms: C_1  and  C_2 
REMARK    2  A    between atoms: C_8  and  C_12 
REMARK    3  A    between atoms: N_9  and  C_12 
ROOT
HETATM    1  C   UNL     1      66.181   6.304   7.395  1.00  0.00    -0.002 A 
HETATM    2  C   UNL     1      66.348   4.927   7.182  1.00  0.00     0.023 A 
HETATM    3  C   UNL     1      67.246   4.162   7.945  1.00  0.00    -0.032 A 
HETATM    4  C   UNL     1      66.913   6.904   8.428  1.00  0.00     0.014 A 
HETATM    5  C   UNL     1      67.794   6.153   9.213  1.00  0.00     0.002 A 
HETATM    6  C   UNL     1      67.962   4.790   8.967  1.00  0.00     0.009 A 
ENDROOT
BRANCH   1   7
HETATM    7  C   UNL     1      65.283   7.075   6.537  1.00  0.00     0.085 A 
HETATM    8  O   UNL     1      63.961   7.095   6.890  1.00  0.00    -0.322 OA
HETATM    9  C   UNL     1      63.313   7.878   5.992  1.00  0.00     0.142 A 
HETATM   10  C   UNL     1      64.192   8.367   5.056  1.00  0.00     0.027 A 
HETATM   11  C   UNL     1      65.463   7.846   5.404  1.00  0.00     0.040 A 
ENDBRANCH   1   7
BRANCH   3  12
HETATM   12  C   UNL     1      67.427   2.688   7.658  1.00  0.00     0.270 C 
BRANCH  12  13
HETATM   13  N   UNL     1      66.538   1.873   8.487  1.00  0.00    -0.075 N 
HETATM   14  C   UNL     1      67.055   0.525   8.651  1.00  0.00     0.267 C 
HETATM   15  H   UNL     1      65.621   1.826   8.042  1.00  0.00     0.277 HD
HETATM   16  H   UNL     1      66.469   2.306   9.408  1.00  0.00     0.277 HD
ENDBRANCH  12  13
ENDBRANCH   3  12
TORSDOF 3
ENDMDL
MODEL 9
REMARK VINA RESULT:      -4.2      3.787      5.913
REMARK  3 active torsions:
REMARK  status: ('A' for Active; 'I' for Inactive)
REMARK    1  A    between atoms: C_1  and  C_2 
REMARK    2  A    between atoms: C_8  and  C_12 
REMARK    3  A    between atoms: N_9  and  C_12 
ROOT
HETATM    1  C   UNL     1      62.920   6.906   5.995  1.00  0.00    -0.002 A 
HETATM    2  C   UNL     1      64.200   6.599   6.482  1.00  0.00     0.023 A 
HETATM    3  C   UNL     1      65.338   7.320   6.084  1.00  0.00    -0.032 A 
HETATM    4  C   UNL     1      62.793   7.990   5.116  1.00  0.00     0.014 A 
HETATM    5  C   UNL     1      63.911   8.733   4.728  1.00  0.00     0.002 A 
HETATM    6  C   UNL     1      65.178   8.395   5.206  1.00  0.00     0.009 A 
ENDROOT
BRANCH   1   7
HETATM    7  C   UNL     1      61.772   6.091   6.387  1.00  0.00     0.085 A 
HETATM    8  O   UNL     1      60.930   6.624   7.324  1.00  0.00    -0.322 OA
HETATM    9  C   UNL     1      59.928   5.731   7.523  1.00  0.00     0.142 A 
HETATM   10  C   UNL     1      60.106   4.623   6.732  1.00  0.00     0.027 A 
HETATM   11  C   UNL     1      61.297   4.850   6.001  1.00  0.00     0.040 A 
ENDBRANCH   1   7
BRANCH   3  12
HETATM   12  C   UNL     1      66.706   6.933   6.600  1.00  0.00     0.270 C 
BRANCH  12  13
HETATM   13  N   UNL     1      66.968   7.534   7.909  1.00  0.00    -0.075 N 
HETATM   14  C   UNL     1      67.159   6.517   8.930  1.00  0.00     0.267 C 
HETATM   15  H   UNL     1      66.175   8.121   8.169  1.00  0.00     0.277 HD
HETATM   16  H   UNL     1      67.821   8.089   7.843  1.00  0.00     0.277 HD
ENDBRANCH  12  13
ENDBRANCH   3  12
TORSDOF 3
ENDMDL
