MODEL 1
REMARK VINA RESULT:      -5.3      0.000      0.000
REMARK  3 active torsions:
REMARK  status: ('A' for Active; 'I' for Inactive)
REMARK    1  A    between atoms: C_4  and  C_7 
REMARK    2  A    between atoms: C_6  and  C_9 
REMARK    3  A    between atoms: C_9  and  N_10 
ROOT
HETATM    1  N   UNL     1      63.491   7.208   6.027  1.00  0.00    -0.296 N 
HETATM    2  N   UNL     1      64.478   6.578   6.707  1.00  0.00    -0.301 N 
ATOM      3  HN  UNL     1      64.394   5.769   7.322  1.00  0.00     0.187 HD
HETATM    4  C   UNL     1      63.939   8.251   5.237  1.00  0.00     0.062 A 
HETATM    5  C   UNL     1      65.303   8.298   5.486  1.00  0.00     0.060 A 
HETATM    6  C   UNL     1      65.586   7.256   6.390  1.00  0.00     0.053 A 
HETATM    7  C   UNL     1      62.148   6.741   6.271  1.00  0.00     0.178 C 
ENDROOT
BRANCH   4   8
HETATM    8  C   UNL     1      63.152   9.123   4.353  1.00  0.00    -0.008 A 
HETATM    9  C   UNL     1      62.753  10.394   4.803  1.00  0.00     0.014 A 
HETATM   10  C   UNL     1      62.049  11.270   3.973  1.00  0.00     0.001 A 
HETATM   11  C   UNL     1      61.709  10.882   2.679  1.00  0.00     0.000 A 
HETATM   12  C   UNL     1      62.097   9.628   2.215  1.00  0.00     0.001 A 
HETATM   13  C   UNL     1      62.835   8.773   3.034  1.00  0.00     0.014 A 
ENDBRANCH   4   8
BRANCH   6  14
HETATM   14  C   UNL     1      66.913   6.885   6.972  1.00  0.00     0.288 C 
BRANCH  14  15
HETATM   15  N   UNL     1      67.982   7.387   6.108  1.00  0.00    -0.074 N 
HETATM   16  H   UNL     1      67.830   7.061   5.154  1.00  0.00     0.274 HD
HETATM   17  H   UNL     1      68.881   7.046   6.446  1.00  0.00     0.274 HD
HETATM   18  H   UNL     1      67.979   8.407   6.122  1.00  0.00     0.274 HD
ENDBRANCH  14  15
ENDBRANCH   6  14
TORSDOF 3
ENDMDL
MODEL 2
REMARK VINA RESULT:      -5.1      1.763      2.696
REMARK  3 active torsions:
REMARK  status: ('A' for Active; 'I' for Inactive)
REMARK    1  A    between atoms: C_4  and  C_7 
REMARK    2  A    between atoms: C_6  and  C_9 
REMARK    3  A    between atoms: C_9  and  N_10 
ROOT
HETATM    1  N   UNL     1      63.506   9.539   4.992  1.00  0.00    -0.296 N 
HETATM    2  N   UNL     1      64.590   9.344   5.780  1.00  0.00    -0.301 N 
ATOM      3  HN  UNL     1      64.915   9.929   6.550  1.00  0.00     0.187 HD
HETATM    4  C   UNL     1      63.308   8.535   4.062  1.00  0.00     0.062 A 
HETATM    5  C   UNL     1      64.381   7.679   4.259  1.00  0.00     0.060 A 
HETATM    6  C   UNL     1      65.137   8.214   5.321  1.00  0.00     0.053 A 
HETATM    7  C   UNL     1      62.775  10.765   5.203  1.00  0.00     0.178 C 
ENDROOT
BRANCH   4   8
HETATM    8  C   UNL     1      62.225   8.413   3.076  1.00  0.00    -0.008 A 
HETATM    9  C   UNL     1      62.426   8.862   1.759  1.00  0.00     0.014 A 
HETATM   10  C   UNL     1      61.438   8.715   0.782  1.00  0.00     0.001 A 
HETATM   11  C   UNL     1      60.216   8.132   1.110  1.00  0.00     0.000 A 
HETATM   12  C   UNL     1      59.999   7.679   2.408  1.00  0.00     0.001 A 
HETATM   13  C   UNL     1      61.003   7.792   3.370  1.00  0.00     0.014 A 
ENDBRANCH   4   8
BRANCH   6  14
HETATM   14  C   UNL     1      66.393   7.665   5.917  1.00  0.00     0.288 C 
BRANCH  14  15
HETATM   15  N   UNL     1      66.840   8.538   7.003  1.00  0.00    -0.074 N 
HETATM   16  H   UNL     1      66.514   9.489   6.831  1.00  0.00     0.274 HD
HETATM   17  H   UNL     1      67.858   8.530   7.050  1.00  0.00     0.274 HD
HETATM   18  H   UNL     1      66.456   8.203   7.888  1.00  0.00     0.274 HD
ENDBRANCH  14  15
ENDBRANCH   6  14
TORSDOF 3
ENDMDL
MODEL 3
REMARK VINA RESULT:      -5.0      1.399      1.467
REMARK  3 active torsions:
REMARK  status: ('A' for Active; 'I' for Inactive)
REMARK    1  A    between atoms: C_4  and  C_7 
REMARK    2  A    between atoms: C_6  and  C_9 
REMARK    3  A    between atoms: C_9  and  N_10 
ROOT
HETATM    1  N   UNL     1      62.299   7.057   5.249  1.00  0.00    -0.296 N 
HETATM    2  N   UNL     1      63.010   6.309   6.125  1.00  0.00    -0.301 N 
ATOM      3  HN  UNL     1      62.724   5.445   6.585  1.00  0.00     0.187 HD
HETATM    4  C   UNL     1      62.990   8.152   4.765  1.00  0.00     0.062 A 
HETATM    5  C   UNL     1      64.205   8.103   5.431  1.00  0.00     0.060 A 
HETATM    6  C   UNL     1      64.173   6.958   6.251  1.00  0.00     0.053 A 
HETATM    7  C   UNL     1      60.940   6.636   5.006  1.00  0.00     0.178 C 
ENDROOT
BRANCH   4   8
HETATM    8  C   UNL     1      62.536   9.152   3.787  1.00  0.00    -0.008 A 
HETATM    9  C   UNL     1      62.265  10.466   4.207  1.00  0.00     0.014 A 
HETATM   10  C   UNL     1      61.882  11.455   3.298  1.00  0.00     0.001 A 
HETATM   11  C   UNL     1      61.740  11.142   1.948  1.00  0.00     0.000 A 
HETATM   12  C   UNL     1      62.006   9.847   1.513  1.00  0.00     0.001 A 
HETATM   13  C   UNL     1      62.427   8.873   2.418  1.00  0.00     0.014 A 
ENDBRANCH   4   8
BRANCH   6  14
HETATM   14  C   UNL     1      65.241   6.460   7.171  1.00  0.00     0.288 C 
BRANCH  14  15
HETATM   15  N   UNL     1      65.600   5.089   6.805  1.00  0.00    -0.074 N 
HETATM   16  H   UNL     1      65.255   4.446   7.518  1.00  0.00     0.274 HD
HETATM   17  H   UNL     1      66.614   5.010   6.736  1.00  0.00     0.274 HD
HETATM   18  H   UNL     1      65.178   4.856   5.906  1.00  0.00     0.274 HD
ENDBRANCH  14  15
ENDBRANCH   6  14
TORSDOF 3
ENDMDL
MODEL 4
REMARK VINA RESULT:      -4.8      1.775      3.150
REMARK  3 active torsions:
REMARK  status: ('A' for Active; 'I' for Inactive)
REMARK    1  A    between atoms: C_4  and  C_7 
REMARK    2  A    between atoms: C_6  and  C_9 
REMARK    3  A    between atoms: C_9  and  N_10 
ROOT
HETATM    1  N   UNL     1      66.876   7.544   5.754  1.00  0.00    -0.296 N 
HETATM    2  N   UNL     1      67.508   7.057   6.847  1.00  0.00    -0.301 N 
ATOM      3  HN  UNL     1      68.510   7.048   7.036  1.00  0.00     0.187 HD
HETATM    4  C   UNL     1      65.498   7.451   5.821  1.00  0.00     0.062 A 
HETATM    5  C   UNL     1      65.264   6.813   7.030  1.00  0.00     0.060 A 
HETATM    6  C   UNL     1      66.523   6.593   7.623  1.00  0.00     0.053 A 
HETATM    7  C   UNL     1      67.723   8.022   4.686  1.00  0.00     0.178 C 
ENDROOT
BRANCH   4   8
HETATM    8  C   UNL     1      64.509   7.902   4.832  1.00  0.00    -0.008 A 
HETATM    9  C   UNL     1      64.247   7.114   3.697  1.00  0.00     0.014 A 
HETATM   10  C   UNL     1      63.277   7.486   2.763  1.00  0.00     0.001 A 
HETATM   11  C   UNL     1      62.562   8.669   2.934  1.00  0.00     0.000 A 
HETATM   12  C   UNL     1      62.806   9.461   4.053  1.00  0.00     0.001 A 
HETATM   13  C   UNL     1      63.747   9.066   5.003  1.00  0.00     0.014 A 
ENDBRANCH   4   8
BRANCH   6  14
HETATM   14  C   UNL     1      66.814   5.936   8.934  1.00  0.00     0.288 C 
BRANCH  14  15
HETATM   15  N   UNL     1      66.622   4.491   8.809  1.00  0.00    -0.074 N 
HETATM   16  H   UNL     1      67.402   4.088   8.291  1.00  0.00     0.274 HD
HETATM   17  H   UNL     1      65.751   4.305   8.312  1.00  0.00     0.274 HD
HETATM   18  H   UNL     1      66.579   4.072   9.738  1.00  0.00     0.274 HD
ENDBRANCH  14  15
ENDBRANCH   6  14
TORSDOF 3
ENDMDL
MODEL 5
REMARK VINA RESULT:      -4.8      1.649      3.142
REMARK  3 active torsions:
REMARK  status: ('A' for Active; 'I' for Inactive)
REMARK    1  A    between atoms: C_4  and  C_7 
REMARK    2  A    between atoms: C_6  and  C_9 
REMARK    3  A    between atoms: C_9  and  N_10 
ROOT
HETATM    1  N   UNL     1      63.765   7.670   5.256  1.00  0.00    -0.296 N 
HETATM    2  N   UNL     1      63.691   6.578   6.053  1.00  0.00    -0.301 N 
ATOM      3  HN  UNL     1      64.420   6.193   6.653  1.00  0.00     0.187 HD
HETATM    4  C   UNL     1      62.582   7.961   4.601  1.00  0.00     0.062 A 
HETATM    5  C   UNL     1      61.727   6.940   4.986  1.00  0.00     0.060 A 
HETATM    6  C   UNL     1      62.448   6.119   5.875  1.00  0.00     0.053 A 
HETATM    7  C   UNL     1      65.055   8.314   5.172  1.00  0.00     0.178 C 
ENDROOT
BRANCH   4   8
HETATM    8  C   UNL     1      62.302   9.079   3.689  1.00  0.00    -0.008 A 
HETATM    9  C   UNL     1      62.111  10.371   4.207  1.00  0.00     0.014 A 
HETATM   10  C   UNL     1      61.895  11.466   3.368  1.00  0.00     0.001 A 
HETATM   11  C   UNL     1      61.843  11.286   1.987  1.00  0.00     0.000 A 
HETATM   12  C   UNL     1      62.032  10.014   1.455  1.00  0.00     0.001 A 
HETATM   13  C   UNL     1      62.287   8.930   2.295  1.00  0.00     0.014 A 
ENDBRANCH   4   8
BRANCH   6  14
HETATM   14  C   UNL     1      61.972   4.884   6.571  1.00  0.00     0.288 C 
BRANCH  14  15
HETATM   15  N   UNL     1      60.510   4.891   6.632  1.00  0.00    -0.074 N 
HETATM   16  H   UNL     1      60.144   5.544   5.940  1.00  0.00     0.274 HD
HETATM   17  H   UNL     1      60.210   5.177   7.563  1.00  0.00     0.274 HD
HETATM   18  H   UNL     1      60.158   3.954   6.434  1.00  0.00     0.274 HD
ENDBRANCH  14  15
ENDBRANCH   6  14
TORSDOF 3
ENDMDL
MODEL 6
REMARK VINA RESULT:      -4.7      2.133      5.469
REMARK  3 active torsions:
REMARK  status: ('A' for Active; 'I' for Inactive)
REMARK    1  A    between atoms: C_4  and  C_7 
REMARK    2  A    between atoms: C_6  and  C_9 
REMARK    3  A    between atoms: C_9  and  N_10 
ROOT
HETATM    1  N   UNL     1      63.645   7.843   3.658  1.00  0.00    -0.296 N 
HETATM    2  N   UNL     1      62.687   8.714   3.262  1.00  0.00    -0.301 N 
ATOM      3  HN  UNL     1      62.028   8.609   2.492  1.00  0.00     0.187 HD
HETATM    4  C   UNL     1      64.348   8.258   4.774  1.00  0.00     0.062 A 
HETATM    5  C   UNL     1      63.814   9.505   5.061  1.00  0.00     0.060 A 
HETATM    6  C   UNL     1      62.801   9.741   4.110  1.00  0.00     0.053 A 
HETATM    7  C   UNL     1      63.818   6.668   2.837  1.00  0.00     0.178 C 
ENDROOT
BRANCH   4   8
HETATM    8  C   UNL     1      65.426   7.553   5.481  1.00  0.00    -0.008 A 
HETATM    9  C   UNL     1      66.741   7.616   4.989  1.00  0.00     0.014 A 
HETATM   10  C   UNL     1      67.800   7.003   5.663  1.00  0.00     0.001 A 
HETATM   11  C   UNL     1      67.559   6.292   6.837  1.00  0.00     0.000 A 
HETATM   12  C   UNL     1      66.264   6.220   7.341  1.00  0.00     0.001 A 
HETATM   13  C   UNL     1      65.217   6.868   6.686  1.00  0.00     0.014 A 
ENDBRANCH   4   8
BRANCH   6  14
HETATM   14  C   UNL     1      61.924  10.946   3.988  1.00  0.00     0.288 C 
BRANCH  14  15
HETATM   15  N   UNL     1      61.576  11.155   2.582  1.00  0.00    -0.074 N 
HETATM   16  H   UNL     1      60.950  10.411   2.273  1.00  0.00     0.274 HD
HETATM   17  H   UNL     1      62.423  11.144   2.015  1.00  0.00     0.274 HD
HETATM   18  H   UNL     1      61.109  12.056   2.477  1.00  0.00     0.274 HD
ENDBRANCH  14  15
ENDBRANCH   6  14
TORSDOF 3
ENDMDL
MODEL 7
REMARK VINA RESULT:      -4.6      2.367      5.478
REMARK  3 active torsions:
REMARK  status: ('A' for Active; 'I' for Inactive)
REMARK    1  A    between atoms: C_4  and  C_7 
REMARK    2  A    between atoms: C_6  and  C_9 
REMARK    3  A    between atoms: C_9  and  N_10 
ROOT
HETATM    1  N   UNL     1      62.874   9.870   4.330  1.00  0.00    -0.296 N 
HETATM    2  N   UNL     1      62.122  10.184   3.250  1.00  0.00    -0.301 N 
ATOM      3  HN  UNL     1      61.598  11.043   3.081  1.00  0.00     0.187 HD
HETATM    4  C   UNL     1      63.499   8.640   4.234  1.00  0.00     0.062 A 
HETATM    5  C   UNL     1      63.060   8.135   3.020  1.00  0.00     0.060 A 
HETATM    6  C   UNL     1      62.221   9.114   2.453  1.00  0.00     0.053 A 
HETATM    7  C   UNL     1      62.860  10.821   5.416  1.00  0.00     0.178 C 
ENDROOT
BRANCH   4   8
HETATM    8  C   UNL     1      64.403   8.004   5.203  1.00  0.00    -0.008 A 
HETATM    9  C   UNL     1      65.750   8.400   5.265  1.00  0.00     0.014 A 
HETATM   10  C   UNL     1      66.625   7.855   6.209  1.00  0.00     0.001 A 
HETATM   11  C   UNL     1      66.173   6.882   7.098  1.00  0.00     0.000 A 
HETATM   12  C   UNL     1      64.841   6.479   7.053  1.00  0.00     0.001 A 
HETATM   13  C   UNL     1      63.962   7.055   6.136  1.00  0.00     0.014 A 
ENDBRANCH   4   8
BRANCH   6  14
HETATM   14  C   UNL     1      61.495   9.053   1.147  1.00  0.00     0.288 C 
BRANCH  14  15
HETATM   15  N   UNL     1      60.098   8.689   1.382  1.00  0.00    -0.074 N 
HETATM   16  H   UNL     1      59.637   9.431   1.909  1.00  0.00     0.274 HD
HETATM   17  H   UNL     1      60.057   7.819   1.912  1.00  0.00     0.274 HD
HETATM   18  H   UNL     1      59.624   8.565   0.487  1.00  0.00     0.274 HD
ENDBRANCH  14  15
ENDBRANCH   6  14
TORSDOF 3
ENDMDL
MODEL 8
REMARK VINA RESULT:      -4.6      1.386      2.739
REMARK  3 active torsions:
REMARK  status: ('A' for Active; 'I' for Inactive)
REMARK    1  A    between atoms: C_4  and  C_7 
REMARK    2  A    between atoms: C_6  and  C_9 
REMARK    3  A    between atoms: C_9  and  N_10 
ROOT
HETATM    1  N   UNL     1      64.775   7.412   5.786  1.00  0.00    -0.296 N 
HETATM    2  N   UNL     1      64.912   6.197   6.367  1.00  0.00    -0.301 N 
ATOM      3  HN  UNL     1      65.734   5.820   6.840  1.00  0.00     0.187 HD
HETATM    4  C   UNL     1      63.513   7.641   5.270  1.00  0.00     0.062 A 
HETATM    5  C   UNL     1      62.833   6.457   5.509  1.00  0.00     0.060 A 
HETATM    6  C   UNL     1      63.729   5.603   6.183  1.00  0.00     0.053 A 
HETATM    7  C   UNL     1      65.958   8.238   5.746  1.00  0.00     0.178 C 
ENDROOT
BRANCH   4   8
HETATM    8  C   UNL     1      63.012   8.851   4.602  1.00  0.00    -0.008 A 
HETATM    9  C   UNL     1      62.556   8.778   3.274  1.00  0.00     0.014 A 
HETATM   10  C   UNL     1      62.025   9.895   2.626  1.00  0.00     0.001 A 
HETATM   11  C   UNL     1      61.960  11.119   3.288  1.00  0.00     0.000 A 
HETATM   12  C   UNL     1      62.404  11.211   4.604  1.00  0.00     0.001 A 
HETATM   13  C   UNL     1      62.896  10.083   5.260  1.00  0.00     0.014 A 
ENDBRANCH   4   8
BRANCH   6  14
HETATM   14  C   UNL     1      63.479   4.209   6.662  1.00  0.00     0.288 C 
BRANCH  14  15
HETATM   15  N   UNL     1      64.645   3.733   7.407  1.00  0.00    -0.074 N 
HETATM   16  H   UNL     1      65.469   4.266   7.126  1.00  0.00     0.274 HD
HETATM   17  H   UNL     1      64.795   2.744   7.210  1.00  0.00     0.274 HD
HETATM   18  H   UNL     1      64.485   3.860   8.407  1.00  0.00     0.274 HD
ENDBRANCH  14  15
ENDBRANCH   6  14
TORSDOF 3
ENDMDL
MODEL 9
REMARK VINA RESULT:      -4.2      1.291      1.635
REMARK  3 active torsions:
REMARK  status: ('A' for Active; 'I' for Inactive)
REMARK    1  A    between atoms: C_4  and  C_7 
REMARK    2  A    between atoms: C_6  and  C_9 
REMARK    3  A    between atoms: C_9  and  N_10 
ROOT
HETATM    1  N   UNL     1      64.072   6.659   6.001  1.00  0.00    -0.296 N 
HETATM    2  N   UNL     1      65.079   6.601   6.904  1.00  0.00    -0.301 N 
ATOM      3  HN  UNL     1      65.152   5.993   7.720  1.00  0.00     0.187 HD
HETATM    4  C   UNL     1      64.296   7.560   4.977  1.00  0.00     0.062 A 
HETATM    5  C   UNL     1      65.514   8.139   5.300  1.00  0.00     0.060 A 
HETATM    6  C   UNL     1      65.955   7.520   6.486  1.00  0.00     0.053 A 
HETATM    7  C   UNL     1      62.922   5.830   6.273  1.00  0.00     0.178 C 
ENDROOT
BRANCH   4   8
HETATM    8  C   UNL     1      63.433   7.855   3.824  1.00  0.00    -0.008 A 
HETATM    9  C   UNL     1      62.726   9.069   3.774  1.00  0.00     0.014 A 
HETATM   10  C   UNL     1      61.938   9.406   2.670  1.00  0.00     0.001 A 
HETATM   11  C   UNL     1      61.824   8.522   1.600  1.00  0.00     0.000 A 
HETATM   12  C   UNL     1      62.519   7.316   1.630  1.00  0.00     0.001 A 
HETATM   13  C   UNL     1      63.336   7.002   2.716  1.00  0.00     0.014 A 
ENDBRANCH   4   8
BRANCH   6  14
HETATM   14  C   UNL     1      67.215   7.791   7.245  1.00  0.00     0.288 C 
BRANCH  14  15
HETATM   15  N   UNL     1      67.117   7.199   8.580  1.00  0.00    -0.074 N 
HETATM   16  H   UNL     1      67.910   7.500   9.145  1.00  0.00     0.274 HD
HETATM   17  H   UNL     1      67.120   6.182   8.502  1.00  0.00     0.274 HD
HETATM   18  H   UNL     1      66.250   7.503   9.023  1.00  0.00     0.274 HD
ENDBRANCH  14  15
ENDBRANCH   6  14
TORSDOF 3
ENDMDL
