MODEL 1
REMARK VINA RESULT:      -5.8      0.000      0.000
REMARK  4 active torsions:
REMARK  status: ('A' for Active; 'I' for Inactive)
REMARK    1  A    between atoms: C_3  and  C_9 
REMARK    2  A    between atoms: C_4  and  C_8 
REMARK    3  A    between atoms: C_6  and  C_17 
REMARK    4  A    between atoms: C_17  and  O_18 
ROOT
HETATM    1  C   UNK     1      62.651   8.832   2.780  1.00  0.00     0.048 A 
HETATM    2  C   UNK     1      63.955   7.458   4.896  1.00  0.00    -0.002 A 
HETATM    3  C   UNK     1      62.860   9.456   4.015  1.00  0.00     0.017 A 
HETATM    4  C   UNK     1      63.086   7.510   2.614  1.00  0.00     0.017 A 
HETATM    5  C   UNK     1      63.502   8.777   5.059  1.00  0.00     0.015 A 
HETATM    6  C   UNK     1      63.725   6.832   3.661  1.00  0.00     0.015 A 
ENDROOT
BRANCH   2   7
HETATM    7  C   UNK     1      64.639   6.716   5.972  1.00  0.00     0.084 A 
HETATM    8  N   UNK     1      65.298   7.279   6.972  1.00  0.00    -0.351 N 
HETATM    9  C   UNK     1      65.853   6.304   7.800  1.00  0.00     0.040 A 
ATOM     10  HN  UNK     1      65.387   8.284   7.118  1.00  0.00     0.166 HD
HETATM   11  C   UNK     1      65.554   5.006   7.442  1.00  0.00     0.079 A 
HETATM   12  S   UNK     1      64.590   4.991   6.034  1.00  0.00    -0.081 SA
BRANCH   9  13
HETATM   13  C   UNK     1      66.680   6.736   8.966  1.00  0.00     0.221 C 
BRANCH  13  14
HETATM   14  O   UNK     1      68.069   6.534   8.727  1.00  0.00    -0.395 OA
HETATM   15  H   UNK     1      68.203   6.261   7.806  1.00  0.00     0.209 HD
ENDBRANCH  13  14
ENDBRANCH   9  13
ENDBRANCH   2   7
BRANCH   1  16
HETATM   16  C   UNK     1      61.970   9.561   1.645  1.00  0.00     0.417 C 
HETATM   17  F   UNK     1      61.801  10.893   1.878  1.00  0.00    -0.166 F 
HETATM   18  F   UNK     1      62.666   9.473   0.478  1.00  0.00    -0.166 F 
HETATM   19  F   UNK     1      60.728   9.070   1.380  1.00  0.00    -0.166 F 
ENDBRANCH   1  16
TORSDOF 4
ENDMDL
MODEL 2
REMARK VINA RESULT:      -5.6      0.240      1.495
REMARK  4 active torsions:
REMARK  status: ('A' for Active; 'I' for Inactive)
REMARK    1  A    between atoms: C_3  and  C_9 
REMARK    2  A    between atoms: C_4  and  C_8 
REMARK    3  A    between atoms: C_6  and  C_17 
REMARK    4  A    between atoms: C_17  and  O_18 
ROOT
HETATM    1  C   UNK     1      62.668   8.831   2.840  1.00  0.00     0.048 A 
HETATM    2  C   UNK     1      64.024   7.429   4.904  1.00  0.00    -0.002 A 
HETATM    3  C   UNK     1      63.194   7.555   2.610  1.00  0.00     0.017 A 
HETATM    4  C   UNK     1      62.836   9.408   4.108  1.00  0.00     0.017 A 
HETATM    5  C   UNK     1      63.865   6.865   3.627  1.00  0.00     0.015 A 
HETATM    6  C   UNK     1      63.510   8.716   5.122  1.00  0.00     0.015 A 
ENDROOT
BRANCH   2   7
HETATM    7  C   UNK     1      64.720   6.726   5.999  1.00  0.00     0.084 A 
HETATM    8  N   UNK     1      65.424   7.322   6.948  1.00  0.00    -0.351 N 
HETATM    9  C   UNK     1      65.977   6.377   7.811  1.00  0.00     0.040 A 
ATOM     10  HN  UNK     1      65.545   8.331   7.036  1.00  0.00     0.166 HD
HETATM   11  C   UNK     1      65.631   5.071   7.533  1.00  0.00     0.079 A 
HETATM   12  S   UNK     1      64.625   5.009   6.156  1.00  0.00    -0.081 SA
BRANCH   9  13
HETATM   13  C   UNK     1      66.849   6.846   8.928  1.00  0.00     0.221 C 
BRANCH  13  14
HETATM   14  O   UNK     1      67.864   5.895   9.236  1.00  0.00    -0.395 OA
HETATM   15  H   UNK     1      68.519   5.879   8.522  1.00  0.00     0.209 HD
ENDBRANCH  13  14
ENDBRANCH   9  13
ENDBRANCH   2   7
BRANCH   1  16
HETATM   16  C   UNK     1      61.933   9.579   1.752  1.00  0.00     0.417 C 
HETATM   17  F   UNK     1      60.667   9.120   1.537  1.00  0.00    -0.166 F 
HETATM   18  F   UNK     1      61.806  10.906   2.027  1.00  0.00    -0.166 F 
HETATM   19  F   UNK     1      62.565   9.503   0.549  1.00  0.00    -0.166 F 
ENDBRANCH   1  16
TORSDOF 4
ENDMDL
MODEL 3
REMARK VINA RESULT:      -5.3      5.278      6.969
REMARK  4 active torsions:
REMARK  status: ('A' for Active; 'I' for Inactive)
REMARK    1  A    between atoms: C_3  and  C_9 
REMARK    2  A    between atoms: C_4  and  C_8 
REMARK    3  A    between atoms: C_6  and  C_17 
REMARK    4  A    between atoms: C_17  and  O_18 
ROOT
HETATM    1  C   UNK     1      66.178   6.579   7.152  1.00  0.00     0.048 A 
HETATM    2  C   UNK     1      64.442   7.799   5.265  1.00  0.00    -0.002 A 
HETATM    3  C   UNK     1      66.577   7.722   6.451  1.00  0.00     0.017 A 
HETATM    4  C   UNK     1      64.909   6.040   6.893  1.00  0.00     0.017 A 
HETATM    5  C   UNK     1      65.721   8.323   5.519  1.00  0.00     0.015 A 
HETATM    6  C   UNK     1      64.057   6.642   5.957  1.00  0.00     0.015 A 
ENDROOT
BRANCH   2   7
HETATM    7  C   UNK     1      63.514   8.411   4.294  1.00  0.00     0.084 A 
HETATM    8  N   UNK     1      63.196   9.695   4.264  1.00  0.00    -0.351 N 
HETATM    9  C   UNK     1      62.274   9.945   3.249  1.00  0.00     0.040 A 
ATOM     10  HN  UNK     1      63.572  10.403   4.894  1.00  0.00     0.166 HD
HETATM   11  C   UNK     1      61.950   8.846   2.481  1.00  0.00     0.079 A 
HETATM   12  S   UNK     1      62.781   7.467   3.047  1.00  0.00    -0.081 SA
BRANCH   9  13
HETATM   13  C   UNK     1      61.750  11.333   3.078  1.00  0.00     0.221 C 
BRANCH  13  14
HETATM   14  O   UNK     1      62.138  11.888   1.825  1.00  0.00    -0.395 OA
HETATM   15  H   UNK     1      63.082  11.727   1.678  1.00  0.00     0.209 HD
ENDBRANCH  13  14
ENDBRANCH   9  13
ENDBRANCH   2   7
BRANCH   1  16
HETATM   16  C   UNK     1      67.089   5.930   8.167  1.00  0.00     0.417 C 
HETATM   17  F   UNK     1      68.063   5.157   7.608  1.00  0.00    -0.166 F 
HETATM   18  F   UNK     1      67.740   6.842   8.941  1.00  0.00    -0.166 F 
HETATM   19  F   UNK     1      66.418   5.117   9.028  1.00  0.00    -0.166 F 
ENDBRANCH   1  16
TORSDOF 4
ENDMDL
MODEL 4
REMARK VINA RESULT:      -5.0      5.265      7.058
REMARK  4 active torsions:
REMARK  status: ('A' for Active; 'I' for Inactive)
REMARK    1  A    between atoms: C_3  and  C_9 
REMARK    2  A    between atoms: C_4  and  C_8 
REMARK    3  A    between atoms: C_6  and  C_17 
REMARK    4  A    between atoms: C_17  and  O_18 
ROOT
HETATM    1  C   UNK     1      65.877   6.913   7.080  1.00  0.00     0.048 A 
HETATM    2  C   UNK     1      64.179   8.210   5.210  1.00  0.00    -0.002 A 
HETATM    3  C   UNK     1      64.560   6.479   6.891  1.00  0.00     0.017 A 
HETATM    4  C   UNK     1      66.336   8.010   6.337  1.00  0.00     0.017 A 
HETATM    5  C   UNK     1      63.723   7.121   5.969  1.00  0.00     0.015 A 
HETATM    6  C   UNK     1      65.495   8.651   5.418  1.00  0.00     0.015 A 
ENDROOT
BRANCH   2   7
HETATM    7  C   UNK     1      63.325   8.904   4.226  1.00  0.00     0.084 A 
HETATM    8  N   UNK     1      63.046   8.447   3.017  1.00  0.00    -0.351 N 
HETATM    9  C   UNK     1      62.240   9.352   2.328  1.00  0.00     0.040 A 
ATOM     10  HN  UNK     1      63.375   7.558   2.641  1.00  0.00     0.166 HD
HETATM   11  C   UNK     1      61.869  10.463   3.055  1.00  0.00     0.079 A 
HETATM   12  S   UNK     1      62.558  10.402   4.615  1.00  0.00    -0.081 SA
BRANCH   9  13
HETATM   13  C   UNK     1      61.850   9.040   0.920  1.00  0.00     0.221 C 
BRANCH  13  14
HETATM   14  O   UNK     1      61.257   7.750   0.814  1.00  0.00    -0.395 OA
HETATM   15  H   UNK     1      61.837   7.168   0.299  1.00  0.00     0.209 HD
ENDBRANCH  13  14
ENDBRANCH   9  13
ENDBRANCH   2   7
BRANCH   1  16
HETATM   16  C   UNK     1      66.791   6.221   8.064  1.00  0.00     0.417 C 
HETATM   17  F   UNK     1      66.152   5.307   8.848  1.00  0.00    -0.166 F 
HETATM   18  F   UNK     1      67.799   5.542   7.450  1.00  0.00    -0.166 F 
HETATM   19  F   UNK     1      67.391   7.091   8.921  1.00  0.00    -0.166 F 
ENDBRANCH   1  16
TORSDOF 4
ENDMDL
MODEL 5
REMARK VINA RESULT:      -5.0      5.232      6.940
REMARK  4 active torsions:
REMARK  status: ('A' for Active; 'I' for Inactive)
REMARK    1  A    between atoms: C_3  and  C_9 
REMARK    2  A    between atoms: C_4  and  C_8 
REMARK    3  A    between atoms: C_6  and  C_17 
REMARK    4  A    between atoms: C_17  and  O_18 
ROOT
HETATM    1  C   UNK     1      65.559   7.873   5.029  1.00  0.00     0.048 A 
HETATM    2  C   UNK     1      63.227   7.913   3.411  1.00  0.00    -0.002 A 
HETATM    3  C   UNK     1      65.344   6.884   4.064  1.00  0.00     0.017 A 
HETATM    4  C   UNK     1      64.593   8.876   5.191  1.00  0.00     0.017 A 
HETATM    5  C   UNK     1      64.192   6.903   3.267  1.00  0.00     0.015 A 
HETATM    6  C   UNK     1      63.441   8.891   4.394  1.00  0.00     0.015 A 
ENDROOT
BRANCH   2   7
HETATM    7  C   UNK     1      62.005   7.966   2.584  1.00  0.00     0.084 A 
HETATM    8  N   UNK     1      60.815   7.538   2.971  1.00  0.00    -0.351 N 
HETATM    9  C   UNK     1      59.882   7.701   1.948  1.00  0.00     0.040 A 
ATOM     10  HN  UNK     1      60.609   7.145   3.889  1.00  0.00     0.166 HD
HETATM   11  C   UNK     1      60.373   8.309   0.812  1.00  0.00     0.079 A 
HETATM   12  S   UNK     1      62.032   8.659   1.002  1.00  0.00    -0.081 SA
BRANCH   9  13
HETATM   13  C   UNK     1      58.481   7.234   2.172  1.00  0.00     0.221 C 
BRANCH  13  14
HETATM   14  O   UNK     1      57.622   7.629   1.106  1.00  0.00    -0.395 OA
HETATM   15  H   UNK     1      57.888   8.504   0.783  1.00  0.00     0.209 HD
ENDBRANCH  13  14
ENDBRANCH   9  13
ENDBRANCH   2   7
BRANCH   1  16
HETATM   16  C   UNK     1      66.804   7.867   5.886  1.00  0.00     0.417 C 
HETATM   17  F   UNK     1      66.791   8.810   6.870  1.00  0.00    -0.166 F 
HETATM   18  F   UNK     1      66.996   6.675   6.517  1.00  0.00    -0.166 F 
HETATM   19  F   UNK     1      67.935   8.098   5.165  1.00  0.00    -0.166 F 
ENDBRANCH   1  16
TORSDOF 4
ENDMDL
MODEL 6
REMARK VINA RESULT:      -4.9      1.710      2.335
REMARK  4 active torsions:
REMARK  status: ('A' for Active; 'I' for Inactive)
REMARK    1  A    between atoms: C_3  and  C_9 
REMARK    2  A    between atoms: C_4  and  C_8 
REMARK    3  A    between atoms: C_6  and  C_17 
REMARK    4  A    between atoms: C_17  and  O_18 
ROOT
HETATM    1  C   UNK     1      63.136   8.830   3.652  1.00  0.00     0.048 A 
HETATM    2  C   UNK     1      64.969   6.915   4.671  1.00  0.00    -0.002 A 
HETATM    3  C   UNK     1      63.432   7.669   2.928  1.00  0.00     0.017 A 
HETATM    4  C   UNK     1      63.774   9.034   4.884  1.00  0.00     0.017 A 
HETATM    5  C   UNK     1      64.337   6.727   3.431  1.00  0.00     0.015 A 
HETATM    6  C   UNK     1      64.681   8.090   5.381  1.00  0.00     0.015 A 
ENDROOT
BRANCH   2   7
HETATM    7  C   UNK     1      65.923   5.939   5.231  1.00  0.00     0.084 A 
HETATM    8  N   UNK     1      66.028   5.642   6.515  1.00  0.00    -0.351 N 
HETATM    9  C   UNK     1      67.043   4.708   6.718  1.00  0.00     0.040 A 
ATOM     10  HN  UNK     1      65.449   6.040   7.254  1.00  0.00     0.166 HD
HETATM   11  C   UNK     1      67.656   4.264   5.566  1.00  0.00     0.079 A 
HETATM   12  S   UNK     1      66.984   5.043   4.204  1.00  0.00    -0.081 SA
BRANCH   9  13
HETATM   13  C   UNK     1      67.353   4.274   8.113  1.00  0.00     0.221 C 
BRANCH  13  14
HETATM   14  O   UNK     1      66.557   4.970   9.068  1.00  0.00    -0.395 OA
HETATM   15  H   UNK     1      66.120   5.721   8.638  1.00  0.00     0.209 HD
ENDBRANCH  13  14
ENDBRANCH   9  13
ENDBRANCH   2   7
BRANCH   1  16
HETATM   16  C   UNK     1      62.152   9.847   3.124  1.00  0.00     0.417 C 
HETATM   17  F   UNK     1      60.850   9.517   3.357  1.00  0.00    -0.166 F 
HETATM   18  F   UNK     1      62.327  11.079   3.678  1.00  0.00    -0.166 F 
HETATM   19  F   UNK     1      62.255  10.023   1.778  1.00  0.00    -0.166 F 
ENDBRANCH   1  16
TORSDOF 4
ENDMDL
MODEL 7
REMARK VINA RESULT:      -4.8      2.001      2.466
REMARK  4 active torsions:
REMARK  status: ('A' for Active; 'I' for Inactive)
REMARK    1  A    between atoms: C_3  and  C_9 
REMARK    2  A    between atoms: C_4  and  C_8 
REMARK    3  A    between atoms: C_6  and  C_17 
REMARK    4  A    between atoms: C_17  and  O_18 
ROOT
HETATM    1  C   UNK     1      62.908   8.570   3.140  1.00  0.00     0.048 A 
HETATM    2  C   UNK     1      64.895   7.290   4.714  1.00  0.00    -0.002 A 
HETATM    3  C   UNK     1      63.443   7.338   2.749  1.00  0.00     0.017 A 
HETATM    4  C   UNK     1      63.382   9.166   4.318  1.00  0.00     0.017 A 
HETATM    5  C   UNK     1      64.425   6.708   3.525  1.00  0.00     0.015 A 
HETATM    6  C   UNK     1      64.366   8.534   5.089  1.00  0.00     0.015 A 
ENDROOT
BRANCH   2   7
HETATM    7  C   UNK     1      65.923   6.650   5.557  1.00  0.00     0.084 A 
HETATM    8  N   UNK     1      66.410   5.436   5.358  1.00  0.00    -0.351 N 
HETATM    9  C   UNK     1      67.341   5.116   6.345  1.00  0.00     0.040 A 
ATOM     10  HN  UNK     1      66.143   4.821   4.590  1.00  0.00     0.166 HD
HETATM   11  C   UNK     1      67.589   6.126   7.252  1.00  0.00     0.079 A 
HETATM   12  S   UNK     1      66.627   7.489   6.893  1.00  0.00    -0.081 SA
BRANCH   9  13
HETATM   13  C   UNK     1      67.976   3.765   6.325  1.00  0.00     0.221 C 
BRANCH  13  14
HETATM   14  O   UNK     1      67.535   2.996   5.210  1.00  0.00    -0.395 OA
HETATM   15  H   UNK     1      67.369   2.083   5.492  1.00  0.00     0.209 HD
ENDBRANCH  13  14
ENDBRANCH   9  13
ENDBRANCH   2   7
BRANCH   1  16
HETATM   16  C   UNK     1      61.841   9.253   2.316  1.00  0.00     0.417 C 
HETATM   17  F   UNK     1      61.580  10.530   2.715  1.00  0.00    -0.166 F 
HETATM   18  F   UNK     1      62.175   9.336   0.999  1.00  0.00    -0.166 F 
HETATM   19  F   UNK     1      60.648   8.598   2.361  1.00  0.00    -0.166 F 
ENDBRANCH   1  16
TORSDOF 4
ENDMDL
MODEL 8
REMARK VINA RESULT:      -4.7      4.178      4.481
REMARK  4 active torsions:
REMARK  status: ('A' for Active; 'I' for Inactive)
REMARK    1  A    between atoms: C_3  and  C_9 
REMARK    2  A    between atoms: C_4  and  C_8 
REMARK    3  A    between atoms: C_6  and  C_17 
REMARK    4  A    between atoms: C_17  and  O_18 
ROOT
HETATM    1  C   UNK     1      61.340   8.317   2.771  1.00  0.00     0.048 A 
HETATM    2  C   UNK     1      60.853   6.602   4.982  1.00  0.00    -0.002 A 
HETATM    3  C   UNK     1      62.291   8.177   3.789  1.00  0.00     0.017 A 
HETATM    4  C   UNK     1      60.137   7.604   2.873  1.00  0.00     0.017 A 
HETATM    5  C   UNK     1      62.049   7.332   4.880  1.00  0.00     0.015 A 
HETATM    6  C   UNK     1      59.898   6.763   3.967  1.00  0.00     0.015 A 
ENDROOT
BRANCH   2   7
HETATM    7  C   UNK     1      60.570   5.699   6.114  1.00  0.00     0.084 A 
HETATM    8  N   UNK     1      59.647   5.915   7.036  1.00  0.00    -0.351 N 
HETATM    9  C   UNK     1      59.653   4.892   7.982  1.00  0.00     0.040 A 
ATOM     10  HN  UNK     1      59.018   6.719   7.053  1.00  0.00     0.166 HD
HETATM   11  C   UNK     1      60.550   3.876   7.726  1.00  0.00     0.079 A 
HETATM   12  S   UNK     1      61.427   4.211   6.301  1.00  0.00    -0.081 SA
BRANCH   9  13
HETATM   13  C   UNK     1      58.710   4.974   9.138  1.00  0.00     0.221 C 
BRANCH  13  14
HETATM   14  O   UNK     1      58.617   6.302   9.644  1.00  0.00    -0.395 OA
HETATM   15  H   UNK     1      59.463   6.758   9.513  1.00  0.00     0.209 HD
ENDBRANCH  13  14
ENDBRANCH   9  13
ENDBRANCH   2   7
BRANCH   1  16
HETATM   16  C   UNK     1      61.597   9.218   1.586  1.00  0.00     0.417 C 
HETATM   17  F   UNK     1      62.771   8.953   0.946  1.00  0.00    -0.166 F 
HETATM   18  F   UNK     1      60.626   9.117   0.636  1.00  0.00    -0.166 F 
HETATM   19  F   UNK     1      61.650  10.533   1.931  1.00  0.00    -0.166 F 
ENDBRANCH   1  16
TORSDOF 4
ENDMDL
MODEL 9
REMARK VINA RESULT:      -4.7      5.177      6.747
REMARK  4 active torsions:
REMARK  status: ('A' for Active; 'I' for Inactive)
REMARK    1  A    between atoms: C_3  and  C_9 
REMARK    2  A    between atoms: C_4  and  C_8 
REMARK    3  A    between atoms: C_6  and  C_17 
REMARK    4  A    between atoms: C_17  and  O_18 
ROOT
HETATM    1  C   UNK     1      65.302   7.583   6.117  1.00  0.00     0.048 A 
HETATM    2  C   UNK     1      62.863   7.318   4.687  1.00  0.00    -0.002 A 
HETATM    3  C   UNK     1      64.996   8.449   5.061  1.00  0.00     0.017 A 
HETATM    4  C   UNK     1      64.385   6.574   6.445  1.00  0.00     0.017 A 
HETATM    5  C   UNK     1      63.793   8.316   4.355  1.00  0.00     0.015 A 
HETATM    6  C   UNK     1      63.185   6.442   5.735  1.00  0.00     0.015 A 
ENDROOT
BRANCH   2   7
HETATM    7  C   UNK     1      61.584   7.156   3.968  1.00  0.00     0.084 A 
HETATM    8  N   UNK     1      61.369   7.540   2.721  1.00  0.00    -0.351 N 
HETATM    9  C   UNK     1      60.052   7.273   2.349  1.00  0.00     0.040 A 
ATOM     10  HN  UNK     1      62.067   7.972   2.116  1.00  0.00     0.166 HD
HETATM   11  C   UNK     1      59.301   6.630   3.310  1.00  0.00     0.079 A 
HETATM   12  S   UNK     1      60.235   6.379   4.716  1.00  0.00    -0.081 SA
BRANCH   9  13
HETATM   13  C   UNK     1      59.593   7.676   0.986  1.00  0.00     0.221 C 
BRANCH  13  14
HETATM   14  O   UNK     1      58.613   8.707   1.048  1.00  0.00    -0.395 OA
HETATM   15  H   UNK     1      58.694   9.181   1.890  1.00  0.00     0.209 HD
ENDBRANCH  13  14
ENDBRANCH   9  13
ENDBRANCH   2   7
BRANCH   1  16
HETATM   16  C   UNK     1      66.591   7.725   6.891  1.00  0.00     0.417 C 
HETATM   17  F   UNK     1      66.546   7.160   8.131  1.00  0.00    -0.166 F 
HETATM   18  F   UNK     1      67.646   7.143   6.257  1.00  0.00    -0.166 F 
HETATM   19  F   UNK     1      66.942   9.026   7.088  1.00  0.00    -0.166 F 
ENDBRANCH   1  16
TORSDOF 4
ENDMDL
