MODEL 1
REMARK VINA RESULT:      -5.4      0.000      0.000
REMARK  3 active torsions:
REMARK  status: ('A' for Active; 'I' for Inactive)
REMARK    1  A    between atoms: C_4  and  C_7 
REMARK    2  A    between atoms: C_6  and  C_9 
REMARK    3  A    between atoms: C_9  and  O_10 
ROOT
HETATM    1  N   UNL     1      63.470   7.356   6.124  1.00  0.00    -0.296 N 
HETATM    2  N   UNL     1      64.430   6.765   6.874  1.00  0.00    -0.300 N 
ATOM      3  HN  UNL     1      64.309   6.069   7.610  1.00  0.00     0.187 HD
HETATM    4  C   UNL     1      63.960   8.289   5.232  1.00  0.00     0.062 A 
HETATM    5  C   UNL     1      65.336   8.233   5.405  1.00  0.00     0.060 A 
HETATM    6  C   UNL     1      65.572   7.300   6.431  1.00  0.00     0.051 A 
HETATM    7  C   UNL     1      62.111   6.916   6.347  1.00  0.00     0.178 C 
ENDROOT
BRANCH   4   8
HETATM    8  C   UNL     1      63.202   9.130   4.291  1.00  0.00    -0.008 A 
HETATM    9  C   UNL     1      62.828   8.690   3.015  1.00  0.00     0.014 A 
HETATM   10  C   UNL     1      62.093   9.515   2.155  1.00  0.00     0.001 A 
HETATM   11  C   UNL     1      61.684  10.778   2.573  1.00  0.00     0.000 A 
HETATM   12  C   UNL     1      62.017  11.221   3.849  1.00  0.00     0.001 A 
HETATM   13  C   UNL     1      62.775  10.407   4.695  1.00  0.00     0.014 A 
ENDBRANCH   4   8
BRANCH   6  14
HETATM   14  C   UNL     1      66.881   6.878   7.011  1.00  0.00     0.222 C 
BRANCH  14  15
HETATM   15  O   UNL     1      67.270   7.700   8.114  1.00  0.00    -0.395 OA
HETATM   16  H   UNL     1      66.694   7.515   8.873  1.00  0.00     0.209 HD
ENDBRANCH  14  15
ENDBRANCH   6  14
TORSDOF 3
ENDMDL
MODEL 2
REMARK VINA RESULT:      -5.1      1.747      2.634
REMARK  3 active torsions:
REMARK  status: ('A' for Active; 'I' for Inactive)
REMARK    1  A    between atoms: C_4  and  C_7 
REMARK    2  A    between atoms: C_6  and  C_9 
REMARK    3  A    between atoms: C_9  and  O_10 
ROOT
HETATM    1  N   UNL     1      63.419   9.696   4.893  1.00  0.00    -0.296 N 
HETATM    2  N   UNL     1      64.502   9.563   5.694  1.00  0.00    -0.300 N 
ATOM      3  HN  UNL     1      64.843  10.217   6.399  1.00  0.00     0.187 HD
HETATM    4  C   UNL     1      63.248   8.645   4.014  1.00  0.00     0.062 A 
HETATM    5  C   UNL     1      64.273   7.766   4.333  1.00  0.00     0.060 A 
HETATM    6  C   UNL     1      65.023   8.379   5.354  1.00  0.00     0.051 A 
HETATM    7  C   UNL     1      62.611  10.879   5.087  1.00  0.00     0.178 C 
ENDROOT
BRANCH   4   8
HETATM    8  C   UNL     1      62.200   8.478   2.993  1.00  0.00    -0.008 A 
HETATM    9  C   UNL     1      62.384   8.843   1.654  1.00  0.00     0.014 A 
HETATM   10  C   UNL     1      61.367   8.652   0.709  1.00  0.00     0.001 A 
HETATM   11  C   UNL     1      60.165   8.056   1.082  1.00  0.00     0.000 A 
HETATM   12  C   UNL     1      59.976   7.656   2.401  1.00  0.00     0.001 A 
HETATM   13  C   UNL     1      60.982   7.873   3.347  1.00  0.00     0.014 A 
ENDBRANCH   4   8
BRANCH   6  14
HETATM   14  C   UNL     1      66.240   7.861   6.043  1.00  0.00     0.222 C 
BRANCH  14  15
HETATM   15  O   UNL     1      66.813   8.830   6.925  1.00  0.00    -0.395 OA
HETATM   16  H   UNL     1      67.180   9.561   6.404  1.00  0.00     0.209 HD
ENDBRANCH  14  15
ENDBRANCH   6  14
TORSDOF 3
ENDMDL
MODEL 3
REMARK VINA RESULT:      -4.6      2.354      5.327
REMARK  3 active torsions:
REMARK  status: ('A' for Active; 'I' for Inactive)
REMARK    1  A    between atoms: C_4  and  C_7 
REMARK    2  A    between atoms: C_6  and  C_9 
REMARK    3  A    between atoms: C_9  and  O_10 
ROOT
HETATM    1  N   UNL     1      63.108   7.341   4.775  1.00  0.00    -0.296 N 
HETATM    2  N   UNL     1      62.188   8.196   4.272  1.00  0.00    -0.300 N 
ATOM      3  HN  UNL     1      61.281   7.969   3.863  1.00  0.00     0.187 HD
HETATM    4  C   UNL     1      64.257   7.964   5.222  1.00  0.00     0.062 A 
HETATM    5  C   UNL     1      64.004   9.316   5.032  1.00  0.00     0.060 A 
HETATM    6  C   UNL     1      62.735   9.405   4.432  1.00  0.00     0.051 A 
HETATM    7  C   UNL     1      62.753   5.940   4.788  1.00  0.00     0.178 C 
ENDROOT
BRANCH   4   8
HETATM    8  C   UNL     1      65.460   7.343   5.799  1.00  0.00    -0.008 A 
HETATM    9  C   UNL     1      65.514   6.882   7.121  1.00  0.00     0.014 A 
HETATM   10  C   UNL     1      66.674   6.281   7.627  1.00  0.00     0.001 A 
HETATM   11  C   UNL     1      67.784   6.095   6.807  1.00  0.00     0.000 A 
HETATM   12  C   UNL     1      67.738   6.517   5.482  1.00  0.00     0.001 A 
HETATM   13  C   UNL     1      66.590   7.141   4.987  1.00  0.00     0.014 A 
ENDBRANCH   4   8
BRANCH   6  14
HETATM   14  C   UNL     1      62.000  10.632   4.008  1.00  0.00     0.222 C 
BRANCH  14  15
HETATM   15  O   UNL     1      62.308  11.757   4.835  1.00  0.00    -0.395 OA
HETATM   16  H   UNL     1      62.310  12.563   4.295  1.00  0.00     0.209 HD
ENDBRANCH  14  15
ENDBRANCH   6  14
TORSDOF 3
ENDMDL
MODEL 4
REMARK VINA RESULT:      -4.2      2.865      4.377
REMARK  3 active torsions:
REMARK  status: ('A' for Active; 'I' for Inactive)
REMARK    1  A    between atoms: C_4  and  C_7 
REMARK    2  A    between atoms: C_6  and  C_9 
REMARK    3  A    between atoms: C_9  and  O_10 
ROOT
HETATM    1  N   UNL     1      64.807   7.971   5.162  1.00  0.00    -0.296 N 
HETATM    2  N   UNL     1      64.737   9.181   5.764  1.00  0.00    -0.300 N 
ATOM      3  HN  UNL     1      65.400   9.593   6.420  1.00  0.00     0.187 HD
HETATM    4  C   UNL     1      63.724   7.691   4.352  1.00  0.00     0.062 A 
HETATM    5  C   UNL     1      62.949   8.840   4.415  1.00  0.00     0.060 A 
HETATM    6  C   UNL     1      63.600   9.714   5.304  1.00  0.00     0.051 A 
HETATM    7  C   UNL     1      65.988   7.181   5.431  1.00  0.00     0.178 C 
ENDROOT
BRANCH   4   8
HETATM    8  C   UNL     1      63.465   6.468   3.574  1.00  0.00    -0.008 A 
HETATM    9  C   UNL     1      62.876   5.327   4.132  1.00  0.00     0.014 A 
HETATM   10  C   UNL     1      62.631   4.189   3.354  1.00  0.00     0.001 A 
HETATM   11  C   UNL     1      62.935   4.188   1.995  1.00  0.00     0.000 A 
HETATM   12  C   UNL     1      63.490   5.324   1.415  1.00  0.00     0.001 A 
HETATM   13  C   UNL     1      63.760   6.449   2.200  1.00  0.00     0.014 A 
ENDBRANCH   4   8
BRANCH   6  14
HETATM   14  C   UNL     1      63.176  11.079   5.733  1.00  0.00     0.222 C 
BRANCH  14  15
HETATM   15  O   UNL     1      64.185  11.739   6.502  1.00  0.00    -0.395 OA
HETATM   16  H   UNL     1      63.845  11.920   7.391  1.00  0.00     0.209 HD
ENDBRANCH  14  15
ENDBRANCH   6  14
TORSDOF 3
ENDMDL
MODEL 5
REMARK VINA RESULT:      -4.2      3.080      5.191
REMARK  3 active torsions:
REMARK  status: ('A' for Active; 'I' for Inactive)
REMARK    1  A    between atoms: C_4  and  C_7 
REMARK    2  A    between atoms: C_6  and  C_9 
REMARK    3  A    between atoms: C_9  and  O_10 
ROOT
HETATM    1  N   UNL     1      61.418   8.071   3.842  1.00  0.00    -0.296 N 
HETATM    2  N   UNL     1      60.951   9.279   3.452  1.00  0.00    -0.300 N 
ATOM      3  HN  UNL     1      60.018   9.507   3.108  1.00  0.00     0.187 HD
HETATM    4  C   UNL     1      62.746   8.087   4.223  1.00  0.00     0.062 A 
HETATM    5  C   UNL     1      63.113   9.421   4.112  1.00  0.00     0.060 A 
HETATM    6  C   UNL     1      61.987  10.107   3.620  1.00  0.00     0.051 A 
HETATM    7  C   UNL     1      60.477   6.974   3.824  1.00  0.00     0.178 C 
ENDROOT
BRANCH   4   8
HETATM    8  C   UNL     1      63.574   6.957   4.675  1.00  0.00    -0.008 A 
HETATM    9  C   UNL     1      64.460   6.282   3.826  1.00  0.00     0.014 A 
HETATM   10  C   UNL     1      65.243   5.221   4.299  1.00  0.00     0.001 A 
HETATM   11  C   UNL     1      65.182   4.846   5.638  1.00  0.00     0.000 A 
HETATM   12  C   UNL     1      64.332   5.525   6.505  1.00  0.00     0.001 A 
HETATM   13  C   UNL     1      63.531   6.565   6.024  1.00  0.00     0.014 A 
ENDBRANCH   4   8
BRANCH   6  14
HETATM   14  C   UNL     1      61.855  11.560   3.310  1.00  0.00     0.222 C 
BRANCH  14  15
HETATM   15  O   UNL     1      62.065  12.378   4.464  1.00  0.00    -0.395 OA
HETATM   16  H   UNL     1      61.737  11.915   5.250  1.00  0.00     0.209 HD
ENDBRANCH  14  15
ENDBRANCH   6  14
TORSDOF 3
ENDMDL
MODEL 6
REMARK VINA RESULT:      -4.1      2.273      3.426
REMARK  3 active torsions:
REMARK  status: ('A' for Active; 'I' for Inactive)
REMARK    1  A    between atoms: C_4  and  C_7 
REMARK    2  A    between atoms: C_6  and  C_9 
REMARK    3  A    between atoms: C_9  and  O_10 
ROOT
HETATM    1  N   UNL     1      67.064   6.897   5.384  1.00  0.00    -0.296 N 
HETATM    2  N   UNL     1      67.775   5.988   6.092  1.00  0.00    -0.300 N 
ATOM      3  HN  UNL     1      68.784   5.957   6.235  1.00  0.00     0.187 HD
HETATM    4  C   UNL     1      65.709   6.636   5.351  1.00  0.00     0.062 A 
HETATM    5  C   UNL     1      65.561   5.508   6.147  1.00  0.00     0.060 A 
HETATM    6  C   UNL     1      66.854   5.140   6.562  1.00  0.00     0.051 A 
HETATM    7  C   UNL     1      67.809   7.990   4.801  1.00  0.00     0.178 C 
ENDROOT
BRANCH   4   8
HETATM    8  C   UNL     1      64.655   7.397   4.659  1.00  0.00    -0.008 A 
HETATM    9  C   UNL     1      64.174   8.624   5.130  1.00  0.00     0.014 A 
HETATM   10  C   UNL     1      63.182   9.325   4.433  1.00  0.00     0.001 A 
HETATM   11  C   UNL     1      62.684   8.828   3.231  1.00  0.00     0.000 A 
HETATM   12  C   UNL     1      63.173   7.626   2.730  1.00  0.00     0.001 A 
HETATM   13  C   UNL     1      64.143   6.915   3.442  1.00  0.00     0.014 A 
ENDBRANCH   4   8
BRANCH   6  14
HETATM   14  C   UNL     1      67.254   3.988   7.422  1.00  0.00     0.222 C 
BRANCH  14  15
HETATM   15  O   UNL     1      66.154   3.474   8.177  1.00  0.00    -0.395 OA
HETATM   16  H   UNL     1      66.133   2.508   8.099  1.00  0.00     0.209 HD
ENDBRANCH  14  15
ENDBRANCH   6  14
TORSDOF 3
ENDMDL
MODEL 7
REMARK VINA RESULT:      -4.0      3.994      5.846
REMARK  3 active torsions:
REMARK  status: ('A' for Active; 'I' for Inactive)
REMARK    1  A    between atoms: C_4  and  C_7 
REMARK    2  A    between atoms: C_6  and  C_9 
REMARK    3  A    between atoms: C_9  and  O_10 
ROOT
HETATM    1  N   UNL     1      61.311   8.453   1.955  1.00  0.00    -0.296 N 
HETATM    2  N   UNL     1      59.978   8.391   1.735  1.00  0.00    -0.300 N 
ATOM      3  HN  UNL     1      59.450   8.804   0.966  1.00  0.00     0.187 HD
HETATM    4  C   UNL     1      61.713   7.818   3.113  1.00  0.00     0.062 A 
HETATM    5  C   UNL     1      60.543   7.271   3.622  1.00  0.00     0.060 A 
HETATM    6  C   UNL     1      59.507   7.664   2.754  1.00  0.00     0.051 A 
HETATM    7  C   UNL     1      62.101   9.140   0.958  1.00  0.00     0.178 C 
ENDROOT
BRANCH   4   8
HETATM    8  C   UNL     1      63.073   7.714   3.666  1.00  0.00    -0.008 A 
HETATM    9  C   UNL     1      63.986   6.737   3.251  1.00  0.00     0.014 A 
HETATM   10  C   UNL     1      65.278   6.682   3.791  1.00  0.00     0.001 A 
HETATM   11  C   UNL     1      65.689   7.629   4.726  1.00  0.00     0.000 A 
HETATM   12  C   UNL     1      64.807   8.627   5.127  1.00  0.00     0.001 A 
HETATM   13  C   UNL     1      63.510   8.663   4.607  1.00  0.00     0.014 A 
ENDBRANCH   4   8
BRANCH   6  14
HETATM   14  C   UNL     1      58.051   7.354   2.855  1.00  0.00     0.222 C 
BRANCH  14  15
HETATM   15  O   UNL     1      57.519   7.684   4.141  1.00  0.00    -0.395 OA
HETATM   16  H   UNL     1      57.078   8.546   4.095  1.00  0.00     0.209 HD
ENDBRANCH  14  15
ENDBRANCH   6  14
TORSDOF 3
ENDMDL
MODEL 8
REMARK VINA RESULT:      -4.0     12.078     13.671
REMARK  3 active torsions:
REMARK  status: ('A' for Active; 'I' for Inactive)
REMARK    1  A    between atoms: C_4  and  C_7 
REMARK    2  A    between atoms: C_6  and  C_9 
REMARK    3  A    between atoms: C_9  and  O_10 
ROOT
HETATM    1  N   UNL     1      54.811   2.802  11.993  1.00  0.00    -0.296 N 
HETATM    2  N   UNL     1      53.770   3.647  12.173  1.00  0.00    -0.300 N 
ATOM      3  HN  UNL     1      53.043   3.895  11.502  1.00  0.00     0.187 HD
HETATM    4  C   UNL     1      55.645   2.709  13.090  1.00  0.00     0.062 A 
HETATM    5  C   UNL     1      55.042   3.517  14.043  1.00  0.00     0.060 A 
HETATM    6  C   UNL     1      53.909   4.083  13.429  1.00  0.00     0.051 A 
HETATM    7  C   UNL     1      54.882   2.122  10.719  1.00  0.00     0.178 C 
ENDROOT
BRANCH   4   8
HETATM    8  C   UNL     1      56.874   1.911  13.231  1.00  0.00    -0.008 A 
HETATM    9  C   UNL     1      56.916   0.704  13.940  1.00  0.00     0.014 A 
HETATM   10  C   UNL     1      58.102  -0.034  14.037  1.00  0.00     0.001 A 
HETATM   11  C   UNL     1      59.256   0.402  13.390  1.00  0.00     0.000 A 
HETATM   12  C   UNL     1      59.226   1.582  12.653  1.00  0.00     0.001 A 
HETATM   13  C   UNL     1      58.048   2.331  12.582  1.00  0.00     0.014 A 
ENDBRANCH   4   8
BRANCH   6  14
HETATM   14  C   UNL     1      52.922   5.036  14.014  1.00  0.00     0.222 C 
BRANCH  14  15
HETATM   15  O   UNL     1      53.551   6.031  14.826  1.00  0.00    -0.395 OA
HETATM   16  H   UNL     1      52.877   6.628  15.185  1.00  0.00     0.209 HD
ENDBRANCH  14  15
ENDBRANCH   6  14
TORSDOF 3
ENDMDL
MODEL 9
REMARK VINA RESULT:      -3.9      3.095      3.487
REMARK  3 active torsions:
REMARK  status: ('A' for Active; 'I' for Inactive)
REMARK    1  A    between atoms: C_4  and  C_7 
REMARK    2  A    between atoms: C_6  and  C_9 
REMARK    3  A    between atoms: C_9  and  O_10 
ROOT
HETATM    1  N   UNL     1      60.919   6.627   3.730  1.00  0.00    -0.296 N 
HETATM    2  N   UNL     1      61.303   5.359   4.003  1.00  0.00    -0.300 N 
ATOM      3  HN  UNL     1      60.711   4.562   4.237  1.00  0.00     0.187 HD
HETATM    4  C   UNL     1      61.973   7.486   3.487  1.00  0.00     0.062 A 
HETATM    5  C   UNL     1      63.095   6.673   3.561  1.00  0.00     0.060 A 
HETATM    6  C   UNL     1      62.636   5.386   3.896  1.00  0.00     0.051 A 
HETATM    7  C   UNL     1      59.496   6.884   3.713  1.00  0.00     0.178 C 
ENDROOT
BRANCH   4   8
HETATM    8  C   UNL     1      61.920   8.926   3.186  1.00  0.00    -0.008 A 
HETATM    9  C   UNL     1      62.012   9.910   4.178  1.00  0.00     0.014 A 
HETATM   10  C   UNL     1      61.973  11.271   3.849  1.00  0.00     0.001 A 
HETATM   11  C   UNL     1      61.883  11.669   2.518  1.00  0.00     0.000 A 
HETATM   12  C   UNL     1      61.823  10.707   1.515  1.00  0.00     0.001 A 
HETATM   13  C   UNL     1      61.834   9.349   1.848  1.00  0.00     0.014 A 
ENDBRANCH   4   8
BRANCH   6  14
HETATM   14  C   UNL     1      63.438   4.146   4.110  1.00  0.00     0.222 C 
BRANCH  14  15
HETATM   15  O   UNL     1      64.171   4.186   5.338  1.00  0.00    -0.395 OA
HETATM   16  H   UNL     1      63.568   4.021   6.079  1.00  0.00     0.209 HD
ENDBRANCH  14  15
ENDBRANCH   6  14
TORSDOF 3
ENDMDL
