MODEL 1
REMARK VINA RESULT:      -5.2      0.000      0.000
REMARK  3 active torsions:
REMARK  status: ('A' for Active; 'I' for Inactive)
REMARK    1  A    between atoms: C_4  and  C_8 
REMARK    2  A    between atoms: C_6  and  C_7 
REMARK    3  A    between atoms: C_8  and  O_10 
ROOT
HETATM    1  N   UNL     1      64.595   7.691   6.504  1.00  0.00    -0.298 N 
ATOM      2  HN  UNL     1      63.907   7.974   7.202  1.00  0.00     0.187 HD
HETATM    3  N   UNL     1      65.628   6.847   6.669  1.00  0.00    -0.298 N 
HETATM    4  C   UNL     1      66.378   6.676   5.536  1.00  0.00     0.053 A 
HETATM    5  C   UNL     1      65.768   7.461   4.579  1.00  0.00     0.060 A 
HETATM    6  C   UNL     1      64.664   8.081   5.221  1.00  0.00     0.060 A 
HETATM    7  C   UNL     1      65.799   6.233   7.966  1.00  0.00     0.177 C 
ENDROOT
BRANCH   6   8
HETATM    8  C   UNL     1      63.682   9.000   4.645  1.00  0.00    -0.008 A 
HETATM    9  C   UNL     1      63.057   8.694   3.427  1.00  0.00     0.014 A 
HETATM   10  C   UNL     1      62.131   9.572   2.859  1.00  0.00     0.001 A 
HETATM   11  C   UNL     1      61.815  10.765   3.505  1.00  0.00     0.000 A 
HETATM   12  C   UNL     1      62.423  11.080   4.721  1.00  0.00     0.001 A 
HETATM   13  C   UNL     1      63.353  10.203   5.287  1.00  0.00     0.014 A 
ENDBRANCH   6   8
BRANCH   4  14
HETATM   14  C   UNL     1      67.558   5.792   5.438  1.00  0.00     0.222 C 
BRANCH  14  15
HETATM   15  O   UNL     1      67.600   5.296   4.110  1.00  0.00    -0.395 OA
HETATM   16  H   UNL     1      67.787   6.025   3.499  1.00  0.00     0.209 HD
ENDBRANCH  14  15
ENDBRANCH   4  14
TORSDOF 3
ENDMDL
MODEL 2
REMARK VINA RESULT:      -5.2      2.060      2.775
REMARK  3 active torsions:
REMARK  status: ('A' for Active; 'I' for Inactive)
REMARK    1  A    between atoms: C_4  and  C_8 
REMARK    2  A    between atoms: C_6  and  C_7 
REMARK    3  A    between atoms: C_8  and  O_10 
ROOT
HETATM    1  N   UNL     1      62.208   7.120   4.951  1.00  0.00    -0.298 N 
ATOM      2  HN  UNL     1      61.275   6.930   4.584  1.00  0.00     0.187 HD
HETATM    3  N   UNL     1      62.916   6.369   5.813  1.00  0.00    -0.298 N 
HETATM    4  C   UNL     1      64.140   6.901   6.120  1.00  0.00     0.053 A 
HETATM    5  C   UNL     1      64.217   8.070   5.391  1.00  0.00     0.060 A 
HETATM    6  C   UNL     1      62.994   8.174   4.679  1.00  0.00     0.060 A 
HETATM    7  C   UNL     1      62.328   5.132   6.272  1.00  0.00     0.177 C 
ENDROOT
BRANCH   6   8
HETATM    8  C   UNL     1      62.575   9.223   3.748  1.00  0.00    -0.008 A 
HETATM    9  C   UNL     1      62.311  10.519   4.217  1.00  0.00     0.014 A 
HETATM   10  C   UNL     1      61.893  11.523   3.342  1.00  0.00     0.001 A 
HETATM   11  C   UNL     1      61.741  11.246   1.985  1.00  0.00     0.000 A 
HETATM   12  C   UNL     1      62.007   9.964   1.503  1.00  0.00     0.001 A 
HETATM   13  C   UNL     1      62.421   8.958   2.380  1.00  0.00     0.014 A 
ENDBRANCH   6   8
BRANCH   4  14
HETATM   14  C   UNL     1      65.121   6.273   7.028  1.00  0.00     0.222 C 
BRANCH  14  15
HETATM   15  O   UNL     1      65.956   7.308   7.522  1.00  0.00    -0.395 OA
HETATM   16  H   UNL     1      66.404   7.005   8.326  1.00  0.00     0.209 HD
ENDBRANCH  14  15
ENDBRANCH   4  14
TORSDOF 3
ENDMDL
MODEL 3
REMARK VINA RESULT:      -5.1      1.614      1.662
REMARK  3 active torsions:
REMARK  status: ('A' for Active; 'I' for Inactive)
REMARK    1  A    between atoms: C_4  and  C_8 
REMARK    2  A    between atoms: C_6  and  C_7 
REMARK    3  A    between atoms: C_8  and  O_10 
ROOT
HETATM    1  N   UNL     1      63.571   6.881   5.485  1.00  0.00    -0.298 N 
ATOM      2  HN  UNL     1      62.647   6.505   5.273  1.00  0.00     0.187 HD
HETATM    3  N   UNL     1      64.569   6.272   6.149  1.00  0.00    -0.298 N 
HETATM    4  C   UNL     1      65.690   7.049   6.278  1.00  0.00     0.053 A 
HETATM    5  C   UNL     1      65.383   8.233   5.637  1.00  0.00     0.060 A 
HETATM    6  C   UNL     1      64.054   8.091   5.161  1.00  0.00     0.060 A 
HETATM    7  C   UNL     1      64.349   4.920   6.608  1.00  0.00     0.177 C 
ENDROOT
BRANCH   6   8
HETATM    8  C   UNL     1      63.258   9.056   4.401  1.00  0.00    -0.008 A 
HETATM    9  C   UNL     1      62.842   8.756   3.095  1.00  0.00     0.014 A 
HETATM   10  C   UNL     1      62.097   9.675   2.354  1.00  0.00     0.001 A 
HETATM   11  C   UNL     1      61.754  10.905   2.911  1.00  0.00     0.000 A 
HETATM   12  C   UNL     1      62.155  11.215   4.212  1.00  0.00     0.001 A 
HETATM   13  C   UNL     1      62.904  10.296   4.952  1.00  0.00     0.014 A 
ENDBRANCH   6   8
BRANCH   4  14
HETATM   14  C   UNL     1      66.934   6.619   6.949  1.00  0.00     0.222 C 
BRANCH  14  15
HETATM   15  O   UNL     1      67.233   7.591   7.938  1.00  0.00    -0.395 OA
HETATM   16  H   UNL     1      67.431   7.149   8.777  1.00  0.00     0.209 HD
ENDBRANCH  14  15
ENDBRANCH   4  14
TORSDOF 3
ENDMDL
MODEL 4
REMARK VINA RESULT:      -5.0      1.631      2.377
REMARK  3 active torsions:
REMARK  status: ('A' for Active; 'I' for Inactive)
REMARK    1  A    between atoms: C_4  and  C_8 
REMARK    2  A    between atoms: C_6  and  C_7 
REMARK    3  A    between atoms: C_8  and  O_10 
ROOT
HETATM    1  N   UNL     1      65.857   8.030   5.052  1.00  0.00    -0.298 N 
ATOM      2  HN  UNL     1      66.348   8.601   4.363  1.00  0.00     0.187 HD
HETATM    3  N   UNL     1      66.384   7.104   5.872  1.00  0.00    -0.298 N 
HETATM    4  C   UNL     1      65.456   6.502   6.680  1.00  0.00     0.053 A 
HETATM    5  C   UNL     1      64.254   7.099   6.356  1.00  0.00     0.060 A 
HETATM    6  C   UNL     1      64.544   8.042   5.335  1.00  0.00     0.060 A 
HETATM    7  C   UNL     1      67.810   6.884   5.815  1.00  0.00     0.177 C 
ENDROOT
BRANCH   6   8
HETATM    8  C   UNL     1      63.620   8.949   4.653  1.00  0.00    -0.008 A 
HETATM    9  C   UNL     1      63.275  10.177   5.238  1.00  0.00     0.014 A 
HETATM   10  C   UNL     1      62.381  11.043   4.606  1.00  0.00     0.001 A 
HETATM   11  C   UNL     1      61.826  10.695   3.377  1.00  0.00     0.000 A 
HETATM   12  C   UNL     1      62.165   9.480   2.779  1.00  0.00     0.001 A 
HETATM   13  C   UNL     1      63.056   8.612   3.414  1.00  0.00     0.014 A 
ENDBRANCH   6   8
BRANCH   4  14
HETATM   14  C   UNL     1      65.768   5.463   7.683  1.00  0.00     0.222 C 
BRANCH  14  15
HETATM   15  O   UNL     1      66.168   6.133   8.868  1.00  0.00    -0.395 OA
HETATM   16  H   UNL     1      67.108   6.361   8.809  1.00  0.00     0.209 HD
ENDBRANCH  14  15
ENDBRANCH   4  14
TORSDOF 3
ENDMDL
MODEL 5
REMARK VINA RESULT:      -4.8      2.811      5.630
REMARK  3 active torsions:
REMARK  status: ('A' for Active; 'I' for Inactive)
REMARK    1  A    between atoms: C_4  and  C_8 
REMARK    2  A    between atoms: C_6  and  C_7 
REMARK    3  A    between atoms: C_8  and  O_10 
ROOT
HETATM    1  N   UNL     1      63.871   7.759   3.576  1.00  0.00    -0.298 N 
ATOM      2  HN  UNL     1      64.167   6.892   3.127  1.00  0.00     0.187 HD
HETATM    3  N   UNL     1      62.926   8.617   3.155  1.00  0.00    -0.298 N 
HETATM    4  C   UNL     1      62.766   9.699   3.980  1.00  0.00     0.053 A 
HETATM    5  C   UNL     1      63.670   9.506   5.006  1.00  0.00     0.060 A 
HETATM    6  C   UNL     1      64.342   8.290   4.717  1.00  0.00     0.060 A 
HETATM    7  C   UNL     1      62.210   8.292   1.943  1.00  0.00     0.177 C 
ENDROOT
BRANCH   6   8
HETATM    8  C   UNL     1      65.387   7.626   5.498  1.00  0.00    -0.008 A 
HETATM    9  C   UNL     1      66.719   7.653   5.062  1.00  0.00     0.014 A 
HETATM   10  C   UNL     1      67.722   7.009   5.789  1.00  0.00     0.001 A 
HETATM   11  C   UNL     1      67.405   6.333   6.966  1.00  0.00     0.000 A 
HETATM   12  C   UNL     1      66.084   6.304   7.416  1.00  0.00     0.001 A 
HETATM   13  C   UNL     1      65.080   6.945   6.685  1.00  0.00     0.014 A 
ENDBRANCH   6   8
BRANCH   4  14
HETATM   14  C   UNL     1      61.786  10.783   3.759  1.00  0.00     0.222 C 
BRANCH  14  15
HETATM   15  O   UNL     1      62.237  11.909   4.494  1.00  0.00    -0.395 OA
HETATM   16  H   UNL     1      62.909  12.382   3.979  1.00  0.00     0.209 HD
ENDBRANCH  14  15
ENDBRANCH   4  14
TORSDOF 3
ENDMDL
MODEL 6
REMARK VINA RESULT:      -4.8      1.642      2.327
REMARK  3 active torsions:
REMARK  status: ('A' for Active; 'I' for Inactive)
REMARK    1  A    between atoms: C_4  and  C_8 
REMARK    2  A    between atoms: C_6  and  C_7 
REMARK    3  A    between atoms: C_8  and  O_10 
ROOT
HETATM    1  N   UNL     1      63.735   6.532   4.949  1.00  0.00    -0.298 N 
ATOM      2  HN  UNL     1      63.020   5.900   4.586  1.00  0.00     0.187 HD
HETATM    3  N   UNL     1      64.651   6.272   5.898  1.00  0.00    -0.298 N 
HETATM    4  C   UNL     1      65.470   7.336   6.169  1.00  0.00     0.053 A 
HETATM    5  C   UNL     1      65.049   8.340   5.321  1.00  0.00     0.060 A 
HETATM    6  C   UNL     1      63.964   7.803   4.581  1.00  0.00     0.060 A 
HETATM    7  C   UNL     1      64.669   4.948   6.475  1.00  0.00     0.177 C 
ENDROOT
BRANCH   6   8
HETATM    8  C   UNL     1      63.171   8.454   3.536  1.00  0.00    -0.008 A 
HETATM    9  C   UNL     1      62.638   9.734   3.749  1.00  0.00     0.014 A 
HETATM   10  C   UNL     1      61.865  10.358   2.767  1.00  0.00     0.001 A 
HETATM   11  C   UNL     1      61.621   9.711   1.557  1.00  0.00     0.000 A 
HETATM   12  C   UNL     1      62.152   8.441   1.328  1.00  0.00     0.001 A 
HETATM   13  C   UNL     1      62.921   7.815   2.313  1.00  0.00     0.014 A 
ENDBRANCH   6   8
BRANCH   4  14
HETATM   14  C   UNL     1      66.569   7.315   7.157  1.00  0.00     0.222 C 
BRANCH  14  15
HETATM   15  O   UNL     1      67.749   7.710   6.476  1.00  0.00    -0.395 OA
HETATM   16  H   UNL     1      68.487   7.743   7.103  1.00  0.00     0.209 HD
ENDBRANCH  14  15
ENDBRANCH   4  14
TORSDOF 3
ENDMDL
MODEL 7
REMARK VINA RESULT:      -4.2      2.419      5.776
REMARK  3 active torsions:
REMARK  status: ('A' for Active; 'I' for Inactive)
REMARK    1  A    between atoms: C_4  and  C_8 
REMARK    2  A    between atoms: C_6  and  C_7 
REMARK    3  A    between atoms: C_8  and  O_10 
ROOT
HETATM    1  N   UNL     1      63.959   6.871   4.771  1.00  0.00    -0.298 N 
ATOM      2  HN  UNL     1      63.642   5.960   4.438  1.00  0.00     0.187 HD
HETATM    3  N   UNL     1      63.309   8.045   4.684  1.00  0.00    -0.298 N 
HETATM    4  C   UNL     1      64.007   9.094   5.222  1.00  0.00     0.053 A 
HETATM    5  C   UNL     1      65.181   8.541   5.694  1.00  0.00     0.060 A 
HETATM    6  C   UNL     1      65.116   7.156   5.391  1.00  0.00     0.060 A 
HETATM    7  C   UNL     1      61.998   8.049   4.078  1.00  0.00     0.177 C 
ENDROOT
BRANCH   6   8
HETATM    8  C   UNL     1      66.102   6.117   5.691  1.00  0.00    -0.008 A 
HETATM    9  C   UNL     1      67.036   6.306   6.720  1.00  0.00     0.014 A 
HETATM   10  C   UNL     1      67.993   5.329   7.004  1.00  0.00     0.001 A 
HETATM   11  C   UNL     1      68.022   4.148   6.267  1.00  0.00     0.000 A 
HETATM   12  C   UNL     1      67.094   3.942   5.245  1.00  0.00     0.001 A 
HETATM   13  C   UNL     1      66.140   4.922   4.958  1.00  0.00     0.014 A 
ENDBRANCH   6   8
BRANCH   4  14
HETATM   14  C   UNL     1      63.517  10.487   5.272  1.00  0.00     0.222 C 
BRANCH  14  15
HETATM   15  O   UNL     1      64.352  11.190   6.178  1.00  0.00    -0.395 OA
HETATM   16  H   UNL     1      64.985  10.575   6.578  1.00  0.00     0.209 HD
ENDBRANCH  14  15
ENDBRANCH   4  14
TORSDOF 3
ENDMDL
MODEL 8
REMARK VINA RESULT:      -4.2     12.783     14.465
REMARK  3 active torsions:
REMARK  status: ('A' for Active; 'I' for Inactive)
REMARK    1  A    between atoms: C_4  and  C_8 
REMARK    2  A    between atoms: C_6  and  C_7 
REMARK    3  A    between atoms: C_8  and  O_10 
ROOT
HETATM    1  N   UNL     1      55.980   0.528  14.389  1.00  0.00    -0.298 N 
ATOM      2  HN  UNL     1      55.976  -0.385  14.843  1.00  0.00     0.187 HD
HETATM    3  N   UNL     1      55.000   1.448  14.392  1.00  0.00    -0.298 N 
HETATM    4  C   UNL     1      55.310   2.576  13.680  1.00  0.00     0.053 A 
HETATM    5  C   UNL     1      56.586   2.360  13.199  1.00  0.00     0.060 A 
HETATM    6  C   UNL     1      56.967   1.072  13.658  1.00  0.00     0.060 A 
HETATM    7  C   UNL     1      53.797   1.151  15.135  1.00  0.00     0.177 C 
ENDROOT
BRANCH   6   8
HETATM    8  C   UNL     1      58.234   0.372  13.438  1.00  0.00    -0.008 A 
HETATM    9  C   UNL     1      59.327   1.049  12.879  1.00  0.00     0.014 A 
HETATM   10  C   UNL     1      60.535   0.387  12.648  1.00  0.00     0.001 A 
HETATM   11  C   UNL     1      60.666  -0.960  12.979  1.00  0.00     0.000 A 
HETATM   12  C   UNL     1      59.589  -1.645  13.544  1.00  0.00     0.001 A 
HETATM   13  C   UNL     1      58.379  -0.983  13.771  1.00  0.00     0.014 A 
ENDBRANCH   6   8
BRANCH   4  14
HETATM   14  C   UNL     1      54.419   3.745  13.534  1.00  0.00     0.222 C 
BRANCH  14  15
HETATM   15  O   UNL     1      54.572   4.536  14.702  1.00  0.00    -0.395 OA
HETATM   16  H   UNL     1      54.083   5.366  14.597  1.00  0.00     0.209 HD
ENDBRANCH  14  15
ENDBRANCH   4  14
TORSDOF 3
ENDMDL
MODEL 9
REMARK VINA RESULT:      -4.1     10.071     11.904
REMARK  3 active torsions:
REMARK  status: ('A' for Active; 'I' for Inactive)
REMARK    1  A    between atoms: C_4  and  C_8 
REMARK    2  A    between atoms: C_6  and  C_7 
REMARK    3  A    between atoms: C_8  and  O_10 
ROOT
HETATM    1  N   UNL     1      61.447  -0.005  10.937  1.00  0.00    -0.298 N 
ATOM      2  HN  UNL     1      60.739   0.229  10.241  1.00  0.00     0.187 HD
HETATM    3  N   UNL     1      62.748  -0.268  10.722  1.00  0.00    -0.298 N 
HETATM    4  C   UNL     1      63.441  -0.557  11.868  1.00  0.00     0.053 A 
HETATM    5  C   UNL     1      62.512  -0.460  12.885  1.00  0.00     0.060 A 
HETATM    6  C   UNL     1      61.281  -0.119  12.264  1.00  0.00     0.060 A 
HETATM    7  C   UNL     1      63.238  -0.193   9.366  1.00  0.00     0.177 C 
ENDROOT
BRANCH   6   8
HETATM    8  C   UNL     1      59.983   0.117  12.898  1.00  0.00    -0.008 A 
HETATM    9  C   UNL     1      59.617   1.410  13.297  1.00  0.00     0.014 A 
HETATM   10  C   UNL     1      58.388   1.645  13.918  1.00  0.00     0.001 A 
HETATM   11  C   UNL     1      57.509   0.588  14.144  1.00  0.00     0.000 A 
HETATM   12  C   UNL     1      57.856  -0.703  13.746  1.00  0.00     0.001 A 
HETATM   13  C   UNL     1      59.088  -0.938  13.128  1.00  0.00     0.014 A 
ENDBRANCH   6   8
BRANCH   4  14
HETATM   14  C   UNL     1      64.884  -0.866  11.918  1.00  0.00     0.222 C 
BRANCH  14  15
HETATM   15  O   UNL     1      65.517   0.202  12.605  1.00  0.00    -0.395 OA
HETATM   16  H   UNL     1      65.775  -0.092  13.491  1.00  0.00     0.209 HD
ENDBRANCH  14  15
ENDBRANCH   4  14
TORSDOF 3
ENDMDL
