MODEL 1
REMARK VINA RESULT:      -5.7      0.000      0.000
REMARK  2 active torsions:
REMARK  status: ('A' for Active; 'I' for Inactive)
REMARK    1  A    between atoms: C_1  and  C_3 
REMARK    2  A    between atoms: C_2  and  C_4 
ROOT
HETATM    1  C   UNL     1      62.986   8.654   3.599  1.00  0.00     0.015 A 
HETATM    2  C   UNL     1      62.415   9.942   3.568  1.00  0.00     0.053 A 
HETATM    3  C   UNL     1      61.700  10.360   2.422  1.00  0.00     0.019 A 
HETATM    4  C   UNL     1      62.829   7.830   2.463  1.00  0.00     0.015 A 
HETATM    5  C   UNL     1      62.122   8.258   1.336  1.00  0.00     0.001 A 
HETATM    6  C   UNL     1      61.550   9.521   1.318  1.00  0.00     0.001 A 
ENDROOT
BRANCH   1   7
HETATM    7  C   UNL     1      63.785   8.128   4.708  1.00  0.00     0.086 A 
HETATM    8  O   UNL     1      63.096   7.353   5.611  1.00  0.00    -0.322 OA
HETATM    9  C   UNL     1      63.989   6.895   6.525  1.00  0.00     0.142 A 
HETATM   10  C   UNL     1      65.248   7.357   6.236  1.00  0.00     0.027 A 
HETATM   11  C   UNL     1      65.114   8.158   5.075  1.00  0.00     0.040 A 
ENDBRANCH   1   7
BRANCH   2  12
HETATM   12  C   UNL     1      62.474  10.892   4.711  1.00  0.00     0.210 C 
HETATM   13  O   UNL     1      62.827  10.670   5.852  1.00  0.00    -0.644 OA
HETATM   14  O   UNL     1      62.075  12.128   4.354  1.00  0.00    -0.644 OA
ENDBRANCH   2  12
TORSDOF 2
ENDMDL
MODEL 2
REMARK VINA RESULT:      -5.6      1.721      4.282
REMARK  2 active torsions:
REMARK  status: ('A' for Active; 'I' for Inactive)
REMARK    1  A    between atoms: C_1  and  C_3 
REMARK    2  A    between atoms: C_2  and  C_4 
ROOT
HETATM    1  C   UNL     1      62.133   8.321   4.353  1.00  0.00     0.015 A 
HETATM    2  C   UNL     1      63.176   8.179   5.289  1.00  0.00     0.053 A 
HETATM    3  C   UNL     1      63.169   7.083   6.183  1.00  0.00     0.019 A 
HETATM    4  C   UNL     1      61.102   7.355   4.357  1.00  0.00     0.015 A 
HETATM    5  C   UNL     1      61.106   6.278   5.248  1.00  0.00     0.001 A 
HETATM    6  C   UNL     1      62.143   6.137   6.156  1.00  0.00     0.001 A 
ENDROOT
BRANCH   1   7
HETATM    7  C   UNL     1      62.009   9.435   3.412  1.00  0.00     0.086 A 
HETATM    8  O   UNL     1      61.751  10.659   3.982  1.00  0.00    -0.322 OA
HETATM    9  C   UNL     1      61.735  11.582   2.987  1.00  0.00     0.142 A 
HETATM   10  C   UNL     1      61.977  10.983   1.777  1.00  0.00     0.027 A 
HETATM   11  C   UNL     1      62.141   9.602   2.049  1.00  0.00     0.040 A 
ENDBRANCH   1   7
BRANCH   2  12
HETATM   12  C   UNL     1      64.340   9.103   5.364  1.00  0.00     0.210 C 
HETATM   13  O   UNL     1      64.384  10.216   5.848  1.00  0.00    -0.644 OA
HETATM   14  O   UNL     1      65.443   8.563   4.807  1.00  0.00    -0.644 OA
ENDBRANCH   2  12
TORSDOF 2
ENDMDL
MODEL 3
REMARK VINA RESULT:      -5.4      1.791      2.379
REMARK  2 active torsions:
REMARK  status: ('A' for Active; 'I' for Inactive)
REMARK    1  A    between atoms: C_1  and  C_3 
REMARK    2  A    between atoms: C_2  and  C_4 
ROOT
HETATM    1  C   UNL     1      62.853   8.397   3.050  1.00  0.00     0.015 A 
HETATM    2  C   UNL     1      62.830   9.382   4.058  1.00  0.00     0.053 A 
HETATM    3  C   UNL     1      62.299  10.661   3.773  1.00  0.00     0.019 A 
HETATM    4  C   UNL     1      62.349   8.740   1.776  1.00  0.00     0.015 A 
HETATM    5  C   UNL     1      61.829  10.009   1.507  1.00  0.00     0.001 A 
HETATM    6  C   UNL     1      61.797  10.968   2.508  1.00  0.00     0.001 A 
ENDROOT
BRANCH   1   7
HETATM    7  C   UNL     1      63.418   7.057   3.212  1.00  0.00     0.086 A 
HETATM    8  O   UNL     1      62.498   6.048   3.379  1.00  0.00    -0.322 OA
HETATM    9  C   UNL     1      63.179   4.876   3.445  1.00  0.00     0.142 A 
HETATM   10  C   UNL     1      64.528   5.101   3.326  1.00  0.00     0.027 A 
HETATM   11  C   UNL     1      64.680   6.503   3.188  1.00  0.00     0.040 A 
ENDBRANCH   1   7
BRANCH   2  12
HETATM   12  C   UNL     1      63.293   9.138   5.450  1.00  0.00     0.210 C 
HETATM   13  O   UNL     1      62.784   8.431   6.297  1.00  0.00    -0.644 OA
HETATM   14  O   UNL     1      64.424   9.818   5.727  1.00  0.00    -0.644 OA
ENDBRANCH   2  12
TORSDOF 2
ENDMDL
MODEL 4
REMARK VINA RESULT:      -5.2      2.061      3.263
REMARK  2 active torsions:
REMARK  status: ('A' for Active; 'I' for Inactive)
REMARK    1  A    between atoms: C_1  and  C_3 
REMARK    2  A    between atoms: C_2  and  C_4 
ROOT
HETATM    1  C   UNL     1      63.618   8.920   4.861  1.00  0.00     0.015 A 
HETATM    2  C   UNL     1      62.952   8.429   3.720  1.00  0.00     0.053 A 
HETATM    3  C   UNL     1      62.051   9.266   3.023  1.00  0.00     0.019 A 
HETATM    4  C   UNL     1      63.342  10.242   5.272  1.00  0.00     0.015 A 
HETATM    5  C   UNL     1      62.447  11.058   4.575  1.00  0.00     0.001 A 
HETATM    6  C   UNL     1      61.806  10.573   3.445  1.00  0.00     0.001 A 
ENDROOT
BRANCH   1   7
HETATM    7  C   UNL     1      64.535   8.134   5.688  1.00  0.00     0.086 A 
HETATM    8  O   UNL     1      65.764   8.711   5.912  1.00  0.00    -0.322 OA
HETATM    9  C   UNL     1      66.457   7.892   6.743  1.00  0.00     0.142 A 
HETATM   10  C   UNL     1      65.705   6.791   7.066  1.00  0.00     0.027 A 
HETATM   11  C   UNL     1      64.475   6.942   6.379  1.00  0.00     0.040 A 
ENDBRANCH   1   7
BRANCH   2  12
HETATM   12  C   UNL     1      63.182   7.069   3.160  1.00  0.00     0.210 C 
HETATM   13  O   UNL     1      64.110   6.688   2.475  1.00  0.00    -0.644 OA
HETATM   14  O   UNL     1      62.197   6.215   3.502  1.00  0.00    -0.644 OA
ENDBRANCH   2  12
TORSDOF 2
ENDMDL
MODEL 5
REMARK VINA RESULT:      -5.1      2.007      3.214
REMARK  2 active torsions:
REMARK  status: ('A' for Active; 'I' for Inactive)
REMARK    1  A    between atoms: C_1  and  C_3 
REMARK    2  A    between atoms: C_2  and  C_4 
ROOT
HETATM    1  C   UNL     1      62.353   9.037   3.715  1.00  0.00     0.015 A 
HETATM    2  C   UNL     1      62.219   8.811   2.330  1.00  0.00     0.053 A 
HETATM    3  C   UNL     1      61.939   9.897   1.470  1.00  0.00     0.019 A 
HETATM    4  C   UNL     1      62.185  10.356   4.191  1.00  0.00     0.015 A 
HETATM    5  C   UNL     1      61.906  11.420   3.329  1.00  0.00     0.001 A 
HETATM    6  C   UNL     1      61.790  11.192   1.967  1.00  0.00     0.001 A 
ENDROOT
BRANCH   1   7
HETATM    7  C   UNL     1      62.595   7.988   4.707  1.00  0.00     0.086 A 
HETATM    8  O   UNL     1      63.892   7.894   5.155  1.00  0.00    -0.322 OA
HETATM    9  C   UNL     1      63.928   6.929   6.109  1.00  0.00     0.142 A 
HETATM   10  C   UNL     1      62.680   6.391   6.291  1.00  0.00     0.027 A 
HETATM   11  C   UNL     1      61.827   7.064   5.382  1.00  0.00     0.040 A 
ENDBRANCH   1   7
BRANCH   2  12
HETATM   12  C   UNL     1      62.410   7.479   1.696  1.00  0.00     0.210 C 
HETATM   13  O   UNL     1      63.413   6.793   1.681  1.00  0.00    -0.644 OA
HETATM   14  O   UNL     1      61.286   7.049   1.090  1.00  0.00    -0.644 OA
ENDBRANCH   2  12
TORSDOF 2
ENDMDL
MODEL 6
REMARK VINA RESULT:      -5.1      1.539      3.990
REMARK  2 active torsions:
REMARK  status: ('A' for Active; 'I' for Inactive)
REMARK    1  A    between atoms: C_1  and  C_3 
REMARK    2  A    between atoms: C_2  and  C_4 
ROOT
HETATM    1  C   UNL     1      63.189   8.043   3.322  1.00  0.00     0.015 A 
HETATM    2  C   UNL     1      63.441   8.944   4.375  1.00  0.00     0.053 A 
HETATM    3  C   UNL     1      64.576   8.759   5.196  1.00  0.00     0.019 A 
HETATM    4  C   UNL     1      64.089   6.969   3.138  1.00  0.00     0.015 A 
HETATM    5  C   UNL     1      65.206   6.797   3.959  1.00  0.00     0.001 A 
HETATM    6  C   UNL     1      65.455   7.696   4.984  1.00  0.00     0.001 A 
ENDROOT
BRANCH   1   7
HETATM    7  C   UNL     1      62.025   8.105   2.437  1.00  0.00     0.086 A 
HETATM    8  O   UNL     1      60.878   7.530   2.934  1.00  0.00    -0.322 OA
HETATM    9  C   UNL     1      59.889   7.734   2.027  1.00  0.00     0.142 A 
HETATM   10  C   UNL     1      60.368   8.431   0.947  1.00  0.00     0.027 A 
HETATM   11  C   UNL     1      61.742   8.658   1.206  1.00  0.00     0.040 A 
ENDBRANCH   1   7
BRANCH   2  12
HETATM   12  C   UNL     1      62.595  10.137   4.651  1.00  0.00     0.210 C 
HETATM   13  O   UNL     1      61.692  10.588   3.976  1.00  0.00    -0.644 OA
HETATM   14  O   UNL     1      62.933  10.730   5.814  1.00  0.00    -0.644 OA
ENDBRANCH   2  12
TORSDOF 2
ENDMDL
MODEL 7
REMARK VINA RESULT:      -5.0      1.254      4.870
REMARK  2 active torsions:
REMARK  status: ('A' for Active; 'I' for Inactive)
REMARK    1  A    between atoms: C_1  and  C_3 
REMARK    2  A    between atoms: C_2  and  C_4 
ROOT
HETATM    1  C   UNL     1      63.978   8.184   5.178  1.00  0.00     0.015 A 
HETATM    2  C   UNL     1      63.579   7.042   5.901  1.00  0.00     0.053 A 
HETATM    3  C   UNL     1      64.507   6.391   6.744  1.00  0.00     0.019 A 
HETATM    4  C   UNL     1      65.312   8.627   5.320  1.00  0.00     0.015 A 
HETATM    5  C   UNL     1      66.220   7.971   6.156  1.00  0.00     0.001 A 
HETATM    6  C   UNL     1      65.816   6.857   6.874  1.00  0.00     0.001 A 
ENDROOT
BRANCH   1   7
HETATM    7  C   UNL     1      63.122   8.914   4.241  1.00  0.00     0.086 A 
HETATM    8  O   UNL     1      62.657  10.127   4.693  1.00  0.00    -0.322 OA
HETATM    9  C   UNL     1      61.944  10.695   3.687  1.00  0.00     0.142 A 
HETATM   10  C   UNL     1      61.935   9.876   2.587  1.00  0.00     0.027 A 
HETATM   11  C   UNL     1      62.682   8.727   2.948  1.00  0.00     0.040 A 
ENDBRANCH   1   7
BRANCH   2  12
HETATM   12  C   UNL     1      62.195   6.497   5.871  1.00  0.00     0.210 C 
HETATM   13  O   UNL     1      61.673   5.826   5.004  1.00  0.00    -0.644 OA
HETATM   14  O   UNL     1      61.503   6.831   6.978  1.00  0.00    -0.644 OA
ENDBRANCH   2  12
TORSDOF 2
ENDMDL
MODEL 8
REMARK VINA RESULT:      -4.9      2.225      4.567
REMARK  2 active torsions:
REMARK  status: ('A' for Active; 'I' for Inactive)
REMARK    1  A    between atoms: C_1  and  C_3 
REMARK    2  A    between atoms: C_2  and  C_4 
ROOT
HETATM    1  C   UNL     1      62.332   9.196   3.349  1.00  0.00     0.015 A 
HETATM    2  C   UNL     1      63.315   8.659   4.205  1.00  0.00     0.053 A 
HETATM    3  C   UNL     1      63.794   9.431   5.288  1.00  0.00     0.019 A 
HETATM    4  C   UNL     1      61.872  10.506   3.607  1.00  0.00     0.015 A 
HETATM    5  C   UNL     1      62.357  11.259   4.680  1.00  0.00     0.001 A 
HETATM    6  C   UNL     1      63.313  10.719   5.525  1.00  0.00     0.001 A 
ENDROOT
BRANCH   1   7
HETATM    7  C   UNL     1      61.794   8.512   2.172  1.00  0.00     0.086 A 
HETATM    8  O   UNL     1      60.867   7.530   2.437  1.00  0.00    -0.322 OA
HETATM    9  C   UNL     1      60.425   7.051   1.246  1.00  0.00     0.142 A 
HETATM   10  C   UNL     1      61.046   7.700   0.210  1.00  0.00     0.027 A 
HETATM   11  C   UNL     1      61.934   8.630   0.806  1.00  0.00     0.040 A 
ENDBRANCH   1   7
BRANCH   2  12
HETATM   12  C   UNL     1      63.854   7.279   4.068  1.00  0.00     0.210 C 
HETATM   13  O   UNL     1      64.656   6.865   3.255  1.00  0.00    -0.644 OA
HETATM   14  O   UNL     1      63.343   6.449   4.998  1.00  0.00    -0.644 OA
ENDBRANCH   2  12
TORSDOF 2
ENDMDL
MODEL 9
REMARK VINA RESULT:      -4.9      2.445      3.422
REMARK  2 active torsions:
REMARK  status: ('A' for Active; 'I' for Inactive)
REMARK    1  A    between atoms: C_1  and  C_3 
REMARK    2  A    between atoms: C_2  and  C_4 
ROOT
HETATM    1  C   UNL     1      62.700   8.965   3.711  1.00  0.00     0.015 A 
HETATM    2  C   UNL     1      62.083   9.694   2.676  1.00  0.00     0.053 A 
HETATM    3  C   UNL     1      61.762  11.056   2.876  1.00  0.00     0.019 A 
HETATM    4  C   UNL     1      62.965   9.633   4.927  1.00  0.00     0.015 A 
HETATM    5  C   UNL     1      62.640  10.979   5.112  1.00  0.00     0.001 A 
HETATM    6  C   UNL     1      62.045  11.694   4.085  1.00  0.00     0.001 A 
ENDROOT
BRANCH   1   7
HETATM    7  C   UNL     1      63.036   7.542   3.637  1.00  0.00     0.086 A 
HETATM    8  O   UNL     1      64.370   7.263   3.450  1.00  0.00    -0.322 OA
HETATM    9  C   UNL     1      64.516   5.914   3.472  1.00  0.00     0.142 A 
HETATM   10  C   UNL     1      63.302   5.306   3.670  1.00  0.00     0.027 A 
HETATM   11  C   UNL     1      62.351   6.352   3.764  1.00  0.00     0.040 A 
ENDBRANCH   1   7
BRANCH   2  12
HETATM   12  C   UNL     1      61.786   9.121   1.335  1.00  0.00     0.210 C 
HETATM   13  O   UNL     1      62.508   9.085   0.359  1.00  0.00    -0.644 OA
HETATM   14  O   UNL     1      60.547   8.594   1.281  1.00  0.00    -0.644 OA
ENDBRANCH   2  12
TORSDOF 2
ENDMDL
