MODEL 1
REMARK VINA RESULT:      -5.7      0.000      0.000
REMARK  2 active torsions:
REMARK  status: ('A' for Active; 'I' for Inactive)
REMARK    1  A    between atoms: C_1  and  C_3 
REMARK    2  A    between atoms: C_2  and  C_4 
ROOT
HETATM    1  C   UNL     1      63.751   8.216   4.652  1.00  0.00    -0.001 A 
HETATM    2  C   UNL     1      62.408   9.977   3.631  1.00  0.00     0.041 A 
HETATM    3  C   UNL     1      63.361   9.560   4.566  1.00  0.00     0.032 A 
HETATM    4  C   UNL     1      61.824   9.044   2.770  1.00  0.00     0.018 A 
HETATM    5  C   UNL     1      63.155   7.293   3.778  1.00  0.00     0.014 A 
HETATM    6  C   UNL     1      62.197   7.702   2.844  1.00  0.00     0.002 A 
ENDROOT
BRANCH   1   7
HETATM    7  C   UNL     1      64.768   7.817   5.619  1.00  0.00     0.085 A 
HETATM    8  O   UNL     1      65.888   8.597   5.697  1.00  0.00    -0.322 OA
HETATM    9  C   UNL     1      66.678   8.076   6.671  1.00  0.00     0.142 A 
HETATM   10  C   UNL     1      66.090   6.963   7.224  1.00  0.00     0.027 A 
HETATM   11  C   UNL     1      64.865   6.789   6.540  1.00  0.00     0.040 A 
ENDBRANCH   1   7
BRANCH   2  12
HETATM   12  C   UNL     1      62.006  11.400   3.523  1.00  0.00     0.209 C 
HETATM   13  O   UNL     1      61.818  12.157   4.458  1.00  0.00    -0.644 OA
HETATM   14  O   UNL     1      61.855  11.809   2.252  1.00  0.00    -0.644 OA
ENDBRANCH   2  12
TORSDOF 2
ENDMDL
MODEL 2
REMARK VINA RESULT:      -5.6      1.382      1.844
REMARK  2 active torsions:
REMARK  status: ('A' for Active; 'I' for Inactive)
REMARK    1  A    between atoms: C_1  and  C_3 
REMARK    2  A    between atoms: C_2  and  C_4 
ROOT
HETATM    1  C   UNL     1      64.847   7.780   5.036  1.00  0.00    -0.001 A 
HETATM    2  C   UNL     1      63.246   9.567   4.606  1.00  0.00     0.041 A 
HETATM    3  C   UNL     1      64.269   9.010   5.380  1.00  0.00     0.032 A 
HETATM    4  C   UNL     1      62.781   8.891   3.475  1.00  0.00     0.018 A 
HETATM    5  C   UNL     1      64.369   7.114   3.896  1.00  0.00     0.014 A 
HETATM    6  C   UNL     1      63.342   7.663   3.121  1.00  0.00     0.002 A 
ENDROOT
BRANCH   1   7
HETATM    7  C   UNL     1      65.932   7.236   5.848  1.00  0.00     0.085 A 
HETATM    8  O   UNL     1      65.808   7.353   7.204  1.00  0.00    -0.322 OA
HETATM    9  C   UNL     1      66.893   6.759   7.762  1.00  0.00     0.142 A 
HETATM   10  C   UNL     1      67.725   6.262   6.788  1.00  0.00     0.027 A 
HETATM   11  C   UNL     1      67.113   6.578   5.554  1.00  0.00     0.040 A 
ENDBRANCH   1   7
BRANCH   2  12
HETATM   12  C   UNL     1      62.645  10.877   4.954  1.00  0.00     0.209 C 
HETATM   13  O   UNL     1      61.908  11.532   4.240  1.00  0.00    -0.644 OA
HETATM   14  O   UNL     1      62.997  11.308   6.177  1.00  0.00    -0.644 OA
ENDBRANCH   2  12
TORSDOF 2
ENDMDL
MODEL 3
REMARK VINA RESULT:      -5.5      1.774      2.388
REMARK  2 active torsions:
REMARK  status: ('A' for Active; 'I' for Inactive)
REMARK    1  A    between atoms: C_1  and  C_3 
REMARK    2  A    between atoms: C_2  and  C_4 
ROOT
HETATM    1  C   UNL     1      63.675   9.123   4.742  1.00  0.00    -0.001 A 
HETATM    2  C   UNL     1      62.190   9.450   2.836  1.00  0.00     0.041 A 
HETATM    3  C   UNL     1      63.129   8.679   3.529  1.00  0.00     0.032 A 
HETATM    4  C   UNL     1      61.790  10.687   3.347  1.00  0.00     0.018 A 
HETATM    5  C   UNL     1      63.261  10.368   5.242  1.00  0.00     0.014 A 
HETATM    6  C   UNL     1      62.328  11.147   4.551  1.00  0.00     0.002 A 
ENDROOT
BRANCH   1   7
HETATM    7  C   UNL     1      64.632   8.284   5.457  1.00  0.00     0.085 A 
HETATM    8  O   UNL     1      65.713   8.912   6.009  1.00  0.00    -0.322 OA
HETATM    9  C   UNL     1      66.447   7.967   6.649  1.00  0.00     0.142 A 
HETATM   10  C   UNL     1      65.862   6.730   6.516  1.00  0.00     0.027 A 
HETATM   11  C   UNL     1      64.698   6.931   5.739  1.00  0.00     0.040 A 
ENDBRANCH   1   7
BRANCH   2  12
HETATM   12  C   UNL     1      61.595   8.976   1.563  1.00  0.00     0.209 C 
HETATM   13  O   UNL     1      60.473   8.524   1.429  1.00  0.00    -0.644 OA
HETATM   14  O   UNL     1      62.433   9.086   0.518  1.00  0.00    -0.644 OA
ENDBRANCH   2  12
TORSDOF 2
ENDMDL
MODEL 4
REMARK VINA RESULT:      -5.2      2.264      5.991
REMARK  2 active torsions:
REMARK  status: ('A' for Active; 'I' for Inactive)
REMARK    1  A    between atoms: C_1  and  C_3 
REMARK    2  A    between atoms: C_2  and  C_4 
ROOT
HETATM    1  C   UNL     1      65.459   7.690   5.456  1.00  0.00    -0.001 A 
HETATM    2  C   UNL     1      66.483   6.363   7.226  1.00  0.00     0.041 A 
HETATM    3  C   UNL     1      65.461   7.202   6.771  1.00  0.00     0.032 A 
HETATM    4  C   UNL     1      67.527   6.006   6.368  1.00  0.00     0.018 A 
HETATM    5  C   UNL     1      66.514   7.321   4.607  1.00  0.00     0.014 A 
HETATM    6  C   UNL     1      67.542   6.487   5.058  1.00  0.00     0.002 A 
ENDROOT
BRANCH   1   7
HETATM    7  C   UNL     1      64.364   8.542   5.001  1.00  0.00     0.085 A 
HETATM    8  O   UNL     1      64.203   9.738   5.643  1.00  0.00    -0.322 OA
HETATM    9  C   UNL     1      63.166  10.380   5.048  1.00  0.00     0.142 A 
HETATM   10  C   UNL     1      62.645   9.616   4.031  1.00  0.00     0.027 A 
HETATM   11  C   UNL     1      63.409   8.427   4.007  1.00  0.00     0.040 A 
ENDBRANCH   1   7
BRANCH   2  12
HETATM   12  C   UNL     1      66.480   5.828   8.610  1.00  0.00     0.209 C 
HETATM   13  O   UNL     1      66.353   6.488   9.625  1.00  0.00    -0.644 OA
HETATM   14  O   UNL     1      66.641   4.495   8.658  1.00  0.00    -0.644 OA
ENDBRANCH   2  12
TORSDOF 2
ENDMDL
MODEL 5
REMARK VINA RESULT:      -5.1      2.430      2.959
REMARK  2 active torsions:
REMARK  status: ('A' for Active; 'I' for Inactive)
REMARK    1  A    between atoms: C_1  and  C_3 
REMARK    2  A    between atoms: C_2  and  C_4 
ROOT
HETATM    1  C   UNL     1      63.119   7.824   2.682  1.00  0.00    -0.001 A 
HETATM    2  C   UNL     1      62.495   9.953   3.695  1.00  0.00     0.041 A 
HETATM    3  C   UNL     1      63.142   8.714   3.765  1.00  0.00     0.032 A 
HETATM    4  C   UNL     1      61.807  10.314   2.534  1.00  0.00     0.018 A 
HETATM    5  C   UNL     1      62.423   8.204   1.523  1.00  0.00     0.014 A 
HETATM    6  C   UNL     1      61.770   9.438   1.448  1.00  0.00     0.002 A 
ENDROOT
BRANCH   1   7
HETATM    7  C   UNL     1      63.826   6.550   2.775  1.00  0.00     0.085 A 
HETATM    8  O   UNL     1      65.074   6.575   3.331  1.00  0.00    -0.322 OA
HETATM    9  C   UNL     1      65.533   5.298   3.353  1.00  0.00     0.142 A 
HETATM   10  C   UNL     1      64.602   4.442   2.814  1.00  0.00     0.027 A 
HETATM   11  C   UNL     1      63.506   5.249   2.431  1.00  0.00     0.040 A 
ENDBRANCH   1   7
BRANCH   2  12
HETATM   12  C   UNL     1      62.533  10.905   4.831  1.00  0.00     0.209 C 
HETATM   13  O   UNL     1      63.040  10.695   5.916  1.00  0.00    -0.644 OA
HETATM   14  O   UNL     1      61.930  12.074   4.555  1.00  0.00    -0.644 OA
ENDBRANCH   2  12
TORSDOF 2
ENDMDL
MODEL 6
REMARK VINA RESULT:      -5.0      2.329      5.112
REMARK  2 active torsions:
REMARK  status: ('A' for Active; 'I' for Inactive)
REMARK    1  A    between atoms: C_1  and  C_3 
REMARK    2  A    between atoms: C_2  and  C_4 
ROOT
HETATM    1  C   UNL     1      61.939   8.189   2.852  1.00  0.00    -0.001 A 
HETATM    2  C   UNL     1      62.902   9.721   4.485  1.00  0.00     0.041 A 
HETATM    3  C   UNL     1      61.908   9.402   3.554  1.00  0.00     0.032 A 
HETATM    4  C   UNL     1      63.950   8.827   4.720  1.00  0.00     0.018 A 
HETATM    5  C   UNL     1      62.998   7.302   3.100  1.00  0.00     0.014 A 
HETATM    6  C   UNL     1      63.998   7.617   4.026  1.00  0.00     0.002 A 
ENDROOT
BRANCH   1   7
HETATM    7  C   UNL     1      60.873   7.871   1.906  1.00  0.00     0.085 A 
HETATM    8  O   UNL     1      59.668   7.500   2.435  1.00  0.00    -0.322 OA
HETATM    9  C   UNL     1      58.819   7.286   1.398  1.00  0.00     0.142 A 
HETATM   10  C   UNL     1      59.456   7.509   0.200  1.00  0.00     0.027 A 
HETATM   11  C   UNL     1      60.782   7.875   0.526  1.00  0.00     0.040 A 
ENDBRANCH   1   7
BRANCH   2  12
HETATM   12  C   UNL     1      62.864  10.995   5.244  1.00  0.00     0.209 C 
HETATM   13  O   UNL     1      62.096  11.918   5.043  1.00  0.00    -0.644 OA
HETATM   14  O   UNL     1      63.791  11.055   6.216  1.00  0.00    -0.644 OA
ENDBRANCH   2  12
TORSDOF 2
ENDMDL
MODEL 7
REMARK VINA RESULT:      -5.0      1.298      5.193
REMARK  2 active torsions:
REMARK  status: ('A' for Active; 'I' for Inactive)
REMARK    1  A    between atoms: C_1  and  C_3 
REMARK    2  A    between atoms: C_2  and  C_4 
ROOT
HETATM    1  C   UNL     1      63.328   8.159   4.073  1.00  0.00    -0.001 A 
HETATM    2  C   UNL     1      65.088   7.462   5.610  1.00  0.00     0.041 A 
HETATM    3  C   UNL     1      64.458   8.453   4.849  1.00  0.00     0.032 A 
HETATM    4  C   UNL     1      64.595   6.155   5.596  1.00  0.00     0.018 A 
HETATM    5  C   UNL     1      62.846   6.840   4.072  1.00  0.00     0.014 A 
HETATM    6  C   UNL     1      63.474   5.844   4.826  1.00  0.00     0.002 A 
ENDROOT
BRANCH   1   7
HETATM    7  C   UNL     1      62.676   9.220   3.311  1.00  0.00     0.085 A 
HETATM    8  O   UNL     1      62.412  10.385   3.975  1.00  0.00    -0.322 OA
HETATM    9  C   UNL     1      61.843  11.238   3.085  1.00  0.00     0.142 A 
HETATM   10  C   UNL     1      61.729  10.642   1.852  1.00  0.00     0.027 A 
HETATM   11  C   UNL     1      62.255   9.338   1.999  1.00  0.00     0.040 A 
ENDBRANCH   1   7
BRANCH   2  12
HETATM   12  C   UNL     1      66.272   7.772   6.447  1.00  0.00     0.209 C 
HETATM   13  O   UNL     1      66.606   8.882   6.821  1.00  0.00    -0.644 OA
HETATM   14  O   UNL     1      66.985   6.681   6.773  1.00  0.00    -0.644 OA
ENDBRANCH   2  12
TORSDOF 2
ENDMDL
MODEL 8
REMARK VINA RESULT:      -4.8      3.237      3.997
REMARK  2 active torsions:
REMARK  status: ('A' for Active; 'I' for Inactive)
REMARK    1  A    between atoms: C_1  and  C_3 
REMARK    2  A    between atoms: C_2  and  C_4 
ROOT
HETATM    1  C   UNL     1      61.227   7.538   3.057  1.00  0.00    -0.001 A 
HETATM    2  C   UNL     1      61.768   9.863   2.560  1.00  0.00     0.041 A 
HETATM    3  C   UNL     1      61.296   8.885   3.441  1.00  0.00     0.032 A 
HETATM    4  C   UNL     1      62.172   9.504   1.272  1.00  0.00     0.018 A 
HETATM    5  C   UNL     1      61.638   7.194   1.759  1.00  0.00     0.014 A 
HETATM    6  C   UNL     1      62.105   8.168   0.871  1.00  0.00     0.002 A 
ENDROOT
BRANCH   1   7
HETATM    7  C   UNL     1      60.756   6.536   4.008  1.00  0.00     0.085 A 
HETATM    8  O   UNL     1      59.667   5.797   3.639  1.00  0.00    -0.322 OA
HETATM    9  C   UNL     1      59.421   4.912   4.638  1.00  0.00     0.142 A 
HETATM   10  C   UNL     1      60.332   5.068   5.655  1.00  0.00     0.027 A 
HETATM   11  C   UNL     1      61.186   6.121   5.256  1.00  0.00     0.040 A 
ENDBRANCH   1   7
BRANCH   2  12
HETATM   12  C   UNL     1      61.860  11.286   2.968  1.00  0.00     0.209 C 
HETATM   13  O   UNL     1      61.876  11.695   4.114  1.00  0.00    -0.644 OA
HETATM   14  O   UNL     1      61.925  12.129   1.924  1.00  0.00    -0.644 OA
ENDBRANCH   2  12
TORSDOF 2
ENDMDL
MODEL 9
REMARK VINA RESULT:      -4.5      3.418      7.446
REMARK  2 active torsions:
REMARK  status: ('A' for Active; 'I' for Inactive)
REMARK    1  A    between atoms: C_1  and  C_3 
REMARK    2  A    between atoms: C_2  and  C_4 
ROOT
HETATM    1  C   UNL     1      66.074   6.292   7.367  1.00  0.00    -0.001 A 
HETATM    2  C   UNL     1      67.004   4.144   8.049  1.00  0.00     0.041 A 
HETATM    3  C   UNL     1      66.144   4.897   7.243  1.00  0.00     0.032 A 
HETATM    4  C   UNL     1      67.803   4.781   9.002  1.00  0.00     0.018 A 
HETATM    5  C   UNL     1      66.884   6.917   8.329  1.00  0.00     0.014 A 
HETATM    6  C   UNL     1      67.742   6.169   9.142  1.00  0.00     0.002 A 
ENDROOT
BRANCH   1   7
HETATM    7  C   UNL     1      65.187   7.054   6.493  1.00  0.00     0.085 A 
HETATM    8  O   UNL     1      63.876   7.143   6.868  1.00  0.00    -0.322 OA
HETATM    9  C   UNL     1      63.243   7.914   5.948  1.00  0.00     0.142 A 
HETATM   10  C   UNL     1      64.124   8.325   4.976  1.00  0.00     0.027 A 
HETATM   11  C   UNL     1      65.374   7.763   5.320  1.00  0.00     0.040 A 
ENDBRANCH   1   7
BRANCH   2  12
HETATM   12  C   UNL     1      67.096   2.670   7.908  1.00  0.00     0.209 C 
HETATM   13  O   UNL     1      66.914   1.860   8.797  1.00  0.00    -0.644 OA
HETATM   14  O   UNL     1      67.416   2.281   6.662  1.00  0.00    -0.644 OA
ENDBRANCH   2  12
TORSDOF 2
ENDMDL
