MODEL 1
REMARK VINA RESULT:      -5.5      0.000      0.000
REMARK  3 active torsions:
REMARK  status: ('A' for Active; 'I' for Inactive)
REMARK    1  A    between atoms: C_3  and  C_7 
REMARK    2  A    between atoms: C_5  and  C_11 
REMARK    3  A    between atoms: C_11  and  O_12 
ROOT
HETATM    1  N   UNK     1      65.270   8.243   5.710  1.00  0.00    -0.351 N 
ATOM      2  HN  UNK     1      65.890   8.974   5.364  1.00  0.00     0.166 HD
HETATM    3  C   UNK     1      63.978   8.163   5.448  1.00  0.00     0.084 A 
HETATM    4  S   UNK     1      63.191   6.784   6.129  1.00  0.00    -0.081 SA
HETATM    5  C   UNK     1      65.666   7.186   6.527  1.00  0.00     0.040 A 
HETATM    6  C   UNK     1      64.660   6.304   6.857  1.00  0.00     0.079 A 
ENDROOT
BRANCH   3   7
HETATM    7  C   UNK     1      63.231   9.119   4.612  1.00  0.00    -0.001 A 
HETATM    8  C   UNK     1      62.898   8.771   3.293  1.00  0.00     0.038 A 
HETATM    9  C   UNK     1      62.192   9.661   2.482  1.00  0.00     0.035 A 
HETATM   10 CL   UNK     1      61.778   9.211   0.873  1.00  0.00    -0.084 Cl
HETATM   11  C   UNK     1      61.815  10.914   2.962  1.00  0.00     0.024 A 
HETATM   12  C   UNK     1      62.149  11.280   4.263  1.00  0.00     0.003 A 
HETATM   13  C   UNK     1      62.853  10.391   5.080  1.00  0.00     0.014 A 
ENDBRANCH   3   7
BRANCH   5  14
HETATM   14  C   UNK     1      67.091   7.114   6.972  1.00  0.00     0.221 C 
BRANCH  14  15
HETATM   15  O   UNK     1      67.234   7.500   8.336  1.00  0.00    -0.395 OA
HETATM   16  H   UNK     1      68.175   7.601   8.547  1.00  0.00     0.209 HD
ENDBRANCH  14  15
ENDBRANCH   5  14
TORSDOF 3
ENDMDL
MODEL 2
REMARK VINA RESULT:      -5.5      3.502      5.921
REMARK  3 active torsions:
REMARK  status: ('A' for Active; 'I' for Inactive)
REMARK    1  A    between atoms: C_3  and  C_7 
REMARK    2  A    between atoms: C_5  and  C_11 
REMARK    3  A    between atoms: C_11  and  O_12 
ROOT
HETATM    1  N   UNK     1      64.543   9.142   5.796  1.00  0.00    -0.351 N 
ATOM      2  HN  UNK     1      65.077   9.478   6.597  1.00  0.00     0.166 HD
HETATM    3  C   UNK     1      64.752   7.992   5.179  1.00  0.00     0.084 A 
HETATM    4  S   UNK     1      63.656   7.663   3.885  1.00  0.00    -0.081 SA
HETATM    5  C   UNK     1      63.488   9.829   5.199  1.00  0.00     0.040 A 
HETATM    6  C   UNK     1      62.899   9.172   4.140  1.00  0.00     0.079 A 
ENDROOT
BRANCH   3   7
HETATM    7  C   UNK     1      65.791   7.016   5.553  1.00  0.00    -0.001 A 
HETATM    8  C   UNK     1      66.268   6.987   6.874  1.00  0.00     0.038 A 
HETATM    9  C   UNK     1      67.252   6.072   7.251  1.00  0.00     0.035 A 
HETATM   10 CL   UNK     1      67.813   6.040   8.878  1.00  0.00    -0.084 Cl
HETATM   11  C   UNK     1      67.786   5.180   6.323  1.00  0.00     0.024 A 
HETATM   12  C   UNK     1      67.334   5.205   5.007  1.00  0.00     0.003 A 
HETATM   13  C   UNK     1      66.346   6.117   4.625  1.00  0.00     0.014 A 
ENDBRANCH   3   7
BRANCH   5  14
HETATM   14  C   UNK     1      63.114  11.176   5.727  1.00  0.00     0.221 C 
BRANCH  14  15
HETATM   15  O   UNK     1      64.163  11.740   6.510  1.00  0.00    -0.395 OA
HETATM   16  H   UNK     1      64.441  12.583   6.119  1.00  0.00     0.209 HD
ENDBRANCH  14  15
ENDBRANCH   5  14
TORSDOF 3
ENDMDL
MODEL 3
REMARK VINA RESULT:      -5.3      1.400      1.446
REMARK  3 active torsions:
REMARK  status: ('A' for Active; 'I' for Inactive)
REMARK    1  A    between atoms: C_3  and  C_7 
REMARK    2  A    between atoms: C_5  and  C_11 
REMARK    3  A    between atoms: C_11  and  O_12 
ROOT
HETATM    1  N   UNK     1      64.790   7.674   6.590  1.00  0.00    -0.351 N 
ATOM      2  HN  UNK     1      64.281   8.209   7.293  1.00  0.00     0.166 HD
HETATM    3  C   UNK     1      64.631   7.800   5.285  1.00  0.00     0.084 A 
HETATM    4  S   UNK     1      65.668   6.799   4.335  1.00  0.00    -0.081 SA
HETATM    5  C   UNK     1      65.752   6.706   6.870  1.00  0.00     0.040 A 
HETATM    6  C   UNK     1      66.324   6.123   5.760  1.00  0.00     0.079 A 
ENDROOT
BRANCH   3   7
HETATM    7  C   UNK     1      63.693   8.737   4.641  1.00  0.00    -0.001 A 
HETATM    8  C   UNK     1      63.168   8.429   3.375  1.00  0.00     0.038 A 
HETATM    9  C   UNK     1      62.278   9.302   2.746  1.00  0.00     0.035 A 
HETATM   10 CL   UNK     1      61.632   8.900   1.203  1.00  0.00    -0.084 Cl
HETATM   11  C   UNK     1      61.904  10.498   3.357  1.00  0.00     0.024 A 
HETATM   12  C   UNK     1      62.426  10.824   4.605  1.00  0.00     0.003 A 
HETATM   13  C   UNK     1      63.314   9.952   5.241  1.00  0.00     0.014 A 
ENDBRANCH   3   7
BRANCH   5  14
HETATM   14  C   UNK     1      66.055   6.382   8.298  1.00  0.00     0.221 C 
BRANCH  14  15
HETATM   15  O   UNK     1      65.901   4.991   8.563  1.00  0.00    -0.395 OA
HETATM   16  H   UNK     1      66.255   4.789   9.444  1.00  0.00     0.209 HD
ENDBRANCH  14  15
ENDBRANCH   5  14
TORSDOF 3
ENDMDL
MODEL 4
REMARK VINA RESULT:      -5.2      3.092      5.264
REMARK  3 active torsions:
REMARK  status: ('A' for Active; 'I' for Inactive)
REMARK    1  A    between atoms: C_3  and  C_7 
REMARK    2  A    between atoms: C_5  and  C_11 
REMARK    3  A    between atoms: C_11  and  O_12 
ROOT
HETATM    1  N   UNK     1      64.398   9.202   5.485  1.00  0.00    -0.351 N 
ATOM      2  HN  UNK     1      65.044   9.422   6.242  1.00  0.00     0.166 HD
HETATM    3  C   UNK     1      64.476   8.132   4.714  1.00  0.00     0.084 A 
HETATM    4  S   UNK     1      63.212   7.995   3.546  1.00  0.00    -0.081 SA
HETATM    5  C   UNK     1      63.308   9.988   5.116  1.00  0.00     0.040 A 
HETATM    6  C   UNK     1      62.561   9.483   4.074  1.00  0.00     0.079 A 
ENDROOT
BRANCH   3   7
HETATM    7  C   UNK     1      65.510   7.088   4.831  1.00  0.00    -0.001 A 
HETATM    8  C   UNK     1      65.889   6.360   3.691  1.00  0.00     0.038 A 
HETATM    9  C   UNK     1      66.865   5.366   3.778  1.00  0.00     0.035 A 
HETATM   10 CL   UNK     1      67.328   4.495   2.368  1.00  0.00    -0.084 Cl
HETATM   11  C   UNK     1      67.473   5.071   4.997  1.00  0.00     0.024 A 
HETATM   12  C   UNK     1      67.099   5.774   6.139  1.00  0.00     0.003 A 
HETATM   13  C   UNK     1      66.124   6.773   6.057  1.00  0.00     0.014 A 
ENDBRANCH   3   7
BRANCH   5  14
HETATM   14  C   UNK     1      63.064  11.270   5.845  1.00  0.00     0.221 C 
BRANCH  14  15
HETATM   15  O   UNK     1      64.232  11.711   6.532  1.00  0.00    -0.395 OA
HETATM   16  H   UNK     1      64.839  10.964   6.652  1.00  0.00     0.209 HD
ENDBRANCH  14  15
ENDBRANCH   5  14
TORSDOF 3
ENDMDL
MODEL 5
REMARK VINA RESULT:      -5.0      1.452      2.171
REMARK  3 active torsions:
REMARK  status: ('A' for Active; 'I' for Inactive)
REMARK    1  A    between atoms: C_3  and  C_7 
REMARK    2  A    between atoms: C_5  and  C_11 
REMARK    3  A    between atoms: C_11  and  O_12 
ROOT
HETATM    1  N   UNK     1      64.875   7.931   5.083  1.00  0.00    -0.351 N 
ATOM      2  HN  UNK     1      65.454   8.682   4.707  1.00  0.00     0.166 HD
HETATM    3  C   UNK     1      63.730   7.529   4.562  1.00  0.00     0.084 A 
HETATM    4  S   UNK     1      62.994   6.201   5.384  1.00  0.00    -0.081 SA
HETATM    5  C   UNK     1      65.179   7.186   6.220  1.00  0.00     0.040 A 
HETATM    6  C   UNK     1      64.259   6.209   6.532  1.00  0.00     0.079 A 
ENDROOT
BRANCH   3   7
HETATM    7  C   UNK     1      63.112   8.102   3.352  1.00  0.00    -0.001 A 
HETATM    8  C   UNK     1      62.718   9.450   3.350  1.00  0.00     0.038 A 
HETATM    9  C   UNK     1      62.130  10.014   2.216  1.00  0.00     0.035 A 
HETATM   10 CL   UNK     1      61.669  11.672   2.226  1.00  0.00    -0.084 Cl
HETATM   11  C   UNK     1      61.913   9.248   1.072  1.00  0.00     0.024 A 
HETATM   12  C   UNK     1      62.285   7.906   1.063  1.00  0.00     0.003 A 
HETATM   13  C   UNK     1      62.878   7.338   2.194  1.00  0.00     0.014 A 
ENDBRANCH   3   7
BRANCH   5  14
HETATM   14  C   UNK     1      66.422   7.511   6.984  1.00  0.00     0.221 C 
BRANCH  14  15
HETATM   15  O   UNK     1      67.191   8.517   6.329  1.00  0.00    -0.395 OA
HETATM   16  H   UNK     1      68.121   8.245   6.299  1.00  0.00     0.209 HD
ENDBRANCH  14  15
ENDBRANCH   5  14
TORSDOF 3
ENDMDL
MODEL 6
REMARK VINA RESULT:      -4.6      9.668     11.447
REMARK  3 active torsions:
REMARK  status: ('A' for Active; 'I' for Inactive)
REMARK    1  A    between atoms: C_3  and  C_7 
REMARK    2  A    between atoms: C_5  and  C_11 
REMARK    3  A    between atoms: C_11  and  O_12 
ROOT
HETATM    1  N   UNK     1      58.497   4.266  10.363  1.00  0.00    -0.351 N 
ATOM      2  HN  UNK     1      58.199   4.957  11.051  1.00  0.00     0.166 HD
HETATM    3  C   UNK     1      58.594   2.968  10.590  1.00  0.00     0.084 A 
HETATM    4  S   UNK     1      59.075   2.034   9.220  1.00  0.00    -0.081 SA
HETATM    5  C   UNK     1      58.859   4.557   9.050  1.00  0.00     0.040 A 
HETATM    6  C   UNK     1      59.210   3.461   8.292  1.00  0.00     0.079 A 
ENDROOT
BRANCH   3   7
HETATM    7  C   UNK     1      58.285   2.317  11.876  1.00  0.00    -0.001 A 
HETATM    8  C   UNK     1      56.966   2.331  12.358  1.00  0.00     0.038 A 
HETATM    9  C   UNK     1      56.650   1.721  13.574  1.00  0.00     0.035 A 
HETATM   10 CL   UNK     1      55.026   1.734  14.142  1.00  0.00    -0.084 Cl
HETATM   11  C   UNK     1      57.638   1.098  14.334  1.00  0.00     0.024 A 
HETATM   12  C   UNK     1      58.953   1.086  13.877  1.00  0.00     0.003 A 
HETATM   13  C   UNK     1      59.274   1.693  12.658  1.00  0.00     0.014 A 
ENDBRANCH   3   7
BRANCH   5  14
HETATM   14  C   UNK     1      58.853   5.983   8.600  1.00  0.00     0.221 C 
BRANCH  14  15
HETATM   15  O   UNK     1      58.642   6.875   9.690  1.00  0.00    -0.395 OA
HETATM   16  H   UNK     1      57.736   7.220   9.654  1.00  0.00     0.209 HD
ENDBRANCH  14  15
ENDBRANCH   5  14
TORSDOF 3
ENDMDL
MODEL 7
REMARK VINA RESULT:      -4.3      4.467      5.299
REMARK  3 active torsions:
REMARK  status: ('A' for Active; 'I' for Inactive)
REMARK    1  A    between atoms: C_3  and  C_7 
REMARK    2  A    between atoms: C_5  and  C_11 
REMARK    3  A    between atoms: C_11  and  O_12 
ROOT
HETATM    1  N   UNK     1      60.454   6.141   7.220  1.00  0.00    -0.351 N 
ATOM      2  HN  UNK     1      60.094   7.091   7.301  1.00  0.00     0.166 HD
HETATM    3  C   UNK     1      61.552   5.804   6.568  1.00  0.00     0.084 A 
HETATM    4  S   UNK     1      61.946   4.124   6.644  1.00  0.00    -0.081 SA
HETATM    5  C   UNK     1      59.858   5.013   7.782  1.00  0.00     0.040 A 
HETATM    6  C   UNK     1      60.533   3.833   7.558  1.00  0.00     0.079 A 
ENDROOT
BRANCH   3   7
HETATM    7  C   UNK     1      62.429   6.751   5.857  1.00  0.00    -0.001 A 
HETATM    8  C   UNK     1      63.744   6.949   6.310  1.00  0.00     0.038 A 
HETATM    9  C   UNK     1      64.592   7.843   5.652  1.00  0.00     0.035 A 
HETATM   10 CL   UNK     1      66.205   8.061   6.211  1.00  0.00    -0.084 Cl
HETATM   11  C   UNK     1      64.147   8.561   4.543  1.00  0.00     0.024 A 
HETATM   12  C   UNK     1      62.842   8.386   4.090  1.00  0.00     0.003 A 
HETATM   13  C   UNK     1      61.990   7.490   4.743  1.00  0.00     0.014 A 
ENDBRANCH   3   7
BRANCH   5  14
HETATM   14  C   UNK     1      58.576   5.175   8.534  1.00  0.00     0.221 C 
BRANCH  14  15
HETATM   15  O   UNK     1      58.807   5.345   9.930  1.00  0.00    -0.395 OA
HETATM   16  H   UNK     1      58.437   6.194  10.217  1.00  0.00     0.209 HD
ENDBRANCH  14  15
ENDBRANCH   5  14
TORSDOF 3
ENDMDL
MODEL 8
REMARK VINA RESULT:      -4.3      3.989      6.130
REMARK  3 active torsions:
REMARK  status: ('A' for Active; 'I' for Inactive)
REMARK    1  A    between atoms: C_3  and  C_7 
REMARK    2  A    between atoms: C_5  and  C_11 
REMARK    3  A    between atoms: C_11  and  O_12 
ROOT
HETATM    1  N   UNK     1      63.544   7.743   3.187  1.00  0.00    -0.351 N 
ATOM      2  HN  UNK     1      63.877   6.972   2.609  1.00  0.00     0.166 HD
HETATM    3  C   UNK     1      64.060   8.090   4.353  1.00  0.00     0.084 A 
HETATM    4  S   UNK     1      63.322   9.470   5.083  1.00  0.00    -0.081 SA
HETATM    5  C   UNK     1      62.479   8.580   2.860  1.00  0.00     0.040 A 
HETATM    6  C   UNK     1      62.217   9.568   3.784  1.00  0.00     0.079 A 
ENDROOT
BRANCH   3   7
HETATM    7  C   UNK     1      65.201   7.416   4.999  1.00  0.00    -0.001 A 
HETATM    8  C   UNK     1      65.219   7.275   6.397  1.00  0.00     0.038 A 
HETATM    9  C   UNK     1      66.289   6.642   7.030  1.00  0.00     0.035 A 
HETATM   10 CL   UNK     1      66.288   6.464   8.742  1.00  0.00    -0.084 Cl
HETATM   11  C   UNK     1      67.362   6.148   6.290  1.00  0.00     0.024 A 
HETATM   12  C   UNK     1      67.366   6.292   4.905  1.00  0.00     0.003 A 
HETATM   13  C   UNK     1      66.294   6.922   4.266  1.00  0.00     0.014 A 
ENDBRANCH   3   7
BRANCH   5  14
HETATM   14  C   UNK     1      61.731   8.330   1.590  1.00  0.00     0.221 C 
BRANCH  14  15
HETATM   15  O   UNK     1      60.564   9.144   1.502  1.00  0.00    -0.395 OA
HETATM   16  H   UNK     1      59.991   8.972   2.265  1.00  0.00     0.209 HD
ENDBRANCH  14  15
ENDBRANCH   5  14
TORSDOF 3
ENDMDL
MODEL 9
REMARK VINA RESULT:      -4.3      3.765      5.746
REMARK  3 active torsions:
REMARK  status: ('A' for Active; 'I' for Inactive)
REMARK    1  A    between atoms: C_3  and  C_7 
REMARK    2  A    between atoms: C_5  and  C_11 
REMARK    3  A    between atoms: C_11  and  O_12 
ROOT
HETATM    1  N   UNK     1      63.198   8.181   3.095  1.00  0.00    -0.351 N 
ATOM      2  HN  UNK     1      63.486   7.460   2.434  1.00  0.00     0.166 HD
HETATM    3  C   UNK     1      63.836   8.477   4.213  1.00  0.00     0.084 A 
HETATM    4  S   UNK     1      63.146   9.781   5.111  1.00  0.00    -0.081 SA
HETATM    5  C   UNK     1      62.076   8.994   2.947  1.00  0.00     0.040 A 
HETATM    6  C   UNK     1      61.893   9.914   3.957  1.00  0.00     0.079 A 
ENDROOT
BRANCH   3   7
HETATM    7  C   UNK     1      65.066   7.811   4.679  1.00  0.00    -0.001 A 
HETATM    8  C   UNK     1      65.569   6.711   3.963  1.00  0.00     0.038 A 
HETATM    9  C   UNK     1      66.731   6.064   4.386  1.00  0.00     0.035 A 
HETATM   10 CL   UNK     1      67.342   4.729   3.488  1.00  0.00    -0.084 Cl
HETATM   11  C   UNK     1      67.406   6.488   5.529  1.00  0.00     0.024 A 
HETATM   12  C   UNK     1      66.913   7.568   6.257  1.00  0.00     0.003 A 
HETATM   13  C   UNK     1      65.751   8.222   5.836  1.00  0.00     0.014 A 
ENDBRANCH   3   7
BRANCH   5  14
HETATM   14  C   UNK     1      61.192   8.793   1.758  1.00  0.00     0.221 C 
BRANCH  14  15
HETATM   15  O   UNK     1      59.894   8.346   2.141  1.00  0.00    -0.395 OA
HETATM   16  H   UNK     1      59.266   9.082   2.075  1.00  0.00     0.209 HD
ENDBRANCH  14  15
ENDBRANCH   5  14
TORSDOF 3
ENDMDL
