MODEL 1
REMARK VINA RESULT:      -4.5      0.000      0.000
REMARK  3 active torsions:
REMARK  status: ('A' for Active; 'I' for Inactive)
REMARK    1  A    between atoms: C_1  and  C_3 
REMARK    2  A    between atoms: C_5  and  C_12 
REMARK    3  A    between atoms: N_11  and  C_12 
ROOT
HETATM    1  C   UNL     1      65.021   7.920   5.503  1.00  0.00     0.039 A 
HETATM    2  S   UNL     1      64.728   6.696   6.663  1.00  0.00    -0.090 SA
HETATM    3  C   UNL     1      66.322   7.865   5.042  1.00  0.00     0.023 A 
HETATM    4  C   UNL     1      66.309   6.055   6.513  1.00  0.00     0.009 A 
HETATM    5  C   UNL     1      67.061   6.788   5.615  1.00  0.00     0.017 A 
ENDROOT
BRANCH   1   6
HETATM    6  C   UNL     1      64.006   8.851   5.083  1.00  0.00     0.092 A 
HETATM    7  O   UNL     1      63.796  10.046   5.731  1.00  0.00    -0.321 OA
HETATM    8  C   UNL     1      62.805  10.707   5.084  1.00  0.00     0.142 A 
HETATM    9  C   UNL     1      62.352   9.970   4.019  1.00  0.00     0.027 A 
HETATM   10  C   UNL     1      63.114   8.777   4.021  1.00  0.00     0.040 A 
ENDBRANCH   1   6
BRANCH   4  11
HETATM   11  C   UNL     1      66.696   4.823   7.279  1.00  0.00     0.277 C 
BRANCH  11  12
HETATM   12  N   UNL     1      66.566   5.041   8.721  1.00  0.00    -0.075 N 
HETATM   13  C   UNL     1      67.610   5.934   9.203  1.00  0.00     0.267 C 
HETATM   14  H   UNL     1      66.641   4.145   9.204  1.00  0.00     0.277 HD
HETATM   15  H   UNL     1      65.659   5.468   8.907  1.00  0.00     0.277 HD
ENDBRANCH  11  12
ENDBRANCH   4  11
TORSDOF 3
ENDMDL
MODEL 2
REMARK VINA RESULT:      -4.5      1.259      1.570
REMARK  3 active torsions:
REMARK  status: ('A' for Active; 'I' for Inactive)
REMARK    1  A    between atoms: C_1  and  C_3 
REMARK    2  A    between atoms: C_5  and  C_12 
REMARK    3  A    between atoms: N_11  and  C_12 
ROOT
HETATM    1  C   UNL     1      64.078   8.014   5.581  1.00  0.00     0.039 A 
HETATM    2  S   UNL     1      65.788   7.988   5.627  1.00  0.00    -0.090 SA
HETATM    3  C   UNL     1      63.550   6.850   6.105  1.00  0.00     0.023 A 
HETATM    4  C   UNL     1      65.831   6.458   6.395  1.00  0.00     0.009 A 
HETATM    5  C   UNL     1      64.556   5.959   6.581  1.00  0.00     0.017 A 
ENDROOT
BRANCH   1   6
HETATM    6  C   UNL     1      63.332   9.135   5.069  1.00  0.00     0.092 A 
HETATM    7  O   UNL     1      63.263  10.335   5.738  1.00  0.00    -0.321 OA
HETATM    8  C   UNL     1      62.523  11.190   4.991  1.00  0.00     0.142 A 
HETATM    9  C   UNL     1      62.098  10.579   3.839  1.00  0.00     0.027 A 
HETATM   10  C   UNL     1      62.609   9.258   3.891  1.00  0.00     0.040 A 
ENDBRANCH   1   6
BRANCH   4  11
HETATM   11  C   UNL     1      67.146   5.859   6.805  1.00  0.00     0.277 C 
BRANCH  11  12
HETATM   12  N   UNL     1      67.797   6.678   7.828  1.00  0.00    -0.075 N 
HETATM   13  C   UNL     1      67.187   6.456   9.131  1.00  0.00     0.267 C 
HETATM   14  H   UNL     1      67.703   7.663   7.578  1.00  0.00     0.277 HD
HETATM   15  H   UNL     1      68.781   6.419   7.878  1.00  0.00     0.277 HD
ENDBRANCH  11  12
ENDBRANCH   4  11
TORSDOF 3
ENDMDL
MODEL 3
REMARK VINA RESULT:      -4.4      3.538      6.285
REMARK  3 active torsions:
REMARK  status: ('A' for Active; 'I' for Inactive)
REMARK    1  A    between atoms: C_1  and  C_3 
REMARK    2  A    between atoms: C_5  and  C_12 
REMARK    3  A    between atoms: N_11  and  C_12 
ROOT
HETATM    1  C   UNL     1      63.710   8.774   4.694  1.00  0.00     0.039 A 
HETATM    2  S   UNL     1      63.274   8.073   3.195  1.00  0.00    -0.090 SA
HETATM    3  C   UNL     1      63.015   9.946   4.915  1.00  0.00     0.023 A 
HETATM    4  C   UNL     1      62.119   9.293   2.862  1.00  0.00     0.009 A 
HETATM    5  C   UNL     1      62.093  10.242   3.867  1.00  0.00     0.017 A 
ENDROOT
BRANCH   1   6
HETATM    6  C   UNL     1      64.670   8.171   5.582  1.00  0.00     0.092 A 
HETATM    7  O   UNL     1      65.852   8.793   5.912  1.00  0.00    -0.321 OA
HETATM    8  C   UNL     1      66.518   7.996   6.783  1.00  0.00     0.142 A 
HETATM    9  C   UNL     1      65.799   6.854   7.036  1.00  0.00     0.027 A 
HETATM   10  C   UNL     1      64.618   6.961   6.260  1.00  0.00     0.040 A 
ENDBRANCH   1   6
BRANCH   4  11
HETATM   11  C   UNL     1      61.272   9.210   1.625  1.00  0.00     0.277 C 
BRANCH  11  12
HETATM   12  N   UNL     1      60.067   8.415   1.869  1.00  0.00    -0.075 N 
HETATM   13  C   UNL     1      59.452   8.011   0.613  1.00  0.00     0.267 C 
HETATM   14  H   UNL     1      59.401   8.973   2.405  1.00  0.00     0.277 HD
HETATM   15  H   UNL     1      60.326   7.578   2.391  1.00  0.00     0.277 HD
ENDBRANCH  11  12
ENDBRANCH   4  11
TORSDOF 3
ENDMDL
MODEL 4
REMARK VINA RESULT:      -4.0      1.510      1.847
REMARK  3 active torsions:
REMARK  status: ('A' for Active; 'I' for Inactive)
REMARK    1  A    between atoms: C_1  and  C_3 
REMARK    2  A    between atoms: C_5  and  C_12 
REMARK    3  A    between atoms: N_11  and  C_12 
ROOT
HETATM    1  C   UNL     1      64.487   7.923   4.450  1.00  0.00     0.039 A 
HETATM    2  S   UNL     1      65.972   7.781   5.290  1.00  0.00    -0.090 SA
HETATM    3  C   UNL     1      64.240   6.800   3.687  1.00  0.00     0.023 A 
HETATM    4  C   UNL     1      66.262   6.204   4.687  1.00  0.00     0.009 A 
HETATM    5  C   UNL     1      65.254   5.807   3.828  1.00  0.00     0.017 A 
ENDROOT
BRANCH   1   6
HETATM    6  C   UNL     1      63.635   9.078   4.571  1.00  0.00     0.092 A 
HETATM    7  O   UNL     1      63.758   9.972   5.610  1.00  0.00    -0.321 OA
HETATM    8  C   UNL     1      62.846  10.958   5.426  1.00  0.00     0.142 A 
HETATM    9  C   UNL     1      62.118  10.733   4.285  1.00  0.00     0.027 A 
HETATM   10  C   UNL     1      62.617   9.524   3.740  1.00  0.00     0.040 A 
ENDBRANCH   1   6
BRANCH   4  11
HETATM   11  C   UNL     1      67.468   5.435   5.142  1.00  0.00     0.277 C 
BRANCH  11  12
HETATM   12  N   UNL     1      67.601   5.484   6.599  1.00  0.00    -0.075 N 
HETATM   13  C   UNL     1      66.712   4.519   7.230  1.00  0.00     0.267 C 
HETATM   14  H   UNL     1      67.363   6.422   6.925  1.00  0.00     0.277 HD
HETATM   15  H   UNL     1      68.562   5.257   6.849  1.00  0.00     0.277 HD
ENDBRANCH  11  12
ENDBRANCH   4  11
TORSDOF 3
ENDMDL
MODEL 5
REMARK VINA RESULT:      -3.9      3.217      6.018
REMARK  3 active torsions:
REMARK  status: ('A' for Active; 'I' for Inactive)
REMARK    1  A    between atoms: C_1  and  C_3 
REMARK    2  A    between atoms: C_5  and  C_12 
REMARK    3  A    between atoms: N_11  and  C_12 
ROOT
HETATM    1  C   UNL     1      64.194   7.339   5.928  1.00  0.00     0.039 A 
HETATM    2  S   UNL     1      64.305   8.774   5.001  1.00  0.00    -0.090 SA
HETATM    3  C   UNL     1      62.941   6.771   5.813  1.00  0.00     0.023 A 
HETATM    4  C   UNL     1      62.710   8.612   4.399  1.00  0.00     0.009 A 
HETATM    5  C   UNL     1      62.090   7.496   4.928  1.00  0.00     0.017 A 
ENDROOT
BRANCH   1   6
HETATM    6  C   UNL     1      65.298   6.826   6.697  1.00  0.00     0.092 A 
HETATM    7  O   UNL     1      65.318   6.877   8.072  1.00  0.00    -0.321 OA
HETATM    8  C   UNL     1      66.462   6.289   8.498  1.00  0.00     0.142 A 
HETATM    9  C   UNL     1      67.204   5.850   7.430  1.00  0.00     0.027 A 
HETATM   10  C   UNL     1      66.463   6.200   6.275  1.00  0.00     0.040 A 
ENDBRANCH   1   6
BRANCH   4  11
HETATM   11  C   UNL     1      62.181   9.596   3.396  1.00  0.00     0.277 C 
BRANCH  11  12
HETATM   12  N   UNL     1      60.960   9.093   2.764  1.00  0.00    -0.075 N 
HETATM   13  C   UNL     1      61.167   8.883   1.338  1.00  0.00     0.267 C 
HETATM   14  H   UNL     1      60.210   9.772   2.898  1.00  0.00     0.277 HD
HETATM   15  H   UNL     1      60.712   8.202   3.194  1.00  0.00     0.277 HD
ENDBRANCH  11  12
ENDBRANCH   4  11
TORSDOF 3
ENDMDL
MODEL 6
REMARK VINA RESULT:      -3.7      2.771      3.335
REMARK  3 active torsions:
REMARK  status: ('A' for Active; 'I' for Inactive)
REMARK    1  A    between atoms: C_1  and  C_3 
REMARK    2  A    between atoms: C_5  and  C_12 
REMARK    3  A    between atoms: N_11  and  C_12 
ROOT
HETATM    1  C   UNL     1      63.900   7.882   4.062  1.00  0.00     0.039 A 
HETATM    2  S   UNL     1      65.427   7.396   4.664  1.00  0.00    -0.090 SA
HETATM    3  C   UNL     1      63.345   6.900   3.266  1.00  0.00     0.023 A 
HETATM    4  C   UNL     1      65.329   5.859   3.916  1.00  0.00     0.009 A 
HETATM    5  C   UNL     1      64.161   5.733   3.188  1.00  0.00     0.017 A 
ENDROOT
BRANCH   1   6
HETATM    6  C   UNL     1      63.308   9.154   4.387  1.00  0.00     0.092 A 
HETATM    7  O   UNL     1      63.634   9.842   5.533  1.00  0.00    -0.321 OA
HETATM    8  C   UNL     1      62.941  11.006   5.536  1.00  0.00     0.142 A 
HETATM    9  C   UNL     1      62.160  11.104   4.413  1.00  0.00     0.027 A 
HETATM   10  C   UNL     1      62.387   9.914   3.679  1.00  0.00     0.040 A 
ENDBRANCH   1   6
BRANCH   4  11
HETATM   11  C   UNL     1      66.415   4.845   4.135  1.00  0.00     0.277 C 
BRANCH  11  12
HETATM   12  N   UNL     1      67.511   5.040   3.183  1.00  0.00    -0.075 N 
HETATM   13  C   UNL     1      67.450   4.048   2.119  1.00  0.00     0.267 C 
HETATM   14  H   UNL     1      68.401   4.951   3.674  1.00  0.00     0.277 HD
HETATM   15  H   UNL     1      67.426   5.968   2.771  1.00  0.00     0.277 HD
ENDBRANCH  11  12
ENDBRANCH   4  11
TORSDOF 3
ENDMDL
MODEL 7
REMARK VINA RESULT:      -3.7      2.313      2.778
REMARK  3 active torsions:
REMARK  status: ('A' for Active; 'I' for Inactive)
REMARK    1  A    between atoms: C_1  and  C_3 
REMARK    2  A    between atoms: C_5  and  C_12 
REMARK    3  A    between atoms: N_11  and  C_12 
ROOT
HETATM    1  C   UNL     1      64.025   7.539   3.746  1.00  0.00     0.039 A 
HETATM    2  S   UNL     1      64.778   8.512   4.936  1.00  0.00    -0.090 SA
HETATM    3  C   UNL     1      64.849   6.499   3.363  1.00  0.00     0.023 A 
HETATM    4  C   UNL     1      66.175   7.522   4.987  1.00  0.00     0.009 A 
HETATM    5  C   UNL     1      66.081   6.483   4.081  1.00  0.00     0.017 A 
ENDROOT
BRANCH   1   6
HETATM    6  C   UNL     1      62.698   7.802   3.254  1.00  0.00     0.092 A 
HETATM    7  O   UNL     1      61.579   7.615   4.033  1.00  0.00    -0.321 OA
HETATM    8  C   UNL     1      60.495   7.978   3.305  1.00  0.00     0.142 A 
HETATM    9  C   UNL     1      60.874   8.403   2.056  1.00  0.00     0.027 A 
HETATM   10  C   UNL     1      62.285   8.283   2.019  1.00  0.00     0.040 A 
ENDBRANCH   1   6
BRANCH   4  11
HETATM   11  C   UNL     1      67.274   7.822   5.965  1.00  0.00     0.277 C 
BRANCH  11  12
HETATM   12  N   UNL     1      66.737   8.008   7.314  1.00  0.00    -0.075 N 
HETATM   13  C   UNL     1      66.345   6.730   7.892  1.00  0.00     0.267 C 
HETATM   14  H   UNL     1      65.921   8.619   7.268  1.00  0.00     0.277 HD
HETATM   15  H   UNL     1      67.459   8.425   7.900  1.00  0.00     0.277 HD
ENDBRANCH  11  12
ENDBRANCH   4  11
TORSDOF 3
ENDMDL
MODEL 8
REMARK VINA RESULT:      -3.7     11.121     12.757
REMARK  3 active torsions:
REMARK  status: ('A' for Active; 'I' for Inactive)
REMARK    1  A    between atoms: C_1  and  C_3 
REMARK    2  A    between atoms: C_5  and  C_12 
REMARK    3  A    between atoms: N_11  and  C_12 
ROOT
HETATM    1  C   UNL     1      59.686   0.420  12.771  1.00  0.00     0.039 A 
HETATM    2  S   UNL     1      58.296  -0.576  12.831  1.00  0.00    -0.090 SA
HETATM    3  C   UNL     1      59.482   1.599  13.459  1.00  0.00     0.023 A 
HETATM    4  C   UNL     1      57.440   0.530  13.820  1.00  0.00     0.009 A 
HETATM    5  C   UNL     1      58.195   1.661  14.071  1.00  0.00     0.017 A 
ENDROOT
BRANCH   1   6
HETATM    6  C   UNL     1      60.893   0.027  12.090  1.00  0.00     0.092 A 
HETATM    7  O   UNL     1      61.059   0.199  10.736  1.00  0.00    -0.321 OA
HETATM    8  C   UNL     1      62.300  -0.234  10.405  1.00  0.00     0.142 A 
HETATM    9  C   UNL     1      62.961  -0.692  11.517  1.00  0.00     0.027 A 
HETATM   10  C   UNL     1      62.058  -0.533  12.597  1.00  0.00     0.040 A 
ENDBRANCH   1   6
BRANCH   4  11
HETATM   11  C   UNL     1      56.069   0.183  14.325  1.00  0.00     0.277 C 
BRANCH  11  12
HETATM   12  N   UNL     1      55.325   1.390  14.689  1.00  0.00    -0.075 N 
HETATM   13  C   UNL     1      53.949   1.062  15.032  1.00  0.00     0.267 C 
HETATM   14  H   UNL     1      55.330   2.037  13.901  1.00  0.00     0.277 HD
HETATM   15  H   UNL     1      55.772   1.817  15.500  1.00  0.00     0.277 HD
ENDBRANCH  11  12
ENDBRANCH   4  11
TORSDOF 3
ENDMDL
MODEL 9
REMARK VINA RESULT:      -3.6     10.867     11.468
REMARK  3 active torsions:
REMARK  status: ('A' for Active; 'I' for Inactive)
REMARK    1  A    between atoms: C_1  and  C_3 
REMARK    2  A    between atoms: C_5  and  C_12 
REMARK    3  A    between atoms: N_11  and  C_12 
ROOT
HETATM    1  C   UNL     1      58.032   2.599  11.556  1.00  0.00     0.039 A 
HETATM    2  S   UNL     1      56.374   2.371  11.913  1.00  0.00    -0.090 SA
HETATM    3  C   UNL     1      58.829   2.129  12.581  1.00  0.00     0.023 A 
HETATM    4  C   UNL     1      56.712   1.594  13.402  1.00  0.00     0.009 A 
HETATM    5  C   UNL     1      58.073   1.543  13.638  1.00  0.00     0.017 A 
ENDROOT
BRANCH   1   6
HETATM    6  C   UNL     1      58.486   3.195  10.326  1.00  0.00     0.092 A 
HETATM    7  O   UNL     1      58.530   4.558  10.146  1.00  0.00    -0.321 OA
HETATM    8  C   UNL     1      59.029   4.803   8.910  1.00  0.00     0.142 A 
HETATM    9  C   UNL     1      59.315   3.626   8.265  1.00  0.00     0.027 A 
HETATM   10  C   UNL     1      58.960   2.594   9.168  1.00  0.00     0.040 A 
ENDBRANCH   1   6
BRANCH   4  11
HETATM   11  C   UNL     1      55.591   1.043  14.234  1.00  0.00     0.277 C 
BRANCH  11  12
HETATM   12  N   UNL     1      54.754   2.121  14.764  1.00  0.00    -0.075 N 
HETATM   13  C   UNL     1      53.344   1.771  14.673  1.00  0.00     0.267 C 
HETATM   14  H   UNL     1      54.924   2.972  14.227  1.00  0.00     0.277 HD
HETATM   15  H   UNL     1      54.992   2.268  15.745  1.00  0.00     0.277 HD
ENDBRANCH  11  12
ENDBRANCH   4  11
TORSDOF 3
ENDMDL
