MODEL 1
REMARK VINA RESULT:      -4.9      0.000      0.000
REMARK  2 active torsions:
REMARK  status: ('A' for Active; 'I' for Inactive)
REMARK    1  A    between atoms: C_3  and  C_8 
REMARK    2  A    between atoms: C_8  and  O_9 
ROOT
HETATM    1  C   UNL     1      64.139   9.050   5.042  1.00  0.00     0.117 A 
HETATM    2  C   UNL     1      63.917   8.127   3.991  1.00  0.00     0.109 A 
HETATM    3  C   UNL     1      63.206  10.064   5.070  1.00  0.00     0.042 A 
HETATM    4  S   UNL     1      62.041   9.852   3.823  1.00  0.00    -0.099 SA
HETATM    5  C   UNL     1      62.815   8.436   3.237  1.00  0.00     0.090 A 
HETATM    6  O   UNL     1      65.160   8.974   5.926  1.00  0.00    -0.345 OA
HETATM    7  O   UNL     1      64.707   7.059   3.726  1.00  0.00    -0.346 OA
HETATM    8  C   UNL     1      66.168   8.062   5.456  1.00  0.00     0.202 C 
HETATM    9  C   UNL     1      65.578   6.787   4.835  1.00  0.00     0.202 C 
ENDROOT
BRANCH   3  10
HETATM   10  C   UNL     1      63.126  11.230   5.993  1.00  0.00     0.213 C 
BRANCH  10  11
HETATM   11  O   UNL     1      64.448  11.533   6.428  1.00  0.00    -0.396 OA
HETATM   12  H   UNL     1      64.418  11.891   7.328  1.00  0.00     0.209 HD
ENDBRANCH  10  11
ENDBRANCH   3  10
TORSDOF 2
ENDMDL
MODEL 2
REMARK VINA RESULT:      -4.2      1.907      3.295
REMARK  2 active torsions:
REMARK  status: ('A' for Active; 'I' for Inactive)
REMARK    1  A    between atoms: C_3  and  C_8 
REMARK    2  A    between atoms: C_8  and  O_9 
ROOT
HETATM    1  C   UNL     1      64.054   9.032   4.840  1.00  0.00     0.117 A 
HETATM    2  C   UNL     1      63.037   8.842   3.872  1.00  0.00     0.109 A 
HETATM    3  C   UNL     1      64.940   7.978   4.899  1.00  0.00     0.042 A 
HETATM    4  S   UNL     1      64.535   6.778   3.734  1.00  0.00    -0.099 SA
HETATM    5  C   UNL     1      63.163   7.658   3.195  1.00  0.00     0.090 A 
HETATM    6  O   UNL     1      64.155  10.115   5.644  1.00  0.00    -0.345 OA
HETATM    7  O   UNL     1      62.027   9.713   3.638  1.00  0.00    -0.346 OA
HETATM    8  C   UNL     1      62.927  10.865   5.638  1.00  0.00     0.202 C 
HETATM    9  C   UNL     1      62.310  10.988   4.237  1.00  0.00     0.202 C 
ENDROOT
BRANCH   3  10
HETATM   10  C   UNL     1      66.109   7.793   5.804  1.00  0.00     0.213 C 
BRANCH  10  11
HETATM   11  O   UNL     1      66.271   8.992   6.554  1.00  0.00    -0.396 OA
HETATM   12  H   UNL     1      67.088   9.437   6.280  1.00  0.00     0.209 HD
ENDBRANCH  10  11
ENDBRANCH   3  10
TORSDOF 2
ENDMDL
MODEL 3
REMARK VINA RESULT:      -3.9      2.422      4.120
REMARK  2 active torsions:
REMARK  status: ('A' for Active; 'I' for Inactive)
REMARK    1  A    between atoms: C_3  and  C_8 
REMARK    2  A    between atoms: C_8  and  O_9 
ROOT
HETATM    1  C   UNL     1      62.352   9.288   3.923  1.00  0.00     0.117 A 
HETATM    2  C   UNL     1      63.555   9.149   4.658  1.00  0.00     0.109 A 
HETATM    3  C   UNL     1      62.088   8.201   3.118  1.00  0.00     0.042 A 
HETATM    4  S   UNL     1      63.306   6.999   3.300  1.00  0.00    -0.099 SA
HETATM    5  C   UNL     1      64.189   7.957   4.417  1.00  0.00     0.090 A 
HETATM    6  O   UNL     1      61.542  10.370   3.977  1.00  0.00    -0.345 OA
HETATM    7  O   UNL     1      64.058  10.086   5.495  1.00  0.00    -0.346 OA
HETATM    8  C   UNL     1      62.223  11.481   4.587  1.00  0.00     0.202 C 
HETATM    9  C   UNL     1      63.059  11.071   5.808  1.00  0.00     0.202 C 
ENDROOT
BRANCH   3  10
HETATM   10  C   UNL     1      60.950   7.992   2.179  1.00  0.00     0.213 C 
BRANCH  10  11
HETATM   11  O   UNL     1      60.710   9.223   1.506  1.00  0.00    -0.396 OA
HETATM   12  H   UNL     1      61.305   9.295   0.743  1.00  0.00     0.209 HD
ENDBRANCH  10  11
ENDBRANCH   3  10
TORSDOF 2
ENDMDL
MODEL 4
REMARK VINA RESULT:      -3.9      1.846      2.350
REMARK  2 active torsions:
REMARK  status: ('A' for Active; 'I' for Inactive)
REMARK    1  A    between atoms: C_3  and  C_8 
REMARK    2  A    between atoms: C_8  and  O_9 
ROOT
HETATM    1  C   UNL     1      65.078   7.957   5.528  1.00  0.00     0.117 A 
HETATM    2  C   UNL     1      65.108   6.601   5.937  1.00  0.00     0.109 A 
HETATM    3  C   UNL     1      63.805   8.486   5.519  1.00  0.00     0.042 A 
HETATM    4  S   UNL     1      62.659   7.318   6.051  1.00  0.00    -0.099 SA
HETATM    5  C   UNL     1      63.866   6.113   6.247  1.00  0.00     0.090 A 
HETATM    6  O   UNL     1      66.167   8.672   5.164  1.00  0.00    -0.345 OA
HETATM    7  O   UNL     1      66.228   5.842   6.000  1.00  0.00    -0.346 OA
HETATM    8  C   UNL     1      67.283   7.800   4.910  1.00  0.00     0.202 C 
HETATM    9  C   UNL     1      67.402   6.668   5.940  1.00  0.00     0.202 C 
ENDROOT
BRANCH   3  10
HETATM   10  C   UNL     1      63.367   9.852   5.119  1.00  0.00     0.213 C 
BRANCH  10  11
HETATM   11  O   UNL     1      64.163  10.791   5.835  1.00  0.00    -0.396 OA
HETATM   12  H   UNL     1      64.562  10.356   6.604  1.00  0.00     0.209 HD
ENDBRANCH  10  11
ENDBRANCH   3  10
TORSDOF 2
ENDMDL
MODEL 5
REMARK VINA RESULT:      -3.7      3.061      4.453
REMARK  2 active torsions:
REMARK  status: ('A' for Active; 'I' for Inactive)
REMARK    1  A    between atoms: C_3  and  C_8 
REMARK    2  A    between atoms: C_8  and  O_9 
ROOT
HETATM    1  C   UNL     1      65.218   7.211   6.448  1.00  0.00     0.117 A 
HETATM    2  C   UNL     1      65.384   7.684   5.124  1.00  0.00     0.109 A 
HETATM    3  C   UNL     1      66.390   6.738   6.998  1.00  0.00     0.042 A 
HETATM    4  S   UNL     1      67.695   6.915   5.891  1.00  0.00    -0.099 SA
HETATM    5  C   UNL     1      66.676   7.581   4.681  1.00  0.00     0.090 A 
HETATM    6  O   UNL     1      64.042   7.199   7.117  1.00  0.00    -0.345 OA
HETATM    7  O   UNL     1      64.384   8.170   4.350  1.00  0.00    -0.346 OA
HETATM    8  C   UNL     1      62.943   7.391   6.209  1.00  0.00     0.202 C 
HETATM    9  C   UNL     1      63.226   8.465   5.148  1.00  0.00     0.202 C 
ENDROOT
BRANCH   3  10
HETATM   10  C   UNL     1      66.611   6.133   8.341  1.00  0.00     0.213 C 
BRANCH  10  11
HETATM   11  O   UNL     1      65.840   4.938   8.412  1.00  0.00    -0.396 OA
HETATM   12  H   UNL     1      65.079   5.079   8.996  1.00  0.00     0.209 HD
ENDBRANCH  10  11
ENDBRANCH   3  10
TORSDOF 2
ENDMDL
MODEL 6
REMARK VINA RESULT:      -3.6      1.610      3.120
REMARK  2 active torsions:
REMARK  status: ('A' for Active; 'I' for Inactive)
REMARK    1  A    between atoms: C_3  and  C_8 
REMARK    2  A    between atoms: C_8  and  O_9 
ROOT
HETATM    1  C   UNL     1      63.615   8.455   3.911  1.00  0.00     0.117 A 
HETATM    2  C   UNL     1      63.972   9.271   5.013  1.00  0.00     0.109 A 
HETATM    3  C   UNL     1      62.517   8.929   3.227  1.00  0.00     0.042 A 
HETATM    4  S   UNL     1      61.954  10.398   3.924  1.00  0.00    -0.099 SA
HETATM    5  C   UNL     1      63.154  10.362   5.151  1.00  0.00     0.090 A 
HETATM    6  O   UNL     1      64.259   7.319   3.560  1.00  0.00    -0.345 OA
HETATM    7  O   UNL     1      64.991   9.011   5.865  1.00  0.00    -0.346 OA
HETATM    8  C   UNL     1      65.107   6.867   4.630  1.00  0.00     0.202 C 
HETATM    9  C   UNL     1      65.866   8.012   5.315  1.00  0.00     0.202 C 
ENDROOT
BRANCH   3  10
HETATM   10  C   UNL     1      61.827   8.336   2.048  1.00  0.00     0.213 C 
BRANCH  10  11
HETATM   11  O   UNL     1      60.726   9.178   1.719  1.00  0.00    -0.396 OA
HETATM   12  H   UNL     1      60.637   9.231   0.755  1.00  0.00     0.209 HD
ENDBRANCH  10  11
ENDBRANCH   3  10
TORSDOF 2
ENDMDL
MODEL 7
REMARK VINA RESULT:      -3.6      2.544      3.634
REMARK  2 active torsions:
REMARK  status: ('A' for Active; 'I' for Inactive)
REMARK    1  A    between atoms: C_3  and  C_8 
REMARK    2  A    between atoms: C_8  and  O_9 
ROOT
HETATM    1  C   UNL     1      62.480   9.122   2.942  1.00  0.00     0.117 A 
HETATM    2  C   UNL     1      63.094   7.863   2.732  1.00  0.00     0.109 A 
HETATM    3  C   UNL     1      62.816   9.687   4.153  1.00  0.00     0.042 A 
HETATM    4  S   UNL     1      63.917   8.678   5.009  1.00  0.00    -0.099 SA
HETATM    5  C   UNL     1      63.900   7.485   3.774  1.00  0.00     0.090 A 
HETATM    6  O   UNL     1      61.636   9.718   2.068  1.00  0.00    -0.345 OA
HETATM    7  O   UNL     1      62.904   7.087   1.638  1.00  0.00    -0.346 OA
HETATM    8  C   UNL     1      61.176   8.773   1.085  1.00  0.00     0.202 C 
HETATM    9  C   UNL     1      62.290   7.844   0.583  1.00  0.00     0.202 C 
ENDROOT
BRANCH   3  10
HETATM   10  C   UNL     1      62.349  10.972   4.743  1.00  0.00     0.213 C 
BRANCH  10  11
HETATM   11  O   UNL     1      61.990  11.837   3.670  1.00  0.00    -0.396 OA
HETATM   12  H   UNL     1      61.111  11.596   3.341  1.00  0.00     0.209 HD
ENDBRANCH  10  11
ENDBRANCH   3  10
TORSDOF 2
ENDMDL
MODEL 8
REMARK VINA RESULT:      -3.6      2.452      3.736
REMARK  2 active torsions:
REMARK  status: ('A' for Active; 'I' for Inactive)
REMARK    1  A    between atoms: C_3  and  C_8 
REMARK    2  A    between atoms: C_8  and  O_9 
ROOT
HETATM    1  C   UNL     1      62.916   8.947   3.822  1.00  0.00     0.117 A 
HETATM    2  C   UNL     1      62.455   8.774   2.495  1.00  0.00     0.109 A 
HETATM    3  C   UNL     1      63.515   7.815   4.333  1.00  0.00     0.042 A 
HETATM    4  S   UNL     1      63.537   6.557   3.160  1.00  0.00    -0.099 SA
HETATM    5  C   UNL     1      62.714   7.522   2.002  1.00  0.00     0.090 A 
HETATM    6  O   UNL     1      62.781  10.087   4.539  1.00  0.00    -0.345 OA
HETATM    7  O   UNL     1      61.804   9.720   1.777  1.00  0.00    -0.346 OA
HETATM    8  C   UNL     1      61.817  10.959   3.922  1.00  0.00     0.202 C 
HETATM    9  C   UNL     1      61.950  11.010   2.393  1.00  0.00     0.202 C 
ENDROOT
BRANCH   3  10
HETATM   10  C   UNL     1      64.086   7.596   5.691  1.00  0.00     0.213 C 
BRANCH  10  11
HETATM   11  O   UNL     1      63.070   7.894   6.644  1.00  0.00    -0.396 OA
HETATM   12  H   UNL     1      62.200   7.728   6.250  1.00  0.00     0.209 HD
ENDBRANCH  10  11
ENDBRANCH   3  10
TORSDOF 2
ENDMDL
MODEL 9
REMARK VINA RESULT:      -3.5      2.411      4.135
REMARK  2 active torsions:
REMARK  status: ('A' for Active; 'I' for Inactive)
REMARK    1  A    between atoms: C_3  and  C_8 
REMARK    2  A    between atoms: C_8  and  O_9 
ROOT
HETATM    1  C   UNL     1      62.748   8.881   3.340  1.00  0.00     0.117 A 
HETATM    2  C   UNL     1      62.147  10.146   3.129  1.00  0.00     0.109 A 
HETATM    3  C   UNL     1      62.740   8.089   2.212  1.00  0.00     0.042 A 
HETATM    4  S   UNL     1      62.024   8.924   0.889  1.00  0.00    -0.099 SA
HETATM    5  C   UNL     1      61.699  10.312   1.844  1.00  0.00     0.090 A 
HETATM    6  O   UNL     1      63.267   8.466   4.519  1.00  0.00    -0.345 OA
HETATM    7  O   UNL     1      61.999  11.096   4.082  1.00  0.00    -0.346 OA
HETATM    8  C   UNL     1      62.821   9.313   5.593  1.00  0.00     0.202 C 
HETATM    9  C   UNL     1      62.827  10.802   5.220  1.00  0.00     0.202 C 
ENDROOT
BRANCH   3  10
HETATM   10  C   UNL     1      63.241   6.696   2.048  1.00  0.00     0.213 C 
BRANCH  10  11
HETATM   11  O   UNL     1      62.809   5.943   3.177  1.00  0.00    -0.396 OA
HETATM   12  H   UNL     1      62.124   6.438   3.652  1.00  0.00     0.209 HD
ENDBRANCH  10  11
ENDBRANCH   3  10
TORSDOF 2
ENDMDL
