MODEL 1
REMARK VINA RESULT:      -4.2      0.000      0.000
REMARK  2 active torsions:
REMARK  status: ('A' for Active; 'I' for Inactive)
REMARK    1  A    between atoms: C_3  and  C_8 
REMARK    2  A    between atoms: C_8  and  N_9 
ROOT
HETATM    1  C   UNL     1      64.054   8.942   4.721  1.00  0.00     0.117 A 
HETATM    2  C   UNL     1      62.941   8.781   3.858  1.00  0.00     0.109 A 
HETATM    3  C   UNL     1      64.936   7.887   4.660  1.00  0.00     0.044 A 
HETATM    4  S   UNL     1      64.381   6.698   3.535  1.00  0.00    -0.099 SA
HETATM    5  C   UNL     1      62.980   7.611   3.149  1.00  0.00     0.090 A 
HETATM    6  O   UNL     1      64.239  10.008   5.537  1.00  0.00    -0.345 OA
HETATM    7  O   UNL     1      61.919   9.663   3.749  1.00  0.00    -0.346 OA
HETATM    8  C   UNL     1      63.023  10.764   5.668  1.00  0.00     0.202 C 
HETATM    9  C   UNL     1      62.275  10.923   4.337  1.00  0.00     0.202 C 
ENDROOT
BRANCH   3  10
HETATM   10  C   UNL     1      66.186   7.655   5.456  1.00  0.00     0.280 C 
BRANCH  10  11
HETATM   11  N   UNL     1      65.957   7.859   6.888  1.00  0.00    -0.075 N 
HETATM   12  C   UNL     1      65.672   6.595   7.550  1.00  0.00     0.267 C 
HETATM   13  H   UNL     1      65.166   8.489   7.014  1.00  0.00     0.277 HD
HETATM   14  H   UNL     1      66.799   8.261   7.300  1.00  0.00     0.277 HD
ENDBRANCH  10  11
ENDBRANCH   3  10
TORSDOF 2
ENDMDL
MODEL 2
REMARK VINA RESULT:      -3.9      2.395      3.864
REMARK  2 active torsions:
REMARK  status: ('A' for Active; 'I' for Inactive)
REMARK    1  A    between atoms: C_3  and  C_8 
REMARK    2  A    between atoms: C_8  and  N_9 
ROOT
HETATM    1  C   UNL     1      62.665   9.198   4.026  1.00  0.00     0.117 A 
HETATM    2  C   UNL     1      63.803   9.221   4.870  1.00  0.00     0.109 A 
HETATM    3  C   UNL     1      62.577   8.045   3.278  1.00  0.00     0.044 A 
HETATM    4  S   UNL     1      63.908   6.998   3.622  1.00  0.00    -0.099 SA
HETATM    5  C   UNL     1      64.573   8.095   4.762  1.00  0.00     0.090 A 
HETATM    6  O   UNL     1      61.757  10.200   3.941  1.00  0.00    -0.345 OA
HETATM    7  O   UNL     1      64.133  10.251   5.687  1.00  0.00    -0.346 OA
HETATM    8  C   UNL     1      62.270  11.402   4.540  1.00  0.00     0.202 C 
HETATM    9  C   UNL     1      63.018  11.139   5.854  1.00  0.00     0.202 C 
ENDROOT
BRANCH   3  10
HETATM   10  C   UNL     1      61.568   7.673   2.233  1.00  0.00     0.280 C 
BRANCH  10  11
HETATM   11  N   UNL     1      60.245   8.221   2.543  1.00  0.00    -0.075 N 
HETATM   12  C   UNL     1      59.519   7.335   3.441  1.00  0.00     0.267 C 
HETATM   13  H   UNL     1      59.716   8.327   1.678  1.00  0.00     0.277 HD
HETATM   14  H   UNL     1      60.364   9.125   3.000  1.00  0.00     0.277 HD
ENDBRANCH  10  11
ENDBRANCH   3  10
TORSDOF 2
ENDMDL
MODEL 3
REMARK VINA RESULT:      -3.8      2.595      4.382
REMARK  2 active torsions:
REMARK  status: ('A' for Active; 'I' for Inactive)
REMARK    1  A    between atoms: C_3  and  C_8 
REMARK    2  A    between atoms: C_8  and  N_9 
ROOT
HETATM    1  C   UNL     1      63.895   8.352   5.263  1.00  0.00     0.117 A 
HETATM    2  C   UNL     1      63.833   6.947   5.434  1.00  0.00     0.109 A 
HETATM    3  C   UNL     1      62.770   8.867   4.658  1.00  0.00     0.044 A 
HETATM    4  S   UNL     1      61.643   7.606   4.302  1.00  0.00    -0.099 SA
HETATM    5  C   UNL     1      62.671   6.400   4.962  1.00  0.00     0.090 A 
HETATM    6  O   UNL     1      64.945   9.122   5.635  1.00  0.00    -0.345 OA
HETATM    7  O   UNL     1      64.820   6.195   5.979  1.00  0.00    -0.346 OA
HETATM    8  C   UNL     1      66.101   8.309   5.900  1.00  0.00     0.202 C 
HETATM    9  C   UNL     1      65.762   7.027   6.674  1.00  0.00     0.202 C 
ENDROOT
BRANCH   3  10
HETATM   10  C   UNL     1      62.481  10.281   4.249  1.00  0.00     0.280 C 
BRANCH  10  11
HETATM   11  N   UNL     1      61.513  10.337   3.151  1.00  0.00    -0.075 N 
HETATM   12  C   UNL     1      61.771  11.485   2.295  1.00  0.00     0.267 C 
HETATM   13  H   UNL     1      60.573  10.413   3.538  1.00  0.00     0.277 HD
HETATM   14  H   UNL     1      61.600   9.487   2.595  1.00  0.00     0.277 HD
ENDBRANCH  10  11
ENDBRANCH   3  10
TORSDOF 2
ENDMDL
MODEL 4
REMARK VINA RESULT:      -3.7      3.046      4.859
REMARK  2 active torsions:
REMARK  status: ('A' for Active; 'I' for Inactive)
REMARK    1  A    between atoms: C_3  and  C_8 
REMARK    2  A    between atoms: C_8  and  N_9 
ROOT
HETATM    1  C   UNL     1      63.662   8.349   3.886  1.00  0.00     0.117 A 
HETATM    2  C   UNL     1      64.008   9.197   4.968  1.00  0.00     0.109 A 
HETATM    3  C   UNL     1      62.550   8.783   3.200  1.00  0.00     0.044 A 
HETATM    4  S   UNL     1      61.937  10.239   3.901  1.00  0.00    -0.099 SA
HETATM    5  C   UNL     1      63.163  10.266   5.101  1.00  0.00     0.090 A 
HETATM    6  O   UNL     1      64.334   7.220   3.556  1.00  0.00    -0.345 OA
HETATM    7  O   UNL     1      65.043   8.980   5.814  1.00  0.00    -0.346 OA
HETATM    8  C   UNL     1      65.206   6.818   4.626  1.00  0.00     0.202 C 
HETATM    9  C   UNL     1      65.941   8.001   5.271  1.00  0.00     0.202 C 
ENDROOT
BRANCH   3  10
HETATM   10  C   UNL     1      61.839   8.136   2.049  1.00  0.00     0.280 C 
BRANCH  10  11
HETATM   11  N   UNL     1      60.746   8.975   1.551  1.00  0.00    -0.075 N 
HETATM   12  C   UNL     1      59.837   8.198   0.721  1.00  0.00     0.267 C 
HETATM   13  H   UNL     1      61.136   9.737   0.997  1.00  0.00     0.277 HD
HETATM   14  H   UNL     1      60.227   9.344   2.347  1.00  0.00     0.277 HD
ENDBRANCH  10  11
ENDBRANCH   3  10
TORSDOF 2
ENDMDL
MODEL 5
REMARK VINA RESULT:      -3.6      2.371      3.283
REMARK  2 active torsions:
REMARK  status: ('A' for Active; 'I' for Inactive)
REMARK    1  A    between atoms: C_3  and  C_8 
REMARK    2  A    between atoms: C_8  and  N_9 
ROOT
HETATM    1  C   UNL     1      62.794   8.774   3.266  1.00  0.00     0.117 A 
HETATM    2  C   UNL     1      62.037   9.890   2.829  1.00  0.00     0.109 A 
HETATM    3  C   UNL     1      63.344   8.956   4.515  1.00  0.00     0.044 A 
HETATM    4  S   UNL     1      62.924  10.511   5.140  1.00  0.00    -0.099 SA
HETATM    5  C   UNL     1      62.016  10.911   3.741  1.00  0.00     0.090 A 
HETATM    6  O   UNL     1      62.978   7.645   2.539  1.00  0.00    -0.345 OA
HETATM    7  O   UNL     1      61.415   9.975   1.629  1.00  0.00    -0.346 OA
HETATM    8  C   UNL     1      62.609   7.859   1.166  1.00  0.00     0.202 C 
HETATM    9  C   UNL     1      61.320   8.679   1.018  1.00  0.00     0.202 C 
ENDROOT
BRANCH   3  10
HETATM   10  C   UNL     1      64.252   8.046   5.287  1.00  0.00     0.280 C 
BRANCH  10  11
HETATM   11  N   UNL     1      63.616   7.569   6.518  1.00  0.00    -0.075 N 
HETATM   12  C   UNL     1      62.651   6.519   6.226  1.00  0.00     0.267 C 
HETATM   13  H   UNL     1      63.137   8.347   6.970  1.00  0.00     0.277 HD
HETATM   14  H   UNL     1      64.335   7.190   7.133  1.00  0.00     0.277 HD
ENDBRANCH  10  11
ENDBRANCH   3  10
TORSDOF 2
ENDMDL
MODEL 6
REMARK VINA RESULT:      -3.5      2.404      4.238
REMARK  2 active torsions:
REMARK  status: ('A' for Active; 'I' for Inactive)
REMARK    1  A    between atoms: C_3  and  C_8 
REMARK    2  A    between atoms: C_8  and  N_9 
ROOT
HETATM    1  C   UNL     1      64.647   7.784   5.642  1.00  0.00     0.117 A 
HETATM    2  C   UNL     1      64.612   6.627   6.460  1.00  0.00     0.109 A 
HETATM    3  C   UNL     1      63.497   7.951   4.904  1.00  0.00     0.044 A 
HETATM    4  S   UNL     1      62.380   6.672   5.224  1.00  0.00    -0.099 SA
HETATM    5  C   UNL     1      63.445   5.922   6.341  1.00  0.00     0.090 A 
HETATM    6  O   UNL     1      65.696   8.638   5.571  1.00  0.00    -0.345 OA
HETATM    7  O   UNL     1      65.626   6.222   7.263  1.00  0.00    -0.346 OA
HETATM    8  C   UNL     1      66.871   8.047   6.151  1.00  0.00     0.202 C 
HETATM    9  C   UNL     1      66.575   7.284   7.450  1.00  0.00     0.202 C 
ENDROOT
BRANCH   3  10
HETATM   10  C   UNL     1      63.175   9.003   3.884  1.00  0.00     0.280 C 
BRANCH  10  11
HETATM   11  N   UNL     1      62.175   9.949   4.385  1.00  0.00    -0.075 N 
HETATM   12  C   UNL     1      62.792  10.938   5.256  1.00  0.00     0.267 C 
HETATM   13  H   UNL     1      61.464   9.439   4.908  1.00  0.00     0.277 HD
HETATM   14  H   UNL     1      61.753  10.430   3.590  1.00  0.00     0.277 HD
ENDBRANCH  10  11
ENDBRANCH   3  10
TORSDOF 2
ENDMDL
MODEL 7
REMARK VINA RESULT:      -3.4      2.095      3.507
REMARK  2 active torsions:
REMARK  status: ('A' for Active; 'I' for Inactive)
REMARK    1  A    between atoms: C_3  and  C_8 
REMARK    2  A    between atoms: C_8  and  N_9 
ROOT
HETATM    1  C   UNL     1      63.240   8.735   4.027  1.00  0.00     0.117 A 
HETATM    2  C   UNL     1      64.210   9.104   4.992  1.00  0.00     0.109 A 
HETATM    3  C   UNL     1      63.510   7.522   3.434  1.00  0.00     0.044 A 
HETATM    4  S   UNL     1      64.967   6.847   4.072  1.00  0.00    -0.099 SA
HETATM    5  C   UNL     1      65.209   8.177   5.128  1.00  0.00     0.090 A 
HETATM    6  O   UNL     1      62.163   9.489   3.701  1.00  0.00    -0.345 OA
HETATM    7  O   UNL     1      64.191  10.259   5.699  1.00  0.00    -0.346 OA
HETATM    8  C   UNL     1      62.316  10.832   4.193  1.00  0.00     0.202 C 
HETATM    9  C   UNL     1      62.901  10.883   5.611  1.00  0.00     0.202 C 
ENDROOT
BRANCH   3  10
HETATM   10  C   UNL     1      62.767   6.825   2.333  1.00  0.00     0.280 C 
BRANCH  10  11
HETATM   11  N   UNL     1      63.662   5.996   1.521  1.00  0.00    -0.075 N 
HETATM   12  C   UNL     1      63.136   4.646   1.389  1.00  0.00     0.267 C 
HETATM   13  H   UNL     1      64.578   5.956   1.968  1.00  0.00     0.277 HD
HETATM   14  H   UNL     1      63.738   6.410   0.592  1.00  0.00     0.277 HD
ENDBRANCH  10  11
ENDBRANCH   3  10
TORSDOF 2
ENDMDL
MODEL 8
REMARK VINA RESULT:      -3.2      2.684      3.870
REMARK  2 active torsions:
REMARK  status: ('A' for Active; 'I' for Inactive)
REMARK    1  A    between atoms: C_3  and  C_8 
REMARK    2  A    between atoms: C_8  and  N_9 
ROOT
HETATM    1  C   UNL     1      64.676   6.855   5.554  1.00  0.00     0.117 A 
HETATM    2  C   UNL     1      64.786   8.259   5.393  1.00  0.00     0.109 A 
HETATM    3  C   UNL     1      63.658   6.308   4.805  1.00  0.00     0.044 A 
HETATM    4  S   UNL     1      62.840   7.538   3.908  1.00  0.00    -0.099 SA
HETATM    5  C   UNL     1      63.857   8.772   4.529  1.00  0.00     0.090 A 
HETATM    6  O   UNL     1      65.470   6.116   6.365  1.00  0.00    -0.345 OA
HETATM    7  O   UNL     1      65.687   9.039   6.037  1.00  0.00    -0.346 OA
HETATM    8  C   UNL     1      66.190   6.961   7.279  1.00  0.00     0.202 C 
HETATM    9  C   UNL     1      66.728   8.235   6.614  1.00  0.00     0.202 C 
ENDROOT
BRANCH   3  10
HETATM   10  C   UNL     1      63.186   4.886   4.751  1.00  0.00     0.280 C 
BRANCH  10  11
HETATM   11  N   UNL     1      64.304   3.953   4.596  1.00  0.00    -0.075 N 
HETATM   12  C   UNL     1      64.208   2.869   5.561  1.00  0.00     0.267 C 
HETATM   13  H   UNL     1      65.180   4.454   4.741  1.00  0.00     0.277 HD
HETATM   14  H   UNL     1      64.273   3.558   3.656  1.00  0.00     0.277 HD
ENDBRANCH  10  11
ENDBRANCH   3  10
TORSDOF 2
ENDMDL
MODEL 9
REMARK VINA RESULT:      -3.2     12.800     13.918
REMARK  2 active torsions:
REMARK  status: ('A' for Active; 'I' for Inactive)
REMARK    1  A    between atoms: C_3  and  C_8 
REMARK    2  A    between atoms: C_8  and  N_9 
ROOT
HETATM    1  C   UNL     1      56.655   1.348  13.230  1.00  0.00     0.117 A 
HETATM    2  C   UNL     1      57.459   0.188  13.092  1.00  0.00     0.109 A 
HETATM    3  C   UNL     1      55.482   1.108  13.910  1.00  0.00     0.044 A 
HETATM    4  S   UNL     1      55.379  -0.554  14.372  1.00  0.00    -0.099 SA
HETATM    5  C   UNL     1      56.898  -0.922  13.663  1.00  0.00     0.090 A 
HETATM    6  O   UNL     1      56.983   2.567  12.740  1.00  0.00    -0.345 OA
HETATM    7  O   UNL     1      58.647   0.150  12.444  1.00  0.00    -0.346 OA
HETATM    8  C   UNL     1      58.055   2.459  11.787  1.00  0.00     0.202 C 
HETATM    9  C   UNL     1      59.149   1.479  12.231  1.00  0.00     0.202 C 
ENDROOT
BRANCH   3  10
HETATM   10  C   UNL     1      54.350   2.049  14.202  1.00  0.00     0.280 C 
BRANCH  10  11
HETATM   11  N   UNL     1      54.835   3.324  14.736  1.00  0.00    -0.075 N 
HETATM   12  C   UNL     1      54.299   4.440  13.972  1.00  0.00     0.267 C 
HETATM   13  H   UNL     1      55.853   3.342  14.686  1.00  0.00     0.277 HD
HETATM   14  H   UNL     1      54.526   3.411  15.704  1.00  0.00     0.277 HD
ENDBRANCH  10  11
ENDBRANCH   3  10
TORSDOF 2
ENDMDL
