MODEL 1
REMARK VINA RESULT:      -4.3      0.000      0.000
REMARK  0 active torsions:
REMARK  status: ('A' for Active; 'I' for Inactive)
ROOT
HETATM    1  C   UNL     1      65.061   8.386   5.182  1.00  0.00     0.130 A 
HETATM    2  C   UNL     1      63.892   9.007   4.805  1.00  0.00     0.121 A 
HETATM    3  C   UNL     1      65.286   7.175   4.479  1.00  0.00     0.110 A 
HETATM    4  S   UNL     1      63.122   8.147   3.532  1.00  0.00    -0.085 SA
HETATM    5  C   UNL     1      64.326   6.925   3.531  1.00  0.00     0.090 A 
HETATM    6  C   UNL     1      63.341  10.189   5.389  1.00  0.00     0.110 C 
HETATM    7  N   UNL     1      62.869  11.133   5.873  1.00  0.00    -0.191 NA
HETATM    8  O   UNL     1      65.894   8.879   6.128  1.00  0.00    -0.344 OA
HETATM    9  O   UNL     1      66.316   6.329   4.702  1.00  0.00    -0.346 OA
HETATM   10  C   UNL     1      66.810   7.876   6.592  1.00  0.00     0.202 C 
HETATM   11  C   UNL     1      67.344   6.957   5.484  1.00  0.00     0.202 C 
ENDROOT
TORSDOF 0
ENDMDL
MODEL 2
REMARK VINA RESULT:      -4.1      2.747      3.940
REMARK  0 active torsions:
REMARK  status: ('A' for Active; 'I' for Inactive)
ROOT
HETATM    1  C   UNL     1      63.325   8.655   4.878  1.00  0.00     0.130 A 
HETATM    2  C   UNL     1      63.951   7.472   5.195  1.00  0.00     0.121 A 
HETATM    3  C   UNL     1      62.964   8.730   3.508  1.00  0.00     0.110 A 
HETATM    4  S   UNL     1      64.016   6.426   3.834  1.00  0.00    -0.085 SA
HETATM    5  C   UNL     1      63.257   7.581   2.818  1.00  0.00     0.090 A 
HETATM    6  C   UNL     1      64.514   7.132   6.465  1.00  0.00     0.110 C 
HETATM    7  N   UNL     1      65.000   6.855   7.481  1.00  0.00    -0.191 NA
HETATM    8  O   UNL     1      63.090   9.639   5.778  1.00  0.00    -0.344 OA
HETATM    9  O   UNL     1      62.404   9.806   2.912  1.00  0.00    -0.346 OA
HETATM   10  C   UNL     1      62.785  10.881   5.128  1.00  0.00     0.202 C 
HETATM   11  C   UNL     1      61.896  10.733   3.884  1.00  0.00     0.202 C 
ENDROOT
TORSDOF 0
ENDMDL
MODEL 3
REMARK VINA RESULT:      -4.1      2.530      2.770
REMARK  0 active torsions:
REMARK  status: ('A' for Active; 'I' for Inactive)
ROOT
HETATM    1  C   UNL     1      63.846   7.454   6.072  1.00  0.00     0.130 A 
HETATM    2  C   UNL     1      62.516   7.265   5.772  1.00  0.00     0.121 A 
HETATM    3  C   UNL     1      64.534   8.177   5.065  1.00  0.00     0.110 A 
HETATM    4  S   UNL     1      62.100   8.051   4.302  1.00  0.00    -0.085 SA
HETATM    5  C   UNL     1      63.709   8.589   4.049  1.00  0.00     0.090 A 
HETATM    6  C   UNL     1      61.581   6.501   6.538  1.00  0.00     0.110 C 
HETATM    7  N   UNL     1      60.819   5.861   7.134  1.00  0.00    -0.191 NA
HETATM    8  O   UNL     1      64.427   6.988   7.202  1.00  0.00    -0.344 OA
HETATM    9  O   UNL     1      65.860   8.439   5.068  1.00  0.00    -0.346 OA
HETATM   10  C   UNL     1      65.858   6.983   7.090  1.00  0.00     0.202 C 
HETATM   11  C   UNL     1      66.433   8.208   6.364  1.00  0.00     0.202 C 
ENDROOT
TORSDOF 0
ENDMDL
MODEL 4
REMARK VINA RESULT:      -4.1      2.831      3.582
REMARK  0 active torsions:
REMARK  status: ('A' for Active; 'I' for Inactive)
ROOT
HETATM    1  C   UNL     1      66.843   6.607   7.068  1.00  0.00     0.130 A 
HETATM    2  C   UNL     1      66.378   7.074   5.860  1.00  0.00     0.121 A 
HETATM    3  C   UNL     1      67.487   5.348   6.953  1.00  0.00     0.110 A 
HETATM    4  S   UNL     1      66.808   6.009   4.582  1.00  0.00    -0.085 SA
HETATM    5  C   UNL     1      67.564   4.907   5.657  1.00  0.00     0.090 A 
HETATM    6  C   UNL     1      65.609   8.262   5.657  1.00  0.00     0.110 C 
HETATM    7  N   UNL     1      64.962   9.209   5.483  1.00  0.00    -0.191 NA
HETATM    8  O   UNL     1      66.691   7.277   8.234  1.00  0.00    -0.344 OA
HETATM    9  O   UNL     1      67.971   4.628   7.990  1.00  0.00    -0.346 OA
HETATM   10  C   UNL     1      66.914   6.419   9.363  1.00  0.00     0.202 C 
HETATM   11  C   UNL     1      68.074   5.430   9.176  1.00  0.00     0.202 C 
ENDROOT
TORSDOF 0
ENDMDL
MODEL 5
REMARK VINA RESULT:      -4.0      3.464      4.537
REMARK  0 active torsions:
REMARK  status: ('A' for Active; 'I' for Inactive)
ROOT
HETATM    1  C   UNL     1      64.868   6.881   6.212  1.00  0.00     0.130 A 
HETATM    2  C   UNL     1      65.652   5.882   6.741  1.00  0.00     0.121 A 
HETATM    3  C   UNL     1      65.594   8.079   5.984  1.00  0.00     0.110 A 
HETATM    4  S   UNL     1      67.289   6.388   6.873  1.00  0.00    -0.085 SA
HETATM    5  C   UNL     1      66.929   7.955   6.275  1.00  0.00     0.090 A 
HETATM    6  C   UNL     1      65.200   4.594   7.165  1.00  0.00     0.110 C 
HETATM    7  N   UNL     1      64.841   3.555   7.538  1.00  0.00    -0.191 NA
HETATM    8  O   UNL     1      63.549   6.733   5.950  1.00  0.00    -0.344 OA
HETATM    9  O   UNL     1      65.057   9.238   5.541  1.00  0.00    -0.346 OA
HETATM   10  C   UNL     1      62.905   8.004   5.774  1.00  0.00     0.202 C 
HETATM   11  C   UNL     1      63.745   9.029   4.997  1.00  0.00     0.202 C 
ENDROOT
TORSDOF 0
ENDMDL
MODEL 6
REMARK VINA RESULT:      -4.0      3.353      4.704
REMARK  0 active torsions:
REMARK  status: ('A' for Active; 'I' for Inactive)
ROOT
HETATM    1  C   UNL     1      62.909   8.850   3.330  1.00  0.00     0.130 A 
HETATM    2  C   UNL     1      63.292   9.131   4.622  1.00  0.00     0.121 A 
HETATM    3  C   UNL     1      62.118   9.880   2.760  1.00  0.00     0.110 A 
HETATM    4  S   UNL     1      62.753  10.692   5.097  1.00  0.00    -0.085 SA
HETATM    5  C   UNL     1      61.966  10.957   3.596  1.00  0.00     0.090 A 
HETATM    6  C   UNL     1      64.014   8.259   5.494  1.00  0.00     0.110 C 
HETATM    7  N   UNL     1      64.574   7.550   6.221  1.00  0.00    -0.191 NA
HETATM    8  O   UNL     1      63.248   7.709   2.685  1.00  0.00    -0.344 OA
HETATM    9  O   UNL     1      61.548   9.832   1.535  1.00  0.00    -0.346 OA
HETATM   10  C   UNL     1      62.424   7.499   1.528  1.00  0.00     0.202 C 
HETATM   11  C   UNL     1      62.116   8.780   0.740  1.00  0.00     0.202 C 
ENDROOT
TORSDOF 0
ENDMDL
MODEL 7
REMARK VINA RESULT:      -3.9      2.572      3.434
REMARK  0 active torsions:
REMARK  status: ('A' for Active; 'I' for Inactive)
ROOT
HETATM    1  C   UNL     1      63.445   8.445   3.775  1.00  0.00     0.130 A 
HETATM    2  C   UNL     1      62.559   9.161   3.004  1.00  0.00     0.121 A 
HETATM    3  C   UNL     1      63.708   9.068   5.022  1.00  0.00     0.110 A 
HETATM    4  S   UNL     1      61.989  10.546   3.846  1.00  0.00    -0.085 SA
HETATM    5  C   UNL     1      62.971  10.208   5.212  1.00  0.00     0.090 A 
HETATM    6  C   UNL     1      62.164   8.848   1.666  1.00  0.00     0.110 C 
HETATM    7  N   UNL     1      61.857   8.620   0.571  1.00  0.00    -0.191 NA
HETATM    8  O   UNL     1      64.007   7.279   3.376  1.00  0.00    -0.344 OA
HETATM    9  O   UNL     1      64.593   8.620   5.941  1.00  0.00    -0.346 OA
HETATM   10  C   UNL     1      65.152   6.950   4.177  1.00  0.00     0.202 C 
HETATM   11  C   UNL     1      64.981   7.264   5.671  1.00  0.00     0.202 C 
ENDROOT
TORSDOF 0
ENDMDL
MODEL 8
REMARK VINA RESULT:      -3.8      3.135      4.048
REMARK  0 active torsions:
REMARK  status: ('A' for Active; 'I' for Inactive)
ROOT
HETATM    1  C   UNL     1      65.050   7.121   6.316  1.00  0.00     0.130 A 
HETATM    2  C   UNL     1      66.245   6.875   6.953  1.00  0.00     0.121 A 
HETATM    3  C   UNL     1      65.215   7.389   4.933  1.00  0.00     0.110 A 
HETATM    4  S   UNL     1      67.551   6.887   5.836  1.00  0.00    -0.085 SA
HETATM    5  C   UNL     1      66.519   7.275   4.522  1.00  0.00     0.090 A 
HETATM    6  C   UNL     1      66.423   6.664   8.355  1.00  0.00     0.110 C 
HETATM    7  N   UNL     1      66.584   6.519   9.495  1.00  0.00    -0.191 NA
HETATM    8  O   UNL     1      63.854   7.116   6.950  1.00  0.00    -0.344 OA
HETATM    9  O   UNL     1      64.219   7.733   4.086  1.00  0.00    -0.346 OA
HETATM   10  C   UNL     1      62.843   7.764   6.163  1.00  0.00     0.202 C 
HETATM   11  C   UNL     1      62.932   7.462   4.659  1.00  0.00     0.202 C 
ENDROOT
TORSDOF 0
ENDMDL
MODEL 9
REMARK VINA RESULT:      -3.7      3.139      4.195
REMARK  0 active torsions:
REMARK  status: ('A' for Active; 'I' for Inactive)
ROOT
HETATM    1  C   UNL     1      61.885   8.246   4.027  1.00  0.00     0.130 A 
HETATM    2  C   UNL     1      62.650   9.333   4.384  1.00  0.00     0.121 A 
HETATM    3  C   UNL     1      62.580   7.018   4.178  1.00  0.00     0.110 A 
HETATM    4  S   UNL     1      64.182   8.837   4.984  1.00  0.00    -0.085 SA
HETATM    5  C   UNL     1      63.834   7.179   4.711  1.00  0.00     0.090 A 
HETATM    6  C   UNL     1      62.271  10.705   4.260  1.00  0.00     0.110 C 
HETATM    7  N   UNL     1      61.987  11.824   4.139  1.00  0.00    -0.191 NA
HETATM    8  O   UNL     1      60.614   8.347   3.573  1.00  0.00    -0.344 OA
HETATM    9  O   UNL     1      62.094   5.805   3.832  1.00  0.00    -0.346 OA
HETATM   10  C   UNL     1      60.193   7.137   2.925  1.00  0.00     0.202 C 
HETATM   11  C   UNL     1      60.675   5.855   3.620  1.00  0.00     0.202 C 
ENDROOT
TORSDOF 0
ENDMDL
