MODEL 1
REMARK VINA RESULT:      -4.9      0.000      0.000
REMARK  2 active torsions:
REMARK  status: ('A' for Active; 'I' for Inactive)
REMARK    1  A    between atoms: C_2  and  C_4 
REMARK    2  A    between atoms: C_3  and  C_7 
ROOT
HETATM    1  S   UNL     1      63.179   9.690   5.101  1.00  0.00    -0.081 SA
HETATM    2  C   UNL     1      63.374   8.024   4.755  1.00  0.00     0.039 A 
HETATM    3  C   UNL     1      62.392   9.996   3.615  1.00  0.00     0.082 A 
HETATM    4  C   UNL     1      62.242   8.835   2.883  1.00  0.00     0.027 A 
HETATM    5  C   UNL     1      62.802   7.700   3.540  1.00  0.00     0.023 A 
ENDROOT
BRANCH   2   6
HETATM    6  C   UNL     1      64.072   7.132   5.640  1.00  0.00     0.092 A 
HETATM    7  O   UNL     1      64.908   7.583   6.635  1.00  0.00    -0.321 OA
HETATM    8  C   UNL     1      65.367   6.506   7.317  1.00  0.00     0.142 A 
HETATM    9  C   UNL     1      64.857   5.347   6.787  1.00  0.00     0.027 A 
HETATM   10  C   UNL     1      64.038   5.745   5.706  1.00  0.00     0.040 A 
ENDBRANCH   2   6
BRANCH   3  11
HETATM   11  C   UNL     1      61.994  11.344   3.292  1.00  0.00     0.216 C 
HETATM   12  O   UNL     1      61.811  11.850   2.194  1.00  0.00    -0.643 OA
HETATM   13  O   UNL     1      61.808  12.086   4.409  1.00  0.00    -0.643 OA
ENDBRANCH   3  11
TORSDOF 2
ENDMDL
MODEL 2
REMARK VINA RESULT:      -4.6      2.579      6.191
REMARK  2 active torsions:
REMARK  status: ('A' for Active; 'I' for Inactive)
REMARK    1  A    between atoms: C_2  and  C_4 
REMARK    2  A    between atoms: C_3  and  C_7 
ROOT
HETATM    1  S   UNL     1      65.091   6.643   6.825  1.00  0.00    -0.081 SA
HETATM    2  C   UNL     1      65.317   7.824   5.604  1.00  0.00     0.039 A 
HETATM    3  C   UNL     1      66.711   6.105   6.726  1.00  0.00     0.082 A 
HETATM    4  C   UNL     1      67.426   6.845   5.804  1.00  0.00     0.027 A 
HETATM    5  C   UNL     1      66.625   7.837   5.163  1.00  0.00     0.023 A 
ENDROOT
BRANCH   2   6
HETATM    6  C   UNL     1      64.241   8.649   5.125  1.00  0.00     0.092 A 
HETATM    7  O   UNL     1      63.866   9.812   5.756  1.00  0.00    -0.321 OA
HETATM    8  C   UNL     1      62.867  10.376   5.035  1.00  0.00     0.142 A 
HETATM    9  C   UNL     1      62.566   9.603   3.942  1.00  0.00     0.027 A 
HETATM   10  C   UNL     1      63.438   8.491   4.004  1.00  0.00     0.040 A 
ENDBRANCH   2   6
BRANCH   3  11
HETATM   11  C   UNL     1      67.140   5.005   7.553  1.00  0.00     0.216 C 
HETATM   12  O   UNL     1      68.074   4.233   7.383  1.00  0.00    -0.643 OA
HETATM   13  O   UNL     1      66.361   4.880   8.652  1.00  0.00    -0.643 OA
ENDBRANCH   3  11
TORSDOF 2
ENDMDL
MODEL 3
REMARK VINA RESULT:      -4.4      2.623      5.403
REMARK  2 active torsions:
REMARK  status: ('A' for Active; 'I' for Inactive)
REMARK    1  A    between atoms: C_2  and  C_4 
REMARK    2  A    between atoms: C_3  and  C_7 
ROOT
HETATM    1  S   UNL     1      63.095   7.535   3.779  1.00  0.00    -0.081 SA
HETATM    2  C   UNL     1      61.870   8.622   3.278  1.00  0.00     0.039 A 
HETATM    3  C   UNL     1      63.830   8.695   4.797  1.00  0.00     0.082 A 
HETATM    4  C   UNL     1      63.125   9.883   4.788  1.00  0.00     0.027 A 
HETATM    5  C   UNL     1      61.996   9.840   3.918  1.00  0.00     0.023 A 
ENDROOT
BRANCH   2   6
HETATM    6  C   UNL     1      60.881   8.266   2.298  1.00  0.00     0.092 A 
HETATM    7  O   UNL     1      59.702   7.642   2.632  1.00  0.00    -0.321 OA
HETATM    8  C   UNL     1      58.971   7.491   1.500  1.00  0.00     0.142 A 
HETATM    9  C   UNL     1      59.650   7.996   0.419  1.00  0.00     0.027 A 
HETATM   10  C   UNL     1      60.877   8.482   0.926  1.00  0.00     0.040 A 
ENDBRANCH   2   6
BRANCH   3  11
HETATM   11  C   UNL     1      65.033   8.346   5.512  1.00  0.00     0.216 C 
HETATM   12  O   UNL     1      66.190   8.662   5.273  1.00  0.00    -0.643 OA
HETATM   13  O   UNL     1      64.761   7.569   6.587  1.00  0.00    -0.643 OA
ENDBRANCH   3  11
TORSDOF 2
ENDMDL
MODEL 4
REMARK VINA RESULT:      -4.4      2.090      2.524
REMARK  2 active torsions:
REMARK  status: ('A' for Active; 'I' for Inactive)
REMARK    1  A    between atoms: C_2  and  C_4 
REMARK    2  A    between atoms: C_3  and  C_7 
ROOT
HETATM    1  S   UNL     1      63.349   7.773   3.235  1.00  0.00    -0.081 SA
HETATM    2  C   UNL     1      63.791   8.596   4.670  1.00  0.00     0.039 A 
HETATM    3  C   UNL     1      62.114   8.896   2.867  1.00  0.00     0.082 A 
HETATM    4  C   UNL     1      62.068   9.910   3.804  1.00  0.00     0.027 A 
HETATM    5  C   UNL     1      63.036   9.740   4.837  1.00  0.00     0.023 A 
ENDROOT
BRANCH   2   6
HETATM    6  C   UNL     1      64.808   8.102   5.558  1.00  0.00     0.092 A 
HETATM    7  O   UNL     1      65.892   8.860   5.933  1.00  0.00    -0.321 OA
HETATM    8  C   UNL     1      66.631   8.132   6.807  1.00  0.00     0.142 A 
HETATM    9  C   UNL     1      66.060   6.901   7.010  1.00  0.00     0.027 A 
HETATM   10  C   UNL     1      64.899   6.875   6.202  1.00  0.00     0.040 A 
ENDBRANCH   2   6
BRANCH   3  11
HETATM   11  C   UNL     1      61.295   8.687   1.698  1.00  0.00     0.216 C 
HETATM   12  O   UNL     1      60.155   8.249   1.626  1.00  0.00    -0.643 OA
HETATM   13  O   UNL     1      61.942   9.058   0.569  1.00  0.00    -0.643 OA
ENDBRANCH   3  11
TORSDOF 2
ENDMDL
MODEL 5
REMARK VINA RESULT:      -4.2      3.739      5.087
REMARK  2 active torsions:
REMARK  status: ('A' for Active; 'I' for Inactive)
REMARK    1  A    between atoms: C_2  and  C_4 
REMARK    2  A    between atoms: C_3  and  C_7 
ROOT
HETATM    1  S   UNL     1      59.837   7.697   2.895  1.00  0.00    -0.081 SA
HETATM    2  C   UNL     1      61.157   8.721   2.518  1.00  0.00     0.039 A 
HETATM    3  C   UNL     1      59.452   7.443   1.249  1.00  0.00     0.082 A 
HETATM    4  C   UNL     1      60.344   8.096   0.422  1.00  0.00     0.027 A 
HETATM    5  C   UNL     1      61.328   8.827   1.152  1.00  0.00     0.023 A 
ENDROOT
BRANCH   2   6
HETATM    6  C   UNL     1      61.935   9.377   3.534  1.00  0.00     0.092 A 
HETATM    7  O   UNL     1      61.650  10.648   3.976  1.00  0.00    -0.321 OA
HETATM    8  C   UNL     1      62.529  10.956   4.962  1.00  0.00     0.142 A 
HETATM    9  C   UNL     1      63.397   9.914   5.174  1.00  0.00     0.027 A 
HETATM   10  C   UNL     1      63.026   8.908   4.253  1.00  0.00     0.040 A 
ENDBRANCH   2   6
BRANCH   3  11
HETATM   11  C   UNL     1      58.309   6.632   0.910  1.00  0.00     0.216 C 
HETATM   12  O   UNL     1      58.277   5.494   0.462  1.00  0.00    -0.643 OA
HETATM   13  O   UNL     1      57.149   7.284   1.158  1.00  0.00    -0.643 OA
ENDBRANCH   3  11
TORSDOF 2
ENDMDL
MODEL 6
REMARK VINA RESULT:      -4.1      3.063      6.081
REMARK  2 active torsions:
REMARK  status: ('A' for Active; 'I' for Inactive)
REMARK    1  A    between atoms: C_2  and  C_4 
REMARK    2  A    between atoms: C_3  and  C_7 
ROOT
HETATM    1  S   UNL     1      65.168   6.161   4.698  1.00  0.00    -0.081 SA
HETATM    2  C   UNL     1      65.400   7.823   5.042  1.00  0.00     0.039 A 
HETATM    3  C   UNL     1      66.826   5.798   4.903  1.00  0.00     0.082 A 
HETATM    4  C   UNL     1      67.540   6.921   5.271  1.00  0.00     0.027 A 
HETATM    5  C   UNL     1      66.719   8.085   5.356  1.00  0.00     0.023 A 
ENDROOT
BRANCH   2   6
HETATM    6  C   UNL     1      64.328   8.779   4.974  1.00  0.00     0.092 A 
HETATM    7  O   UNL     1      64.325   9.938   5.714  1.00  0.00    -0.321 OA
HETATM    8  C   UNL     1      63.212  10.640   5.389  1.00  0.00     0.142 A 
HETATM    9  C   UNL     1      62.471   9.962   4.454  1.00  0.00     0.027 A 
HETATM   10  C   UNL     1      63.178   8.765   4.196  1.00  0.00     0.040 A 
ENDBRANCH   2   6
BRANCH   3  11
HETATM   11  C   UNL     1      67.285   4.449   4.681  1.00  0.00     0.216 C 
HETATM   12  O   UNL     1      67.463   3.553   5.494  1.00  0.00    -0.643 OA
HETATM   13  O   UNL     1      67.519   4.216   3.368  1.00  0.00    -0.643 OA
ENDBRANCH   3  11
TORSDOF 2
ENDMDL
MODEL 7
REMARK VINA RESULT:      -4.1      2.535      5.780
REMARK  2 active torsions:
REMARK  status: ('A' for Active; 'I' for Inactive)
REMARK    1  A    between atoms: C_2  and  C_4 
REMARK    2  A    between atoms: C_3  and  C_7 
ROOT
HETATM    1  S   UNL     1      63.870   6.648   6.465  1.00  0.00    -0.081 SA
HETATM    2  C   UNL     1      63.976   7.818   5.220  1.00  0.00     0.039 A 
HETATM    3  C   UNL     1      65.498   6.874   6.936  1.00  0.00     0.082 A 
HETATM    4  C   UNL     1      66.102   7.860   6.180  1.00  0.00     0.027 A 
HETATM    5  C   UNL     1      65.225   8.406   5.197  1.00  0.00     0.023 A 
ENDROOT
BRANCH   2   6
HETATM    6  C   UNL     1      62.881   8.094   4.329  1.00  0.00     0.092 A 
HETATM    7  O   UNL     1      61.642   7.517   4.482  1.00  0.00    -0.321 OA
HETATM    8  C   UNL     1      60.826   8.016   3.522  1.00  0.00     0.142 A 
HETATM    9  C   UNL     1      61.505   8.907   2.729  1.00  0.00     0.027 A 
HETATM   10  C   UNL     1      62.824   8.949   3.237  1.00  0.00     0.040 A 
ENDBRANCH   2   6
BRANCH   3  11
HETATM   11  C   UNL     1      66.045   6.065   7.997  1.00  0.00     0.216 C 
HETATM   12  O   UNL     1      65.844   4.885   8.248  1.00  0.00    -0.643 OA
HETATM   13  O   UNL     1      66.895   6.777   8.773  1.00  0.00    -0.643 OA
ENDBRANCH   3  11
TORSDOF 2
ENDMDL
MODEL 8
REMARK VINA RESULT:      -4.1      2.575      3.715
REMARK  2 active torsions:
REMARK  status: ('A' for Active; 'I' for Inactive)
REMARK    1  A    between atoms: C_2  and  C_4 
REMARK    2  A    between atoms: C_3  and  C_7 
ROOT
HETATM    1  S   UNL     1      64.042   6.461   6.321  1.00  0.00    -0.081 SA
HETATM    2  C   UNL     1      65.627   7.063   6.566  1.00  0.00     0.039 A 
HETATM    3  C   UNL     1      63.624   7.743   5.270  1.00  0.00     0.082 A 
HETATM    4  C   UNL     1      64.693   8.596   5.075  1.00  0.00     0.027 A 
HETATM    5  C   UNL     1      65.846   8.201   5.816  1.00  0.00     0.023 A 
ENDROOT
BRANCH   2   6
HETATM    6  C   UNL     1      66.556   6.435   7.466  1.00  0.00     0.092 A 
HETATM    7  O   UNL     1      67.253   5.297   7.131  1.00  0.00    -0.321 OA
HETATM    8  C   UNL     1      68.075   4.990   8.164  1.00  0.00     0.142 A 
HETATM    9  C   UNL     1      67.929   5.899   9.182  1.00  0.00     0.027 A 
HETATM   10  C   UNL     1      66.949   6.818   8.741  1.00  0.00     0.040 A 
ENDBRANCH   2   6
BRANCH   3  11
HETATM   11  C   UNL     1      62.287   7.808   4.733  1.00  0.00     0.216 C 
HETATM   12  O   UNL     1      61.806   8.627   3.963  1.00  0.00    -0.643 OA
HETATM   13  O   UNL     1      61.525   6.782   5.179  1.00  0.00    -0.643 OA
ENDBRANCH   3  11
TORSDOF 2
ENDMDL
MODEL 9
REMARK VINA RESULT:      -4.1      3.398      4.431
REMARK  2 active torsions:
REMARK  status: ('A' for Active; 'I' for Inactive)
REMARK    1  A    between atoms: C_2  and  C_4 
REMARK    2  A    between atoms: C_3  and  C_7 
ROOT
HETATM    1  S   UNL     1      64.128   6.853   6.378  1.00  0.00    -0.081 SA
HETATM    2  C   UNL     1      62.574   7.206   5.750  1.00  0.00     0.039 A 
HETATM    3  C   UNL     1      64.866   8.122   5.503  1.00  0.00     0.082 A 
HETATM    4  C   UNL     1      63.932   8.833   4.774  1.00  0.00     0.027 A 
HETATM    5  C   UNL     1      62.614   8.309   4.921  1.00  0.00     0.023 A 
ENDROOT
BRANCH   2   6
HETATM    6  C   UNL     1      61.420   6.408   6.063  1.00  0.00     0.092 A 
HETATM    7  O   UNL     1      60.879   6.357   7.326  1.00  0.00    -0.321 OA
HETATM    8  C   UNL     1      59.780   5.564   7.280  1.00  0.00     0.142 A 
HETATM    9  C   UNL     1      59.588   5.081   6.009  1.00  0.00     0.027 A 
HETATM   10  C   UNL     1      60.644   5.611   5.232  1.00  0.00     0.040 A 
ENDBRANCH   2   6
BRANCH   3  11
HETATM   11  C   UNL     1      66.293   8.310   5.599  1.00  0.00     0.216 C 
HETATM   12  O   UNL     1      67.156   8.098   4.759  1.00  0.00    -0.643 OA
HETATM   13  O   UNL     1      66.645   8.801   6.810  1.00  0.00    -0.643 OA
ENDBRANCH   3  11
TORSDOF 2
ENDMDL
