MODEL 1
REMARK VINA RESULT:      -6.1      0.000      0.000
REMARK  4 active torsions:
REMARK  status: ('A' for Active; 'I' for Inactive)
REMARK    1  A    between atoms: N_1  and  C_4 
REMARK    2  A    between atoms: C_3  and  C_4 
REMARK    3  A    between atoms: C_5  and  C_12 
REMARK    4  A    between atoms: O_11  and  C_12 
ROOT
HETATM    1  C   UNL     1      63.385   8.026   5.389  1.00  0.00     0.274 C 
ENDROOT
BRANCH   1   2
HETATM    2  N   UNL     1      64.791   8.207   5.839  1.00  0.00    -0.064 N 
HETATM    3  C   UNL     1      65.082   7.259   6.940  1.00  0.00     0.263 C 
HETATM    4  C   UNL     1      66.565   7.264   7.384  1.00  0.00     0.262 C 
HETATM    5  N   UNL     1      67.543   7.063   6.297  1.00  0.00    -0.072 N 
HETATM    6  C   UNL     1      67.230   8.009   5.209  1.00  0.00     0.262 C 
HETATM    7  C   UNL     1      67.554   5.684   5.816  1.00  0.00     0.269 C 
HETATM    8  H   UNL     1      68.482   7.245   6.654  1.00  0.00     0.279 HD
HETATM    9  C   UNL     1      65.755   7.993   4.737  1.00  0.00     0.263 C 
HETATM   10  H   UNL     1      64.894   9.170   6.161  1.00  0.00     0.280 HD
ENDBRANCH   1   2
BRANCH   1  11
HETATM   11  C   UNL     1      62.875   9.049   4.377  1.00  0.00    -0.024 A 
HETATM   12  C   UNL     1      62.630  10.401   4.722  1.00  0.00    -0.027 A 
HETATM   13  C   UNL     1      62.097  11.270   3.750  1.00  0.00     0.010 A 
HETATM   14  C   UNL     1      61.854  10.836   2.445  1.00  0.00     0.001 A 
HETATM   15  C   UNL     1      62.169   9.533   2.085  1.00  0.00     0.001 A 
HETATM   16  C   UNL     1      62.687   8.658   3.036  1.00  0.00     0.009 A 
BRANCH  12  17
HETATM   17  C   UNL     1      62.980  10.989   6.068  1.00  0.00     0.203 C 
BRANCH  17  18
HETATM   18  O   UNL     1      64.361  11.306   6.158  1.00  0.00    -0.396 OA
HETATM   19  H   UNL     1      64.484  12.034   6.788  1.00  0.00     0.209 HD
ENDBRANCH  17  18
ENDBRANCH  12  17
ENDBRANCH   1  11
TORSDOF 4
ENDMDL
MODEL 2
REMARK VINA RESULT:      -5.7      1.041      1.456
REMARK  4 active torsions:
REMARK  status: ('A' for Active; 'I' for Inactive)
REMARK    1  A    between atoms: N_1  and  C_4 
REMARK    2  A    between atoms: C_3  and  C_4 
REMARK    3  A    between atoms: C_5  and  C_12 
REMARK    4  A    between atoms: O_11  and  C_12 
ROOT
HETATM    1  C   UNL     1      62.998   8.240   5.096  1.00  0.00     0.274 C 
ENDROOT
BRANCH   1   2
HETATM    2  N   UNL     1      64.226   7.491   4.718  1.00  0.00    -0.064 N 
HETATM    3  C   UNL     1      65.420   8.246   5.167  1.00  0.00     0.263 C 
HETATM    4  C   UNL     1      66.751   7.483   4.954  1.00  0.00     0.262 C 
HETATM    5  N   UNL     1      66.789   6.123   5.527  1.00  0.00    -0.072 N 
HETATM    6  C   UNL     1      65.589   5.393   5.076  1.00  0.00     0.262 C 
HETATM    7  C   UNL     1      66.882   6.145   6.985  1.00  0.00     0.269 C 
HETATM    8  H   UNL     1      67.629   5.645   5.198  1.00  0.00     0.279 HD
HETATM    9  C   UNL     1      64.250   6.135   5.311  1.00  0.00     0.263 C 
HETATM   10  H   UNL     1      64.230   7.388   3.703  1.00  0.00     0.280 HD
ENDBRANCH   1   2
BRANCH   1  11
HETATM   11  C   UNL     1      62.585   9.361   4.145  1.00  0.00    -0.024 A 
HETATM   12  C   UNL     1      62.444  10.705   4.571  1.00  0.00    -0.027 A 
HETATM   13  C   UNL     1      61.996  11.672   3.649  1.00  0.00     0.010 A 
HETATM   14  C   UNL     1      61.739  11.340   2.317  1.00  0.00     0.001 A 
HETATM   15  C   UNL     1      61.954  10.040   1.880  1.00  0.00     0.001 A 
HETATM   16  C   UNL     1      62.386   9.069   2.779  1.00  0.00     0.009 A 
BRANCH  12  17
HETATM   17  C   UNL     1      62.820  11.179   5.954  1.00  0.00     0.203 C 
BRANCH  17  18
HETATM   18  O   UNL     1      64.211  11.448   6.055  1.00  0.00    -0.396 OA
HETATM   19  H   UNL     1      64.379  12.373   5.813  1.00  0.00     0.209 HD
ENDBRANCH  17  18
ENDBRANCH  12  17
ENDBRANCH   1  11
TORSDOF 4
ENDMDL
MODEL 3
REMARK VINA RESULT:      -5.3      1.727      2.428
REMARK  4 active torsions:
REMARK  status: ('A' for Active; 'I' for Inactive)
REMARK    1  A    between atoms: N_1  and  C_4 
REMARK    2  A    between atoms: C_3  and  C_4 
REMARK    3  A    between atoms: C_5  and  C_12 
REMARK    4  A    between atoms: O_11  and  C_12 
ROOT
HETATM    1  C   UNL     1      63.517   7.669   5.480  1.00  0.00     0.274 C 
ENDROOT
BRANCH   1   2
HETATM    2  N   UNL     1      64.865   7.896   6.065  1.00  0.00    -0.064 N 
HETATM    3  C   UNL     1      65.129   6.874   7.105  1.00  0.00     0.263 C 
HETATM    4  C   UNL     1      66.567   6.931   7.677  1.00  0.00     0.262 C 
HETATM    5  N   UNL     1      67.643   6.889   6.667  1.00  0.00    -0.072 N 
HETATM    6  C   UNL     1      67.356   7.906   5.638  1.00  0.00     0.262 C 
HETATM    7  C   UNL     1      67.788   5.560   6.076  1.00  0.00     0.269 C 
HETATM    8  H   UNL     1      68.534   7.096   7.119  1.00  0.00     0.279 HD
HETATM    9  C   UNL     1      65.930   7.840   5.038  1.00  0.00     0.263 C 
HETATM   10  H   UNL     1      64.875   8.831   6.473  1.00  0.00     0.280 HD
ENDBRANCH   1   2
BRANCH   1  11
HETATM   11  C   UNL     1      62.949   8.821   4.654  1.00  0.00    -0.024 A 
HETATM   12  C   UNL     1      62.511   8.653   3.317  1.00  0.00    -0.027 A 
HETATM   13  C   UNL     1      62.060   9.777   2.598  1.00  0.00     0.010 A 
HETATM   14  C   UNL     1      61.991  11.039   3.193  1.00  0.00     0.001 A 
HETATM   15  C   UNL     1      62.343  11.188   4.528  1.00  0.00     0.001 A 
HETATM   16  C   UNL     1      62.801  10.090   5.250  1.00  0.00     0.009 A 
BRANCH  12  17
HETATM   17  C   UNL     1      62.431   7.309   2.634  1.00  0.00     0.203 C 
BRANCH  17  18
HETATM   18  O   UNL     1      62.649   7.419   1.235  1.00  0.00    -0.396 OA
HETATM   19  H   UNL     1      63.313   8.106   1.064  1.00  0.00     0.209 HD
ENDBRANCH  17  18
ENDBRANCH  12  17
ENDBRANCH   1  11
TORSDOF 4
ENDMDL
MODEL 4
REMARK VINA RESULT:      -5.0      2.917      3.811
REMARK  4 active torsions:
REMARK  status: ('A' for Active; 'I' for Inactive)
REMARK    1  A    between atoms: N_1  and  C_4 
REMARK    2  A    between atoms: C_3  and  C_4 
REMARK    3  A    between atoms: C_5  and  C_12 
REMARK    4  A    between atoms: O_11  and  C_12 
ROOT
HETATM    1  C   UNL     1      63.006   7.789   4.324  1.00  0.00     0.274 C 
ENDROOT
BRANCH   1   2
HETATM    2  N   UNL     1      61.892   6.942   4.827  1.00  0.00    -0.064 N 
HETATM    3  C   UNL     1      61.975   5.600   4.206  1.00  0.00     0.263 C 
HETATM    4  C   UNL     1      60.946   4.590   4.773  1.00  0.00     0.262 C 
HETATM    5  N   UNL     1      60.956   4.448   6.242  1.00  0.00    -0.072 N 
HETATM    6  C   UNL     1      60.882   5.795   6.841  1.00  0.00     0.262 C 
HETATM    7  C   UNL     1      62.130   3.720   6.715  1.00  0.00     0.269 C 
HETATM    8  H   UNL     1      60.146   3.897   6.530  1.00  0.00     0.279 HD
HETATM    9  C   UNL     1      61.925   6.805   6.301  1.00  0.00     0.263 C 
HETATM   10  H   UNL     1      61.015   7.398   4.577  1.00  0.00     0.280 HD
ENDBRANCH   1   2
BRANCH   1  11
HETATM   11  C   UNL     1      62.592   9.051   3.572  1.00  0.00    -0.024 A 
HETATM   12  C   UNL     1      62.439  10.304   4.216  1.00  0.00    -0.027 A 
HETATM   13  C   UNL     1      61.990  11.409   3.467  1.00  0.00     0.010 A 
HETATM   14  C   UNL     1      61.742  11.304   2.097  1.00  0.00     0.001 A 
HETATM   15  C   UNL     1      61.969  10.097   1.449  1.00  0.00     0.001 A 
HETATM   16  C   UNL     1      62.402   8.992   2.176  1.00  0.00     0.009 A 
BRANCH  12  17
HETATM   17  C   UNL     1      62.804  10.542   5.662  1.00  0.00     0.203 C 
BRANCH  17  18
HETATM   18  O   UNL     1      64.132  11.028   5.793  1.00  0.00    -0.396 OA
HETATM   19  H   UNL     1      64.407  11.447   4.962  1.00  0.00     0.209 HD
ENDBRANCH  17  18
ENDBRANCH  12  17
ENDBRANCH   1  11
TORSDOF 4
ENDMDL
MODEL 5
REMARK VINA RESULT:      -4.2      4.480      5.973
REMARK  4 active torsions:
REMARK  status: ('A' for Active; 'I' for Inactive)
REMARK    1  A    between atoms: N_1  and  C_4 
REMARK    2  A    between atoms: C_3  and  C_4 
REMARK    3  A    between atoms: C_5  and  C_12 
REMARK    4  A    between atoms: O_11  and  C_12 
ROOT
HETATM    1  C   UNL     1      60.710   5.885   4.963  1.00  0.00     0.274 C 
ENDROOT
BRANCH   1   2
HETATM    2  N   UNL     1      59.731   6.202   6.037  1.00  0.00    -0.064 N 
HETATM    3  C   UNL     1      58.390   5.713   5.641  1.00  0.00     0.263 C 
HETATM    4  C   UNL     1      57.323   5.862   6.754  1.00  0.00     0.262 C 
HETATM    5  N   UNL     1      57.693   5.271   8.055  1.00  0.00    -0.072 N 
HETATM    6  C   UNL     1      59.033   5.763   8.426  1.00  0.00     0.262 C 
HETATM    7  C   UNL     1      57.651   3.811   8.027  1.00  0.00     0.269 C 
HETATM    8  H   UNL     1      57.012   5.560   8.759  1.00  0.00     0.279 HD
HETATM    9  C   UNL     1      60.115   5.593   7.331  1.00  0.00     0.263 C 
HETATM   10  H   UNL     1      59.720   7.214   6.160  1.00  0.00     0.280 HD
ENDBRANCH   1   2
BRANCH   1  11
HETATM   11  C   UNL     1      61.290   7.085   4.218  1.00  0.00    -0.024 A 
HETATM   12  C   UNL     1      62.378   7.839   4.723  1.00  0.00    -0.027 A 
HETATM   13  C   UNL     1      62.815   8.973   4.010  1.00  0.00     0.010 A 
HETATM   14  C   UNL     1      62.230   9.335   2.795  1.00  0.00     0.001 A 
HETATM   15  C   UNL     1      61.217   8.551   2.260  1.00  0.00     0.001 A 
HETATM   16  C   UNL     1      60.765   7.433   2.956  1.00  0.00     0.009 A 
BRANCH  12  17
HETATM   17  C   UNL     1      63.152   7.449   5.959  1.00  0.00     0.203 C 
BRANCH  17  18
HETATM   18  O   UNL     1      62.592   8.023   7.131  1.00  0.00    -0.396 OA
HETATM   19  H   UNL     1      62.980   7.601   7.914  1.00  0.00     0.209 HD
ENDBRANCH  17  18
ENDBRANCH  12  17
ENDBRANCH   1  11
TORSDOF 4
ENDMDL
MODEL 6
REMARK VINA RESULT:      -4.1      4.824      5.663
REMARK  4 active torsions:
REMARK  status: ('A' for Active; 'I' for Inactive)
REMARK    1  A    between atoms: N_1  and  C_4 
REMARK    2  A    between atoms: C_3  and  C_4 
REMARK    3  A    between atoms: C_5  and  C_12 
REMARK    4  A    between atoms: O_11  and  C_12 
ROOT
HETATM    1  C   UNL     1      60.398   5.774   5.443  1.00  0.00     0.274 C 
ENDROOT
BRANCH   1   2
HETATM    2  N   UNL     1      61.256   6.914   5.026  1.00  0.00    -0.064 N 
HETATM    3  C   UNL     1      62.416   7.018   5.941  1.00  0.00     0.263 C 
HETATM    4  C   UNL     1      63.453   8.084   5.508  1.00  0.00     0.262 C 
HETATM    5  N   UNL     1      63.937   7.957   4.120  1.00  0.00    -0.072 N 
HETATM    6  C   UNL     1      62.768   7.845   3.227  1.00  0.00     0.262 C 
HETATM    7  C   UNL     1      64.840   6.820   3.956  1.00  0.00     0.269 C 
HETATM    8  H   UNL     1      64.480   8.786   3.877  1.00  0.00     0.279 HD
HETATM    9  C   UNL     1      61.738   6.762   3.634  1.00  0.00     0.263 C 
HETATM   10  H   UNL     1      60.691   7.763   5.069  1.00  0.00     0.280 HD
ENDBRANCH   1   2
BRANCH   1  11
HETATM   11  C   UNL     1      58.967   6.130   5.839  1.00  0.00    -0.024 A 
HETATM   12  C   UNL     1      58.505   6.045   7.175  1.00  0.00    -0.027 A 
HETATM   13  C   UNL     1      57.152   6.327   7.452  1.00  0.00     0.010 A 
HETATM   14  C   UNL     1      56.276   6.736   6.445  1.00  0.00     0.001 A 
HETATM   15  C   UNL     1      56.748   6.898   5.149  1.00  0.00     0.001 A 
HETATM   16  C   UNL     1      58.078   6.613   4.855  1.00  0.00     0.009 A 
BRANCH  12  17
HETATM   17  C   UNL     1      59.407   5.735   8.345  1.00  0.00     0.203 C 
BRANCH  17  18
HETATM   18  O   UNL     1      58.700   5.770   9.576  1.00  0.00    -0.396 OA
HETATM   19  H   UNL     1      57.974   5.126   9.550  1.00  0.00     0.209 HD
ENDBRANCH  17  18
ENDBRANCH  12  17
ENDBRANCH   1  11
TORSDOF 4
ENDMDL
MODEL 7
REMARK VINA RESULT:      -4.0      4.363      6.154
REMARK  4 active torsions:
REMARK  status: ('A' for Active; 'I' for Inactive)
REMARK    1  A    between atoms: N_1  and  C_4 
REMARK    2  A    between atoms: C_3  and  C_4 
REMARK    3  A    between atoms: C_5  and  C_12 
REMARK    4  A    between atoms: O_11  and  C_12 
ROOT
HETATM    1  C   UNL     1      61.066   5.995   5.140  1.00  0.00     0.274 C 
ENDROOT
BRANCH   1   2
HETATM    2  N   UNL     1      60.091   6.252   6.233  1.00  0.00    -0.064 N 
HETATM    3  C   UNL     1      58.713   6.134   5.702  1.00  0.00     0.263 C 
HETATM    4  C   UNL     1      57.618   6.238   6.792  1.00  0.00     0.262 C 
HETATM    5  N   UNL     1      57.781   5.314   7.931  1.00  0.00    -0.072 N 
HETATM    6  C   UNL     1      59.161   5.440   8.439  1.00  0.00     0.262 C 
HETATM    7  C   UNL     1      57.473   3.933   7.566  1.00  0.00     0.269 C 
HETATM    8  H   UNL     1      57.118   5.567   8.665  1.00  0.00     0.279 HD
HETATM    9  C   UNL     1      60.265   5.309   7.362  1.00  0.00     0.263 C 
HETATM   10  H   UNL     1      60.257   7.194   6.586  1.00  0.00     0.280 HD
ENDBRANCH   1   2
BRANCH   1  11
HETATM   11  C   UNL     1      62.272   6.930   5.095  1.00  0.00    -0.024 A 
HETATM   12  C   UNL     1      62.295   8.102   4.299  1.00  0.00    -0.027 A 
HETATM   13  C   UNL     1      63.470   8.879   4.258  1.00  0.00     0.010 A 
HETATM   14  C   UNL     1      64.588   8.543   5.024  1.00  0.00     0.001 A 
HETATM   15  C   UNL     1      64.538   7.440   5.865  1.00  0.00     0.001 A 
HETATM   16  C   UNL     1      63.390   6.655   5.910  1.00  0.00     0.009 A 
BRANCH  12  17
HETATM   17  C   UNL     1      61.094   8.611   3.540  1.00  0.00     0.203 C 
BRANCH  17  18
HETATM   18  O   UNL     1      60.973  10.023   3.636  1.00  0.00    -0.396 OA
HETATM   19  H   UNL     1      61.599  10.356   4.299  1.00  0.00     0.209 HD
ENDBRANCH  17  18
ENDBRANCH  12  17
ENDBRANCH   1  11
TORSDOF 4
ENDMDL
MODEL 8
REMARK VINA RESULT:      -4.0     12.450     14.330
REMARK  4 active torsions:
REMARK  status: ('A' for Active; 'I' for Inactive)
REMARK    1  A    between atoms: N_1  and  C_4 
REMARK    2  A    between atoms: C_3  and  C_4 
REMARK    3  A    between atoms: C_5  and  C_12 
REMARK    4  A    between atoms: O_11  and  C_12 
ROOT
HETATM    1  C   UNL     1      55.560   2.596  12.026  1.00  0.00     0.274 C 
ENDROOT
BRANCH   1   2
HETATM    2  N   UNL     1      54.504   2.698  13.068  1.00  0.00    -0.064 N 
HETATM    3  C   UNL     1      53.838   4.018  12.966  1.00  0.00     0.263 C 
HETATM    4  C   UNL     1      52.621   4.172  13.912  1.00  0.00     0.262 C 
HETATM    5  N   UNL     1      51.607   3.105  13.803  1.00  0.00    -0.072 N 
HETATM    6  C   UNL     1      52.291   1.801  13.897  1.00  0.00     0.262 C 
HETATM    7  C   UNL     1      50.830   3.210  12.570  1.00  0.00     0.269 C 
HETATM    8  H   UNL     1      50.938   3.200  14.568  1.00  0.00     0.279 HD
HETATM    9  C   UNL     1      53.492   1.625  12.935  1.00  0.00     0.263 C 
HETATM   10  H   UNL     1      54.952   2.594  13.979  1.00  0.00     0.280 HD
ENDBRANCH   1   2
BRANCH   1  11
HETATM   11  C   UNL     1      56.961   2.259  12.533  1.00  0.00    -0.024 A 
HETATM   12  C   UNL     1      58.119   2.437  11.737  1.00  0.00    -0.027 A 
HETATM   13  C   UNL     1      59.370   2.042  12.250  1.00  0.00     0.010 A 
HETATM   14  C   UNL     1      59.494   1.526  13.542  1.00  0.00     0.001 A 
HETATM   15  C   UNL     1      58.370   1.426  14.351  1.00  0.00     0.001 A 
HETATM   16  C   UNL     1      57.125   1.802  13.857  1.00  0.00     0.009 A 
BRANCH  12  17
HETATM   17  C   UNL     1      58.099   3.102  10.382  1.00  0.00     0.203 C 
BRANCH  17  18
HETATM   18  O   UNL     1      58.616   4.423  10.438  1.00  0.00    -0.396 OA
HETATM   19  H   UNL     1      59.155   4.594   9.649  1.00  0.00     0.209 HD
ENDBRANCH  17  18
ENDBRANCH  12  17
ENDBRANCH   1  11
TORSDOF 4
ENDMDL
MODEL 9
REMARK VINA RESULT:      -4.0      2.384      5.922
REMARK  4 active torsions:
REMARK  status: ('A' for Active; 'I' for Inactive)
REMARK    1  A    between atoms: N_1  and  C_4 
REMARK    2  A    between atoms: C_3  and  C_4 
REMARK    3  A    between atoms: C_5  and  C_12 
REMARK    4  A    between atoms: O_11  and  C_12 
ROOT
HETATM    1  C   UNL     1      64.185   6.395   4.037  1.00  0.00     0.274 C 
ENDROOT
BRANCH   1   2
HETATM    2  N   UNL     1      62.966   7.237   4.168  1.00  0.00    -0.064 N 
HETATM    3  C   UNL     1      63.240   8.587   3.623  1.00  0.00     0.263 C 
HETATM    4  C   UNL     1      61.989   9.501   3.577  1.00  0.00     0.262 C 
HETATM    5  N   UNL     1      60.820   8.924   2.886  1.00  0.00    -0.072 N 
HETATM    6  C   UNL     1      60.571   7.578   3.436  1.00  0.00     0.262 C 
HETATM    7  C   UNL     1      61.005   8.881   1.437  1.00  0.00     0.269 C 
HETATM    8  H   UNL     1      60.007   9.520   3.050  1.00  0.00     0.279 HD
HETATM    9  C   UNL     1      61.808   6.646   3.460  1.00  0.00     0.263 C 
HETATM   10  H   UNL     1      62.730   7.293   5.159  1.00  0.00     0.280 HD
ENDBRANCH   1   2
BRANCH   1  11
HETATM   11  C   UNL     1      64.810   5.923   5.348  1.00  0.00    -0.024 A 
HETATM   12  C   UNL     1      65.867   6.622   5.980  1.00  0.00    -0.027 A 
HETATM   13  C   UNL     1      66.436   6.088   7.153  1.00  0.00     0.010 A 
HETATM   14  C   UNL     1      65.944   4.914   7.728  1.00  0.00     0.001 A 
HETATM   15  C   UNL     1      64.856   4.273   7.154  1.00  0.00     0.001 A 
HETATM   16  C   UNL     1      64.288   4.780   5.988  1.00  0.00     0.009 A 
BRANCH  12  17
HETATM   17  C   UNL     1      66.378   7.960   5.503  1.00  0.00     0.203 C 
BRANCH  17  18
HETATM   18  O   UNL     1      65.812   9.031   6.244  1.00  0.00    -0.396 OA
HETATM   19  H   UNL     1      65.400   9.664   5.634  1.00  0.00     0.209 HD
ENDBRANCH  17  18
ENDBRANCH  12  17
ENDBRANCH   1  11
TORSDOF 4
ENDMDL
