MODEL 1
REMARK VINA RESULT:      -4.5      0.000      0.000
REMARK  3 active torsions:
REMARK  status: ('A' for Active; 'I' for Inactive)
REMARK    1  A    between atoms: C_3  and  C_7 
REMARK    2  A    between atoms: C_6  and  C_12 
REMARK    3  A    between atoms: C_12  and  N_14 
ROOT
HETATM    1  N   UNL     1      64.091   9.594   5.531  1.00  0.00    -0.297 N 
ATOM      2  HN  UNL     1      64.465  10.086   6.343  1.00  0.00     0.187 HD
HETATM    3  C   UNL     1      64.511   8.437   5.010  1.00  0.00     0.067 A 
HETATM    4  N   UNL     1      63.062   9.964   4.742  1.00  0.00    -0.299 N 
HETATM    5  C   UNL     1      63.721   8.055   3.903  1.00  0.00     0.060 A 
HETATM    6  C   UNL     1      62.766   9.045   3.767  1.00  0.00     0.055 A 
HETATM    7  C   UNL     1      62.447  11.248   4.984  1.00  0.00     0.177 C 
ENDROOT
BRANCH   3   8
HETATM    8  C   UNL     1      65.687   7.692   5.568  1.00  0.00     0.033 A 
HETATM    9  S   UNL     1      65.644   6.733   6.983  1.00  0.00    -0.100 SA
HETATM   10  C   UNL     1      67.286   6.285   6.808  1.00  0.00     0.050 A 
HETATM   11  C   UNL     1      67.869   6.880   5.711  1.00  0.00     0.008 A 
HETATM   12  C   UNL     1      66.942   7.692   4.992  1.00  0.00     0.021 A 
ENDBRANCH   3   8
BRANCH   6  13
HETATM   13  C   UNL     1      61.659   9.175   2.792  1.00  0.00     0.288 C 
BRANCH  13  14
HETATM   14  N   UNL     1      60.429   8.655   3.369  1.00  0.00    -0.074 N 
HETATM   15  H   UNL     1      59.740   9.404   3.431  1.00  0.00     0.274 HD
HETATM   16  H   UNL     1      60.619   8.290   4.303  1.00  0.00     0.274 HD
HETATM   17  H   UNL     1      60.067   7.906   2.778  1.00  0.00     0.274 HD
ENDBRANCH  13  14
ENDBRANCH   6  13
TORSDOF 3
ENDMDL
MODEL 2
REMARK VINA RESULT:      -4.4      2.630      5.307
REMARK  3 active torsions:
REMARK  status: ('A' for Active; 'I' for Inactive)
REMARK    1  A    between atoms: C_3  and  C_7 
REMARK    2  A    between atoms: C_6  and  C_12 
REMARK    3  A    between atoms: C_12  and  N_14 
ROOT
HETATM    1  N   UNL     1      64.670   7.753   6.501  1.00  0.00    -0.297 N 
ATOM      2  HN  UNL     1      64.124   8.140   7.271  1.00  0.00     0.187 HD
HETATM    3  C   UNL     1      64.592   8.063   5.204  1.00  0.00     0.067 A 
HETATM    4  N   UNL     1      65.634   6.811   6.564  1.00  0.00    -0.299 N 
HETATM    5  C   UNL     1      65.535   7.336   4.444  1.00  0.00     0.060 A 
HETATM    6  C   UNL     1      66.223   6.553   5.353  1.00  0.00     0.055 A 
HETATM    7  C   UNL     1      65.891   6.185   7.840  1.00  0.00     0.177 C 
ENDROOT
BRANCH   3   8
HETATM    8  C   UNL     1      63.597   9.055   4.681  1.00  0.00     0.033 A 
HETATM    9  S   UNL     1      62.649   8.828   3.276  1.00  0.00    -0.100 SA
HETATM   10  C   UNL     1      61.852  10.326   3.492  1.00  0.00     0.050 A 
HETATM   11  C   UNL     1      62.320  11.005   4.595  1.00  0.00     0.008 A 
HETATM   12  C   UNL     1      63.328  10.267   5.284  1.00  0.00     0.021 A 
ENDBRANCH   3   8
BRANCH   6  13
HETATM   13  C   UNL     1      67.335   5.600   5.140  1.00  0.00     0.288 C 
BRANCH  13  14
HETATM   14  N   UNL     1      67.426   5.252   3.730  1.00  0.00    -0.074 N 
HETATM   15  H   UNL     1      67.508   6.104   3.175  1.00  0.00     0.274 HD
HETATM   16  H   UNL     1      66.586   4.745   3.450  1.00  0.00     0.274 HD
HETATM   17  H   UNL     1      68.245   4.665   3.577  1.00  0.00     0.274 HD
ENDBRANCH  13  14
ENDBRANCH   6  13
TORSDOF 3
ENDMDL
MODEL 3
REMARK VINA RESULT:      -4.4      2.601      5.553
REMARK  3 active torsions:
REMARK  status: ('A' for Active; 'I' for Inactive)
REMARK    1  A    between atoms: C_3  and  C_7 
REMARK    2  A    between atoms: C_6  and  C_12 
REMARK    3  A    between atoms: C_12  and  N_14 
ROOT
HETATM    1  N   UNL     1      63.780   6.965   5.849  1.00  0.00    -0.297 N 
ATOM      2  HN  UNL     1      62.813   6.643   5.820  1.00  0.00     0.187 HD
HETATM    3  C   UNL     1      64.268   8.132   5.417  1.00  0.00     0.067 A 
HETATM    4  N   UNL     1      64.855   6.309   6.333  1.00  0.00    -0.299 N 
HETATM    5  C   UNL     1      65.657   8.229   5.659  1.00  0.00     0.060 A 
HETATM    6  C   UNL     1      66.010   7.047   6.283  1.00  0.00     0.055 A 
HETATM    7  C   UNL     1      64.675   4.951   6.787  1.00  0.00     0.177 C 
ENDROOT
BRANCH   3   8
HETATM    8  C   UNL     1      63.402   9.162   4.756  1.00  0.00     0.033 A 
HETATM    9  S   UNL     1      62.619   8.947   3.251  1.00  0.00    -0.100 SA
HETATM   10  C   UNL     1      61.888  10.492   3.337  1.00  0.00     0.050 A 
HETATM   11  C   UNL     1      62.258  11.175   4.473  1.00  0.00     0.008 A 
HETATM   12  C   UNL     1      63.132  10.403   5.296  1.00  0.00     0.021 A 
ENDBRANCH   3   8
BRANCH   6  13
HETATM   13  C   UNL     1      67.326   6.591   6.785  1.00  0.00     0.288 C 
BRANCH  13  14
HETATM   14  N   UNL     1      67.473   6.953   8.187  1.00  0.00    -0.074 N 
HETATM   15  H   UNL     1      68.064   7.780   8.264  1.00  0.00     0.274 HD
HETATM   16  H   UNL     1      67.903   6.179   8.695  1.00  0.00     0.274 HD
HETATM   17  H   UNL     1      66.555   7.152   8.584  1.00  0.00     0.274 HD
ENDBRANCH  13  14
ENDBRANCH   6  13
TORSDOF 3
ENDMDL
MODEL 4
REMARK VINA RESULT:      -4.2      2.726      5.264
REMARK  3 active torsions:
REMARK  status: ('A' for Active; 'I' for Inactive)
REMARK    1  A    between atoms: C_3  and  C_7 
REMARK    2  A    between atoms: C_6  and  C_12 
REMARK    3  A    between atoms: C_12  and  N_14 
ROOT
HETATM    1  N   UNL     1      65.258   8.242   6.232  1.00  0.00    -0.297 N 
ATOM      2  HN  UNL     1      65.544   9.185   6.495  1.00  0.00     0.187 HD
HETATM    3  C   UNL     1      64.294   7.887   5.377  1.00  0.00     0.067 A 
HETATM    4  N   UNL     1      65.768   7.071   6.668  1.00  0.00    -0.299 N 
HETATM    5  C   UNL     1      64.215   6.482   5.246  1.00  0.00     0.060 A 
HETATM    6  C   UNL     1      65.202   5.974   6.069  1.00  0.00     0.055 A 
HETATM    7  C   UNL     1      66.776   7.112   7.701  1.00  0.00     0.177 C 
ENDROOT
BRANCH   3   8
HETATM    8  C   UNL     1      63.431   8.899   4.685  1.00  0.00     0.033 A 
HETATM    9  S   UNL     1      62.722   8.676   3.144  1.00  0.00    -0.100 SA
HETATM   10  C   UNL     1      61.947  10.200   3.209  1.00  0.00     0.050 A 
HETATM   11  C   UNL     1      62.246  10.882   4.367  1.00  0.00     0.008 A 
HETATM   12  C   UNL     1      63.103  10.127   5.222  1.00  0.00     0.021 A 
ENDBRANCH   3   8
BRANCH   6  13
HETATM   13  C   UNL     1      65.601   4.572   6.328  1.00  0.00     0.288 C 
BRANCH  13  14
HETATM   14  N   UNL     1      64.865   4.052   7.470  1.00  0.00    -0.074 N 
HETATM   15  H   UNL     1      64.808   4.769   8.193  1.00  0.00     0.274 HD
HETATM   16  H   UNL     1      65.348   3.233   7.841  1.00  0.00     0.274 HD
HETATM   17  H   UNL     1      63.925   3.788   7.176  1.00  0.00     0.274 HD
ENDBRANCH  13  14
ENDBRANCH   6  13
TORSDOF 3
ENDMDL
MODEL 5
REMARK VINA RESULT:      -4.1      1.383      2.055
REMARK  3 active torsions:
REMARK  status: ('A' for Active; 'I' for Inactive)
REMARK    1  A    between atoms: C_3  and  C_7 
REMARK    2  A    between atoms: C_6  and  C_12 
REMARK    3  A    between atoms: C_12  and  N_14 
ROOT
HETATM    1  N   UNL     1      64.022   7.448   3.543  1.00  0.00    -0.297 N 
ATOM      2  HN  UNL     1      64.297   6.601   3.048  1.00  0.00     0.187 HD
HETATM    3  C   UNL     1      64.536   7.939   4.676  1.00  0.00     0.067 A 
HETATM    4  N   UNL     1      63.057   8.328   3.203  1.00  0.00    -0.299 N 
HETATM    5  C   UNL     1      63.914   9.154   5.038  1.00  0.00     0.060 A 
HETATM    6  C   UNL     1      62.979   9.404   4.050  1.00  0.00     0.055 A 
HETATM    7  C   UNL     1      62.230   8.021   2.060  1.00  0.00     0.177 C 
ENDROOT
BRANCH   3   8
HETATM    8  C   UNL     1      65.625   7.233   5.427  1.00  0.00     0.033 A 
HETATM    9  S   UNL     1      65.448   6.571   6.993  1.00  0.00    -0.100 SA
HETATM   10  C   UNL     1      67.054   5.980   6.996  1.00  0.00     0.050 A 
HETATM   11  C   UNL     1      67.726   6.308   5.840  1.00  0.00     0.008 A 
HETATM   12  C   UNL     1      66.897   7.031   4.930  1.00  0.00     0.021 A 
ENDBRANCH   3   8
BRANCH   6  13
HETATM   13  C   UNL     1      62.042  10.539   3.889  1.00  0.00     0.288 C 
BRANCH  13  14
HETATM   14  N   UNL     1      62.394  11.605   4.815  1.00  0.00    -0.074 N 
HETATM   15  H   UNL     1      63.190  12.125   4.447  1.00  0.00     0.274 HD
HETATM   16  H   UNL     1      62.640  11.203   5.720  1.00  0.00     0.274 HD
HETATM   17  H   UNL     1      61.599  12.234   4.927  1.00  0.00     0.274 HD
ENDBRANCH  13  14
ENDBRANCH   6  13
TORSDOF 3
ENDMDL
MODEL 6
REMARK VINA RESULT:      -3.8      2.772      5.524
REMARK  3 active torsions:
REMARK  status: ('A' for Active; 'I' for Inactive)
REMARK    1  A    between atoms: C_3  and  C_7 
REMARK    2  A    between atoms: C_6  and  C_12 
REMARK    3  A    between atoms: C_12  and  N_14 
ROOT
HETATM    1  N   UNL     1      65.464   6.767   4.376  1.00  0.00    -0.297 N 
ATOM      2  HN  UNL     1      65.610   6.762   3.367  1.00  0.00     0.187 HD
HETATM    3  C   UNL     1      64.551   7.456   5.069  1.00  0.00     0.067 A 
HETATM    4  N   UNL     1      66.149   6.080   5.314  1.00  0.00    -0.299 N 
HETATM    5  C   UNL     1      64.639   7.177   6.452  1.00  0.00     0.060 A 
HETATM    6  C   UNL     1      65.662   6.257   6.583  1.00  0.00     0.055 A 
HETATM    7  C   UNL     1      67.292   5.305   4.889  1.00  0.00     0.177 C 
ENDROOT
BRANCH   3   8
HETATM    8  C   UNL     1      63.593   8.399   4.405  1.00  0.00     0.033 A 
HETATM    9  S   UNL     1      62.984   9.825   5.125  1.00  0.00    -0.100 SA
HETATM   10  C   UNL     1      62.093  10.230   3.721  1.00  0.00     0.050 A 
HETATM   11  C   UNL     1      62.229   9.282   2.733  1.00  0.00     0.008 A 
HETATM   12  C   UNL     1      63.100   8.223   3.128  1.00  0.00     0.021 A 
ENDBRANCH   3   8
BRANCH   6  13
HETATM   13  C   UNL     1      66.194   5.591   7.793  1.00  0.00     0.288 C 
BRANCH  13  14
HETATM   14  N   UNL     1      65.606   4.267   7.928  1.00  0.00    -0.074 N 
HETATM   15  H   UNL     1      64.902   4.281   8.666  1.00  0.00     0.274 HD
HETATM   16  H   UNL     1      66.335   3.594   8.166  1.00  0.00     0.274 HD
HETATM   17  H   UNL     1      65.169   3.998   7.047  1.00  0.00     0.274 HD
ENDBRANCH  13  14
ENDBRANCH   6  13
TORSDOF 3
ENDMDL
MODEL 7
REMARK VINA RESULT:      -3.5     12.809     13.288
REMARK  3 active torsions:
REMARK  status: ('A' for Active; 'I' for Inactive)
REMARK    1  A    between atoms: C_3  and  C_7 
REMARK    2  A    between atoms: C_6  and  C_12 
REMARK    3  A    between atoms: C_12  and  N_14 
ROOT
HETATM    1  N   UNL     1      55.051   2.766  11.768  1.00  0.00    -0.297 N 
ATOM      2  HN  UNL     1      55.317   2.358  10.872  1.00  0.00     0.187 HD
HETATM    3  C   UNL     1      55.757   2.779  12.903  1.00  0.00     0.067 A 
HETATM    4  N   UNL     1      53.909   3.416  12.074  1.00  0.00    -0.299 N 
HETATM    5  C   UNL     1      55.070   3.471  13.926  1.00  0.00     0.060 A 
HETATM    6  C   UNL     1      53.887   3.903  13.356  1.00  0.00     0.055 A 
HETATM    7  C   UNL     1      52.874   3.482  11.069  1.00  0.00     0.177 C 
ENDROOT
BRANCH   3   8
HETATM    8  C   UNL     1      57.096   2.114  13.017  1.00  0.00     0.033 A 
HETATM    9  S   UNL     1      58.383   2.334  11.912  1.00  0.00    -0.100 SA
HETATM   10  C   UNL     1      59.417   1.311  12.813  1.00  0.00     0.050 A 
HETATM   11  C   UNL     1      58.786   0.785  13.918  1.00  0.00     0.008 A 
HETATM   12  C   UNL     1      57.443   1.252  14.037  1.00  0.00     0.021 A 
ENDBRANCH   3   8
BRANCH   6  13
HETATM   13  C   UNL     1      52.779   4.691  13.941  1.00  0.00     0.288 C 
BRANCH  13  14
HETATM   14  N   UNL     1      53.312   5.697  14.847  1.00  0.00    -0.074 N 
HETATM   15  H   UNL     1      53.521   6.548  14.325  1.00  0.00     0.274 HD
HETATM   16  H   UNL     1      54.167   5.346  15.280  1.00  0.00     0.274 HD
HETATM   17  H   UNL     1      52.623   5.902  15.570  1.00  0.00     0.274 HD
ENDBRANCH  13  14
ENDBRANCH   6  13
TORSDOF 3
ENDMDL
MODEL 8
REMARK VINA RESULT:      -3.5      1.939      2.558
REMARK  3 active torsions:
REMARK  status: ('A' for Active; 'I' for Inactive)
REMARK    1  A    between atoms: C_3  and  C_7 
REMARK    2  A    between atoms: C_6  and  C_12 
REMARK    3  A    between atoms: C_12  and  N_14 
ROOT
HETATM    1  N   UNL     1      61.677   7.359   4.608  1.00  0.00    -0.297 N 
ATOM      2  HN  UNL     1      61.394   6.853   5.447  1.00  0.00     0.187 HD
HETATM    3  C   UNL     1      62.898   7.801   4.290  1.00  0.00     0.067 A 
HETATM    4  N   UNL     1      60.902   7.735   3.569  1.00  0.00    -0.299 N 
HETATM    5  C   UNL     1      62.902   8.432   3.026  1.00  0.00     0.060 A 
HETATM    6  C   UNL     1      61.603   8.348   2.562  1.00  0.00     0.055 A 
HETATM    7  C   UNL     1      59.481   7.492   3.658  1.00  0.00     0.177 C 
ENDROOT
BRANCH   3   8
HETATM    8  C   UNL     1      64.070   7.630   5.208  1.00  0.00     0.033 A 
HETATM    9  S   UNL     1      64.180   6.435   6.427  1.00  0.00    -0.100 SA
HETATM   10  C   UNL     1      65.753   6.941   6.872  1.00  0.00     0.050 A 
HETATM   11  C   UNL     1      66.177   8.020   6.131  1.00  0.00     0.008 A 
HETATM   12  C   UNL     1      65.203   8.417   5.165  1.00  0.00     0.021 A 
ENDBRANCH   3   8
BRANCH   6  13
HETATM   13  C   UNL     1      61.013   8.821   1.290  1.00  0.00     0.288 C 
BRANCH  13  14
HETATM   14  N   UNL     1      61.019   7.744   0.311  1.00  0.00    -0.074 N 
HETATM   15  H   UNL     1      60.059   7.502   0.067  1.00  0.00     0.274 HD
HETATM   16  H   UNL     1      61.484   6.927   0.708  1.00  0.00     0.274 HD
HETATM   17  H   UNL     1      61.517   8.047  -0.525  1.00  0.00     0.274 HD
ENDBRANCH  13  14
ENDBRANCH   6  13
TORSDOF 3
ENDMDL
MODEL 9
REMARK VINA RESULT:      -3.5      3.111      6.020
REMARK  3 active torsions:
REMARK  status: ('A' for Active; 'I' for Inactive)
REMARK    1  A    between atoms: C_3  and  C_7 
REMARK    2  A    between atoms: C_6  and  C_12 
REMARK    3  A    between atoms: C_12  and  N_14 
ROOT
HETATM    1  N   UNL     1      64.739   5.100   6.221  1.00  0.00    -0.297 N 
ATOM      2  HN  UNL     1      63.944   4.557   5.884  1.00  0.00     0.187 HD
HETATM    3  C   UNL     1      64.938   6.417   6.106  1.00  0.00     0.067 A 
HETATM    4  N   UNL     1      65.825   4.652   6.883  1.00  0.00    -0.299 N 
HETATM    5  C   UNL     1      66.144   6.810   6.729  1.00  0.00     0.060 A 
HETATM    6  C   UNL     1      66.687   5.652   7.255  1.00  0.00     0.055 A 
HETATM    7  C   UNL     1      65.964   3.228   7.077  1.00  0.00     0.177 C 
ENDROOT
BRANCH   3   8
HETATM    8  C   UNL     1      63.973   7.309   5.384  1.00  0.00     0.033 A 
HETATM    9  S   UNL     1      62.327   6.935   5.112  1.00  0.00    -0.100 SA
HETATM   10  C   UNL     1      62.048   8.433   4.334  1.00  0.00     0.050 A 
HETATM   11  C   UNL     1      63.193   9.193   4.252  1.00  0.00     0.008 A 
HETATM   12  C   UNL     1      64.307   8.542   4.863  1.00  0.00     0.021 A 
ENDBRANCH   3   8
BRANCH   6  13
HETATM   13  C   UNL     1      67.933   5.450   8.028  1.00  0.00     0.288 C 
BRANCH  13  14
HETATM   14  N   UNL     1      68.075   6.503   9.022  1.00  0.00    -0.074 N 
HETATM   15  H   UNL     1      69.032   6.854   9.011  1.00  0.00     0.274 HD
HETATM   16  H   UNL     1      67.860   6.128   9.947  1.00  0.00     0.274 HD
HETATM   17  H   UNL     1      67.431   7.263   8.805  1.00  0.00     0.274 HD
ENDBRANCH  13  14
ENDBRANCH   6  13
TORSDOF 3
ENDMDL
