MODEL 1
REMARK VINA RESULT:      -4.9      0.000      0.000
REMARK  2 active torsions:
REMARK  status: ('A' for Active; 'I' for Inactive)
REMARK    1  A    between atoms: C_6  and  C_13 
REMARK    2  A    between atoms: C_13  and  O_14 
ROOT
HETATM    1  C   UNL     1      62.886   8.667   3.515  1.00  0.00     0.069 A 
HETATM    2  N   UNL     1      63.937   8.329   4.336  1.00  0.00    -0.295 N 
HETATM    3  N   UNL     1      64.140   9.212   5.343  1.00  0.00    -0.300 N 
ATOM      4  HN  UNL     1      64.834   9.165   6.089  1.00  0.00     0.187 HD
HETATM    5  C   UNL     1      62.425   9.876   4.007  1.00  0.00     0.061 A 
HETATM    6  C   UNL     1      63.217  10.163   5.135  1.00  0.00     0.051 A 
HETATM    7  C   UNL     1      62.393   7.922   2.384  1.00  0.00     0.033 A 
HETATM    8  S   UNL     1      61.777   8.733   0.997  1.00  0.00    -0.100 SA
HETATM    9  C   UNL     1      62.291   6.552   2.232  1.00  0.00     0.021 A 
HETATM   10  C   UNL     1      61.420   7.265   0.201  1.00  0.00     0.050 A 
HETATM   11  C   UNL     1      61.752   6.171   0.967  1.00  0.00     0.008 A 
HETATM   12  C   UNL     1      64.850   7.214   4.246  1.00  0.00     0.178 C 
ENDROOT
BRANCH   6  13
HETATM   13  C   UNL     1      63.125  11.339   6.052  1.00  0.00     0.222 C 
BRANCH  13  14
HETATM   14  O   UNL     1      64.400  11.712   6.578  1.00  0.00    -0.395 OA
HETATM   15  H   UNL     1      64.424  11.528   7.530  1.00  0.00     0.209 HD
ENDBRANCH  13  14
ENDBRANCH   6  13
TORSDOF 2
ENDMDL
MODEL 2
REMARK VINA RESULT:      -4.9      1.681      2.676
REMARK  2 active torsions:
REMARK  status: ('A' for Active; 'I' for Inactive)
REMARK    1  A    between atoms: C_6  and  C_13 
REMARK    2  A    between atoms: C_13  and  O_14 
ROOT
HETATM    1  C   UNL     1      63.512   8.448   3.856  1.00  0.00     0.069 A 
HETATM    2  N   UNL     1      63.487   9.490   4.754  1.00  0.00    -0.295 N 
HETATM    3  N   UNL     1      64.450   9.405   5.705  1.00  0.00    -0.300 N 
ATOM      4  HN  UNL     1      64.648  10.065   6.457  1.00  0.00     0.187 HD
HETATM    5  C   UNL     1      64.529   7.619   4.301  1.00  0.00     0.061 A 
HETATM    6  C   UNL     1      65.081   8.255   5.430  1.00  0.00     0.051 A 
HETATM    7  C   UNL     1      62.653   8.264   2.714  1.00  0.00     0.033 A 
HETATM    8  S   UNL     1      62.153   6.690   2.232  1.00  0.00    -0.100 SA
HETATM    9  C   UNL     1      62.152   9.220   1.849  1.00  0.00     0.021 A 
HETATM   10  C   UNL     1      61.253   7.295   0.913  1.00  0.00     0.050 A 
HETATM   11  C   UNL     1      61.328   8.665   0.825  1.00  0.00     0.008 A 
HETATM   12  C   UNL     1      62.575  10.606   4.839  1.00  0.00     0.178 C 
ENDROOT
BRANCH   6  13
HETATM   13  C   UNL     1      66.223   7.799   6.279  1.00  0.00     0.222 C 
BRANCH  13  14
HETATM   14  O   UNL     1      66.839   8.882   6.977  1.00  0.00    -0.395 OA
HETATM   15  H   UNL     1      67.799   8.855   6.833  1.00  0.00     0.209 HD
ENDBRANCH  13  14
ENDBRANCH   6  13
TORSDOF 2
ENDMDL
MODEL 3
REMARK VINA RESULT:      -4.5      3.040      4.637
REMARK  2 active torsions:
REMARK  status: ('A' for Active; 'I' for Inactive)
REMARK    1  A    between atoms: C_6  and  C_13 
REMARK    2  A    between atoms: C_13  and  O_14 
ROOT
HETATM    1  C   UNL     1      64.623   7.826   4.639  1.00  0.00     0.069 A 
HETATM    2  N   UNL     1      63.856   7.557   3.529  1.00  0.00    -0.295 N 
HETATM    3  N   UNL     1      62.938   8.518   3.262  1.00  0.00    -0.300 N 
ATOM      4  HN  UNL     1      62.278   8.557   2.486  1.00  0.00     0.187 HD
HETATM    5  C   UNL     1      64.119   9.015   5.139  1.00  0.00     0.061 A 
HETATM    6  C   UNL     1      63.096   9.406   4.255  1.00  0.00     0.051 A 
HETATM    7  C   UNL     1      65.702   7.028   5.163  1.00  0.00     0.033 A 
HETATM    8  S   UNL     1      65.973   6.918   6.859  1.00  0.00    -0.100 SA
HETATM    9  C   UNL     1      66.657   6.307   4.470  1.00  0.00     0.021 A 
HETATM   10  C   UNL     1      67.321   5.890   6.655  1.00  0.00     0.050 A 
HETATM   11  C   UNL     1      67.576   5.633   5.329  1.00  0.00     0.008 A 
HETATM   12  C   UNL     1      63.872   6.404   2.660  1.00  0.00     0.178 C 
ENDROOT
BRANCH   6  13
HETATM   13  C   UNL     1      62.240  10.629   4.316  1.00  0.00     0.222 C 
BRANCH  13  14
HETATM   14  O   UNL     1      61.028  10.475   3.576  1.00  0.00    -0.395 OA
HETATM   15  H   UNL     1      60.536   9.711   3.916  1.00  0.00     0.209 HD
ENDBRANCH  13  14
ENDBRANCH   6  13
TORSDOF 2
ENDMDL
MODEL 4
REMARK VINA RESULT:      -4.0      3.134      3.927
REMARK  2 active torsions:
REMARK  status: ('A' for Active; 'I' for Inactive)
REMARK    1  A    between atoms: C_6  and  C_13 
REMARK    2  A    between atoms: C_13  and  O_14 
ROOT
HETATM    1  C   UNL     1      63.032   7.384   5.567  1.00  0.00     0.069 A 
HETATM    2  N   UNL     1      63.448   8.644   5.202  1.00  0.00    -0.295 N 
HETATM    3  N   UNL     1      64.760   8.873   5.456  1.00  0.00    -0.300 N 
ATOM      4  HN  UNL     1      65.301   9.713   5.252  1.00  0.00     0.187 HD
HETATM    5  C   UNL     1      64.146   6.794   6.140  1.00  0.00     0.061 A 
HETATM    6  C   UNL     1      65.183   7.742   6.038  1.00  0.00     0.051 A 
HETATM    7  C   UNL     1      61.717   6.821   5.397  1.00  0.00     0.033 A 
HETATM    8  S   UNL     1      61.064   5.739   6.566  1.00  0.00    -0.100 SA
HETATM    9  C   UNL     1      60.835   6.991   4.345  1.00  0.00     0.021 A 
HETATM   10  C   UNL     1      59.614   5.541   5.687  1.00  0.00     0.050 A 
HETATM   11  C   UNL     1      59.615   6.273   4.522  1.00  0.00     0.008 A 
HETATM   12  C   UNL     1      62.688   9.734   4.638  1.00  0.00     0.178 C 
ENDROOT
BRANCH   6  13
HETATM   13  C   UNL     1      66.603   7.606   6.482  1.00  0.00     0.222 C 
BRANCH  13  14
HETATM   14  O   UNL     1      67.014   8.695   7.310  1.00  0.00    -0.395 OA
HETATM   15  H   UNL     1      67.114   8.386   8.225  1.00  0.00     0.209 HD
ENDBRANCH  13  14
ENDBRANCH   6  13
TORSDOF 2
ENDMDL
MODEL 5
REMARK VINA RESULT:      -4.0      3.252      4.141
REMARK  2 active torsions:
REMARK  status: ('A' for Active; 'I' for Inactive)
REMARK    1  A    between atoms: C_6  and  C_13 
REMARK    2  A    between atoms: C_13  and  O_14 
ROOT
HETATM    1  C   UNL     1      62.532   7.830   4.468  1.00  0.00     0.069 A 
HETATM    2  N   UNL     1      61.274   7.846   3.911  1.00  0.00    -0.295 N 
HETATM    3  N   UNL     1      60.909   9.062   3.438  1.00  0.00    -0.300 N 
ATOM      4  HN  UNL     1      60.044   9.317   2.963  1.00  0.00     0.187 HD
HETATM    5  C   UNL     1      62.973   9.141   4.389  1.00  0.00     0.061 A 
HETATM    6  C   UNL     1      61.948   9.856   3.740  1.00  0.00     0.051 A 
HETATM    7  C   UNL     1      63.223   6.693   5.022  1.00  0.00     0.033 A 
HETATM    8  S   UNL     1      64.260   6.871   6.384  1.00  0.00    -0.100 SA
HETATM    9  C   UNL     1      63.217   5.383   4.581  1.00  0.00     0.021 A 
HETATM   10  C   UNL     1      64.657   5.210   6.395  1.00  0.00     0.050 A 
HETATM   11  C   UNL     1      64.025   4.523   5.385  1.00  0.00     0.008 A 
HETATM   12  C   UNL     1      60.306   6.781   3.802  1.00  0.00     0.178 C 
ENDROOT
BRANCH   6  13
HETATM   13  C   UNL     1      61.919  11.306   3.380  1.00  0.00     0.222 C 
BRANCH  13  14
HETATM   14  O   UNL     1      61.423  11.522   2.058  1.00  0.00    -0.395 OA
HETATM   15  H   UNL     1      62.071  12.035   1.549  1.00  0.00     0.209 HD
ENDBRANCH  13  14
ENDBRANCH   6  13
TORSDOF 2
ENDMDL
MODEL 6
REMARK VINA RESULT:      -3.9      4.598      5.787
REMARK  2 active torsions:
REMARK  status: ('A' for Active; 'I' for Inactive)
REMARK    1  A    between atoms: C_6  and  C_13 
REMARK    2  A    between atoms: C_13  and  O_14 
ROOT
HETATM    1  C   UNL     1      65.135   6.315   6.891  1.00  0.00     0.069 A 
HETATM    2  N   UNL     1      64.931   4.977   7.136  1.00  0.00    -0.295 N 
HETATM    3  N   UNL     1      65.867   4.430   7.950  1.00  0.00    -0.300 N 
ATOM      4  HN  UNL     1      65.915   3.471   8.294  1.00  0.00     0.187 HD
HETATM    5  C   UNL     1      66.311   6.624   7.555  1.00  0.00     0.061 A 
HETATM    6  C   UNL     1      66.715   5.438   8.198  1.00  0.00     0.051 A 
HETATM    7  C   UNL     1      64.305   7.190   6.103  1.00  0.00     0.033 A 
HETATM    8  S   UNL     1      65.000   8.452   5.161  1.00  0.00    -0.100 SA
HETATM    9  C   UNL     1      62.926   7.207   5.998  1.00  0.00     0.021 A 
HETATM   10  C   UNL     1      63.476   8.978   4.599  1.00  0.00     0.050 A 
HETATM   11  C   UNL     1      62.449   8.222   5.115  1.00  0.00     0.008 A 
HETATM   12  C   UNL     1      63.908   4.096   6.625  1.00  0.00     0.178 C 
ENDROOT
BRANCH   6  13
HETATM   13  C   UNL     1      67.909   5.223   9.070  1.00  0.00     0.222 C 
BRANCH  13  14
HETATM   14  O   UNL     1      68.074   3.849   9.426  1.00  0.00    -0.395 OA
HETATM   15  H   UNL     1      68.253   3.327   8.628  1.00  0.00     0.209 HD
ENDBRANCH  13  14
ENDBRANCH   6  13
TORSDOF 2
ENDMDL
MODEL 7
REMARK VINA RESULT:      -3.8      4.131      5.502
REMARK  2 active torsions:
REMARK  status: ('A' for Active; 'I' for Inactive)
REMARK    1  A    between atoms: C_6  and  C_13 
REMARK    2  A    between atoms: C_13  and  O_14 
ROOT
HETATM    1  C   UNL     1      61.013   7.913   3.287  1.00  0.00     0.069 A 
HETATM    2  N   UNL     1      60.800   8.396   2.016  1.00  0.00    -0.295 N 
HETATM    3  N   UNL     1      59.545   8.170   1.557  1.00  0.00    -0.300 N 
ATOM      4  HN  UNL     1      59.144   8.454   0.663  1.00  0.00     0.187 HD
HETATM    5  C   UNL     1      59.824   7.294   3.635  1.00  0.00     0.061 A 
HETATM    6  C   UNL     1      58.952   7.488   2.547  1.00  0.00     0.051 A 
HETATM    7  C   UNL     1      62.219   8.024   4.067  1.00  0.00     0.033 A 
HETATM    8  S   UNL     1      62.701   6.757   5.128  1.00  0.00    -0.100 SA
HETATM    9  C   UNL     1      63.106   9.082   4.138  1.00  0.00     0.021 A 
HETATM   10  C   UNL     1      64.092   7.606   5.636  1.00  0.00     0.050 A 
HETATM   11  C   UNL     1      64.197   8.834   5.024  1.00  0.00     0.008 A 
HETATM   12  C   UNL     1      61.720   9.054   1.119  1.00  0.00     0.178 C 
ENDROOT
BRANCH   6  13
HETATM   13  C   UNL     1      57.533   7.041   2.411  1.00  0.00     0.222 C 
BRANCH  13  14
HETATM   14  O   UNL     1      57.025   7.257   1.093  1.00  0.00    -0.395 OA
HETATM   15  H   UNL     1      56.225   7.804   1.141  1.00  0.00     0.209 HD
ENDBRANCH  13  14
ENDBRANCH   6  13
TORSDOF 2
ENDMDL
MODEL 8
REMARK VINA RESULT:      -3.7      2.612      3.267
REMARK  2 active torsions:
REMARK  status: ('A' for Active; 'I' for Inactive)
REMARK    1  A    between atoms: C_6  and  C_13 
REMARK    2  A    between atoms: C_13  and  O_14 
ROOT
HETATM    1  C   UNL     1      63.513   7.137   5.198  1.00  0.00     0.069 A 
HETATM    2  N   UNL     1      63.607   6.034   6.016  1.00  0.00    -0.295 N 
HETATM    3  N   UNL     1      64.710   6.041   6.804  1.00  0.00    -0.300 N 
ATOM      4  HN  UNL     1      64.983   5.353   7.506  1.00  0.00     0.187 HD
HETATM    5  C   UNL     1      64.664   7.865   5.449  1.00  0.00     0.061 A 
HETATM    6  C   UNL     1      65.359   7.159   6.449  1.00  0.00     0.051 A 
HETATM    7  C   UNL     1      62.451   7.445   4.275  1.00  0.00     0.033 A 
HETATM    8  S   UNL     1      62.782   8.235   2.782  1.00  0.00    -0.100 SA
HETATM    9  C   UNL     1      61.093   7.227   4.419  1.00  0.00     0.021 A 
HETATM   10  C   UNL     1      61.135   8.243   2.332  1.00  0.00     0.050 A 
HETATM   11  C   UNL     1      60.337   7.665   3.291  1.00  0.00     0.008 A 
HETATM   12  C   UNL     1      62.735   4.888   6.114  1.00  0.00     0.178 C 
ENDROOT
BRANCH   6  13
HETATM   13  C   UNL     1      66.653   7.519   7.103  1.00  0.00     0.222 C 
BRANCH  13  14
HETATM   14  O   UNL     1      66.920   8.921   7.031  1.00  0.00    -0.395 OA
HETATM   15  H   UNL     1      67.833   9.061   6.730  1.00  0.00     0.209 HD
ENDBRANCH  13  14
ENDBRANCH   6  13
TORSDOF 2
ENDMDL
MODEL 9
REMARK VINA RESULT:      -3.7     11.824     12.063
REMARK  2 active torsions:
REMARK  status: ('A' for Active; 'I' for Inactive)
REMARK    1  A    between atoms: C_6  and  C_13 
REMARK    2  A    between atoms: C_13  and  O_14 
ROOT
HETATM    1  C   UNL     1      57.708   2.099  11.783  1.00  0.00     0.069 A 
HETATM    2  N   UNL     1      58.206   1.844  13.040  1.00  0.00    -0.295 N 
HETATM    3  N   UNL     1      57.270   1.926  14.017  1.00  0.00    -0.300 N 
ATOM      4  HN  UNL     1      57.389   1.755  15.015  1.00  0.00     0.187 HD
HETATM    5  C   UNL     1      56.375   2.415  11.985  1.00  0.00     0.061 A 
HETATM    6  C   UNL     1      56.152   2.283  13.369  1.00  0.00     0.051 A 
HETATM    7  C   UNL     1      58.432   2.057  10.537  1.00  0.00     0.033 A 
HETATM    8  S   UNL     1      58.063   3.158   9.267  1.00  0.00    -0.100 SA
HETATM    9  C   UNL     1      59.430   1.182  10.149  1.00  0.00     0.021 A 
HETATM   10  C   UNL     1      59.251   2.489   8.238  1.00  0.00     0.050 A 
HETATM   11  C   UNL     1      59.918   1.444   8.834  1.00  0.00     0.008 A 
HETATM   12  C   UNL     1      59.559   1.550  13.448  1.00  0.00     0.178 C 
ENDROOT
BRANCH   6  13
HETATM   13  C   UNL     1      54.876   2.485  14.121  1.00  0.00     0.222 C 
BRANCH  13  14
HETATM   14  O   UNL     1      54.942   3.611  14.998  1.00  0.00    -0.395 OA
HETATM   15  H   UNL     1      55.498   4.300  14.599  1.00  0.00     0.209 HD
ENDBRANCH  13  14
ENDBRANCH   6  13
TORSDOF 2
ENDMDL
