MODEL 1
REMARK VINA RESULT:      -5.7      0.000      0.000
REMARK  3 active torsions:
REMARK  status: ('A' for Active; 'I' for Inactive)
REMARK    1  A    between atoms: N_1  and  C_4 
REMARK    2  A    between atoms: C_2  and  C_4 
REMARK    3  A    between atoms: C_5  and  N_10 
ROOT
HETATM    1  C   UNL     1      63.746   8.253   5.132  1.00  0.00     0.275 C 
ENDROOT
BRANCH   1   2
HETATM    2  N   UNL     1      65.149   8.008   4.729  1.00  0.00    -0.064 N 
HETATM    3  C   UNL     1      66.077   8.160   5.870  1.00  0.00     0.263 C 
HETATM    4  C   UNL     1      67.537   7.804   5.508  1.00  0.00     0.262 C 
HETATM    5  N   UNL     1      67.718   6.464   4.916  1.00  0.00    -0.072 N 
HETATM    6  C   UNL     1      66.760   6.307   3.802  1.00  0.00     0.262 C 
HETATM    7  C   UNL     1      67.568   5.409   5.916  1.00  0.00     0.269 C 
HETATM    8  H   UNL     1      68.668   6.378   4.554  1.00  0.00     0.279 HD
HETATM    9  C   UNL     1      65.291   6.659   4.144  1.00  0.00     0.263 C 
HETATM   10  H   UNL     1      65.393   8.706   4.028  1.00  0.00     0.280 HD
ENDBRANCH   1   2
BRANCH   1  11
HETATM   11  C   UNL     1      63.060   9.291   4.262  1.00  0.00    -0.006 A 
HETATM   12  C   UNL     1      62.745  10.575   4.748  1.00  0.00     0.033 A 
HETATM   13  C   UNL     1      62.067  11.471   3.914  1.00  0.00     0.029 A 
HETATM   14  C   UNL     1      61.630  11.082   2.647  1.00  0.00     0.002 A 
HETATM   15  C   UNL     1      61.928   9.812   2.170  1.00  0.00     0.001 A 
HETATM   16  C   UNL     1      62.648   8.924   2.967  1.00  0.00     0.011 A 
BRANCH  12  17
HETATM   17  N   UNL     1      63.275  11.040   5.969  1.00  0.00    -0.399 N 
HETATM   18  H   UNL     1      63.130  11.974   6.244  1.00  0.00     0.156 HD
HETATM   19  H   UNL     1      63.790  10.431   6.546  1.00  0.00     0.156 HD
ENDBRANCH  12  17
ENDBRANCH   1  11
TORSDOF 3
ENDMDL
MODEL 2
REMARK VINA RESULT:      -5.3      1.421      2.218
REMARK  3 active torsions:
REMARK  status: ('A' for Active; 'I' for Inactive)
REMARK    1  A    between atoms: N_1  and  C_4 
REMARK    2  A    between atoms: C_2  and  C_4 
REMARK    3  A    between atoms: C_5  and  N_10 
ROOT
HETATM    1  C   UNL     1      63.787   7.445   4.777  1.00  0.00     0.275 C 
ENDROOT
BRANCH   1   2
HETATM    2  N   UNL     1      65.013   7.732   5.556  1.00  0.00    -0.064 N 
HETATM    3  C   UNL     1      65.106   6.877   6.759  1.00  0.00     0.263 C 
HETATM    4  C   UNL     1      66.429   7.076   7.535  1.00  0.00     0.262 C 
HETATM    5  N   UNL     1      67.651   6.907   6.727  1.00  0.00    -0.072 N 
HETATM    6  C   UNL     1      67.531   7.735   5.510  1.00  0.00     0.262 C 
HETATM    7  C   UNL     1      67.896   5.502   6.408  1.00  0.00     0.269 C 
HETATM    8  H   UNL     1      68.460   7.219   7.266  1.00  0.00     0.279 HD
HETATM    9  C   UNL     1      66.214   7.551   4.716  1.00  0.00     0.263 C 
HETATM   10  H   UNL     1      64.960   8.703   5.863  1.00  0.00     0.280 HD
ENDBRANCH   1   2
BRANCH   1  11
HETATM   11  C   UNL     1      63.089   8.704   4.297  1.00  0.00    -0.006 A 
HETATM   12  C   UNL     1      62.620   8.836   2.977  1.00  0.00     0.033 A 
HETATM   13  C   UNL     1      62.030  10.041   2.580  1.00  0.00     0.029 A 
HETATM   14  C   UNL     1      61.978  11.134   3.447  1.00  0.00     0.002 A 
HETATM   15  C   UNL     1      62.452  11.011   4.747  1.00  0.00     0.001 A 
HETATM   16  C   UNL     1      62.995   9.802   5.175  1.00  0.00     0.011 A 
BRANCH  12  17
HETATM   17  N   UNL     1      62.546   7.720   2.118  1.00  0.00    -0.399 N 
HETATM   18  H   UNL     1      63.079   6.915   2.310  1.00  0.00     0.156 HD
HETATM   19  H   UNL     1      61.963   7.746   1.326  1.00  0.00     0.156 HD
ENDBRANCH  12  17
ENDBRANCH   1  11
TORSDOF 3
ENDMDL
MODEL 3
REMARK VINA RESULT:      -4.7      3.164      4.340
REMARK  3 active torsions:
REMARK  status: ('A' for Active; 'I' for Inactive)
REMARK    1  A    between atoms: N_1  and  C_4 
REMARK    2  A    between atoms: C_2  and  C_4 
REMARK    3  A    between atoms: C_5  and  N_10 
ROOT
HETATM    1  C   UNL     1      62.835   7.537   4.207  1.00  0.00     0.275 C 
ENDROOT
BRANCH   1   2
HETATM    2  N   UNL     1      61.644   6.910   4.823  1.00  0.00    -0.064 N 
HETATM    3  C   UNL     1      61.259   5.667   4.121  1.00  0.00     0.263 C 
HETATM    4  C   UNL     1      60.085   4.930   4.806  1.00  0.00     0.262 C 
HETATM    5  N   UNL     1      60.293   4.632   6.236  1.00  0.00    -0.072 N 
HETATM    6  C   UNL     1      60.715   5.871   6.921  1.00  0.00     0.262 C 
HETATM    7  C   UNL     1      61.257   3.549   6.426  1.00  0.00     0.269 C 
HETATM    8  H   UNL     1      59.417   4.305   6.646  1.00  0.00     0.279 HD
HETATM    9  C   UNL     1      61.890   6.625   6.251  1.00  0.00     0.263 C 
HETATM   10  H   UNL     1      60.873   7.571   4.740  1.00  0.00     0.280 HD
ENDBRANCH   1   2
BRANCH   1  11
HETATM   11  C   UNL     1      62.532   8.892   3.593  1.00  0.00    -0.006 A 
HETATM   12  C   UNL     1      62.459  10.061   4.373  1.00  0.00     0.033 A 
HETATM   13  C   UNL     1      62.125  11.272   3.756  1.00  0.00     0.029 A 
HETATM   14  C   UNL     1      61.787  11.319   2.403  1.00  0.00     0.002 A 
HETATM   15  C   UNL     1      61.846  10.164   1.633  1.00  0.00     0.001 A 
HETATM   16  C   UNL     1      62.226   8.959   2.220  1.00  0.00     0.011 A 
BRANCH  12  17
HETATM   17  N   UNL     1      62.911  10.072   5.709  1.00  0.00    -0.399 N 
HETATM   18  H   UNL     1      62.595   9.387   6.341  1.00  0.00     0.156 HD
HETATM   19  H   UNL     1      63.542  10.765   6.009  1.00  0.00     0.156 HD
ENDBRANCH  12  17
ENDBRANCH   1  11
TORSDOF 3
ENDMDL
MODEL 4
REMARK VINA RESULT:      -4.5      2.107      3.121
REMARK  3 active torsions:
REMARK  status: ('A' for Active; 'I' for Inactive)
REMARK    1  A    between atoms: N_1  and  C_4 
REMARK    2  A    between atoms: C_2  and  C_4 
REMARK    3  A    between atoms: C_5  and  N_10 
ROOT
HETATM    1  C   UNL     1      64.966   7.406   4.533  1.00  0.00     0.275 C 
ENDROOT
BRANCH   1   2
HETATM    2  N   UNL     1      64.798   6.705   5.826  1.00  0.00    -0.064 N 
HETATM    3  C   UNL     1      64.526   5.265   5.633  1.00  0.00     0.263 C 
HETATM    4  C   UNL     1      64.453   4.484   6.965  1.00  0.00     0.262 C 
HETATM    5  N   UNL     1      65.633   4.639   7.837  1.00  0.00    -0.072 N 
HETATM    6  C   UNL     1      65.920   6.079   7.992  1.00  0.00     0.262 C 
HETATM    7  C   UNL     1      66.786   3.906   7.317  1.00  0.00     0.269 C 
HETATM    8  H   UNL     1      65.433   4.237   8.753  1.00  0.00     0.279 HD
HETATM    9  C   UNL     1      65.998   6.881   6.669  1.00  0.00     0.263 C 
HETATM   10  H   UNL     1      63.993   7.119   6.296  1.00  0.00     0.280 HD
ENDBRANCH   1   2
BRANCH   1  11
HETATM   11  C   UNL     1      63.830   8.368   4.236  1.00  0.00    -0.006 A 
HETATM   12  C   UNL     1      63.044   8.253   3.074  1.00  0.00     0.033 A 
HETATM   13  C   UNL     1      62.044   9.200   2.830  1.00  0.00     0.029 A 
HETATM   14  C   UNL     1      61.874  10.297   3.676  1.00  0.00     0.002 A 
HETATM   15  C   UNL     1      62.656  10.421   4.818  1.00  0.00     0.001 A 
HETATM   16  C   UNL     1      63.622   9.458   5.103  1.00  0.00     0.011 A 
BRANCH  12  17
HETATM   17  N   UNL     1      63.107   7.098   2.267  1.00  0.00    -0.399 N 
HETATM   18  H   UNL     1      62.342   6.854   1.696  1.00  0.00     0.156 HD
HETATM   19  H   UNL     1      63.914   6.535   2.274  1.00  0.00     0.156 HD
ENDBRANCH  12  17
ENDBRANCH   1  11
TORSDOF 3
ENDMDL
MODEL 5
REMARK VINA RESULT:      -4.5      2.138      6.509
REMARK  3 active torsions:
REMARK  status: ('A' for Active; 'I' for Inactive)
REMARK    1  A    between atoms: N_1  and  C_4 
REMARK    2  A    between atoms: C_2  and  C_4 
REMARK    3  A    between atoms: C_5  and  N_10 
ROOT
HETATM    1  C   UNL     1      66.464   7.521   5.828  1.00  0.00     0.275 C 
ENDROOT
BRANCH   1   2
HETATM    2  N   UNL     1      65.035   7.819   6.073  1.00  0.00    -0.064 N 
HETATM    3  C   UNL     1      64.505   8.789   5.090  1.00  0.00     0.263 C 
HETATM    4  C   UNL     1      62.988   9.038   5.251  1.00  0.00     0.262 C 
HETATM    5  N   UNL     1      62.155   7.820   5.223  1.00  0.00    -0.072 N 
HETATM    6  C   UNL     1      62.715   6.843   6.179  1.00  0.00     0.262 C 
HETATM    7  C   UNL     1      62.056   7.267   3.874  1.00  0.00     0.269 C 
HETATM    8  H   UNL     1      61.202   8.054   5.503  1.00  0.00     0.279 HD
HETATM    9  C   UNL     1      64.234   6.578   6.035  1.00  0.00     0.263 C 
HETATM   10  H   UNL     1      64.963   8.238   7.000  1.00  0.00     0.280 HD
ENDBRANCH   1   2
BRANCH   1  11
HETATM   11  C   UNL     1      67.059   6.604   6.881  1.00  0.00    -0.006 A 
HETATM   12  C   UNL     1      67.501   5.304   6.570  1.00  0.00     0.033 A 
HETATM   13  C   UNL     1      67.994   4.488   7.594  1.00  0.00     0.029 A 
HETATM   14  C   UNL     1      67.975   4.914   8.923  1.00  0.00     0.002 A 
HETATM   15  C   UNL     1      67.527   6.192   9.235  1.00  0.00     0.001 A 
HETATM   16  C   UNL     1      67.082   7.037   8.221  1.00  0.00     0.011 A 
BRANCH  12  17
HETATM   17  N   UNL     1      67.648   4.889   5.230  1.00  0.00    -0.399 N 
HETATM   18  H   UNL     1      68.430   4.354   4.964  1.00  0.00     0.156 HD
HETATM   19  H   UNL     1      66.969   5.134   4.561  1.00  0.00     0.156 HD
ENDBRANCH  12  17
ENDBRANCH   1  11
TORSDOF 3
ENDMDL
MODEL 6
REMARK VINA RESULT:      -4.3      2.079      6.073
REMARK  3 active torsions:
REMARK  status: ('A' for Active; 'I' for Inactive)
REMARK    1  A    between atoms: N_1  and  C_4 
REMARK    2  A    between atoms: C_2  and  C_4 
REMARK    3  A    between atoms: C_5  and  N_10 
ROOT
HETATM    1  C   UNL     1      65.915   6.806   5.216  1.00  0.00     0.275 C 
ENDROOT
BRANCH   1   2
HETATM    2  N   UNL     1      64.532   7.326   5.297  1.00  0.00    -0.064 N 
HETATM    3  C   UNL     1      64.473   8.768   4.973  1.00  0.00     0.263 C 
HETATM    4  C   UNL     1      63.028   9.317   4.942  1.00  0.00     0.262 C 
HETATM    5  N   UNL     1      62.107   8.586   4.052  1.00  0.00    -0.072 N 
HETATM    6  C   UNL     1      62.202   7.144   4.357  1.00  0.00     0.262 C 
HETATM    7  C   UNL     1      62.384   8.864   2.644  1.00  0.00     0.269 C 
HETATM    8  H   UNL     1      61.151   8.901   4.219  1.00  0.00     0.279 HD
HETATM    9  C   UNL     1      63.641   6.572   4.392  1.00  0.00     0.263 C 
HETATM   10  H   UNL     1      64.215   7.205   6.259  1.00  0.00     0.280 HD
ENDBRANCH   1   2
BRANCH   1  11
HETATM   11  C   UNL     1      66.380   6.174   6.515  1.00  0.00    -0.006 A 
HETATM   12  C   UNL     1      67.012   6.927   7.523  1.00  0.00     0.033 A 
HETATM   13  C   UNL     1      67.464   6.277   8.676  1.00  0.00     0.029 A 
HETATM   14  C   UNL     1      67.372   4.890   8.802  1.00  0.00     0.002 A 
HETATM   15  C   UNL     1      66.760   4.142   7.804  1.00  0.00     0.001 A 
HETATM   16  C   UNL     1      66.258   4.779   6.671  1.00  0.00     0.011 A 
BRANCH  12  17
HETATM   17  N   UNL     1      67.011   8.336   7.483  1.00  0.00    -0.399 N 
HETATM   18  H   UNL     1      66.162   8.826   7.397  1.00  0.00     0.156 HD
HETATM   19  H   UNL     1      67.860   8.831   7.542  1.00  0.00     0.156 HD
ENDBRANCH  12  17
ENDBRANCH   1  11
TORSDOF 3
ENDMDL
MODEL 7
REMARK VINA RESULT:      -4.2      2.162      5.723
REMARK  3 active torsions:
REMARK  status: ('A' for Active; 'I' for Inactive)
REMARK    1  A    between atoms: N_1  and  C_4 
REMARK    2  A    between atoms: C_2  and  C_4 
REMARK    3  A    between atoms: C_5  and  N_10 
ROOT
HETATM    1  C   UNL     1      63.418   7.067   4.075  1.00  0.00     0.275 C 
ENDROOT
BRANCH   1   2
HETATM    2  N   UNL     1      63.196   7.793   2.805  1.00  0.00    -0.064 N 
HETATM    3  C   UNL     1      62.723   6.888   1.736  1.00  0.00     0.263 C 
HETATM    4  C   UNL     1      62.378   7.635   0.426  1.00  0.00     0.262 C 
HETATM    5  N   UNL     1      61.415   8.742   0.582  1.00  0.00    -0.072 N 
HETATM    6  C   UNL     1      61.877   9.619   1.677  1.00  0.00     0.262 C 
HETATM    7  C   UNL     1      60.059   8.248   0.814  1.00  0.00     0.269 C 
HETATM    8  H   UNL     1      61.375   9.281  -0.284  1.00  0.00     0.279 HD
HETATM    9  C   UNL     1      62.228   8.891   2.999  1.00  0.00     0.263 C 
HETATM   10  H   UNL     1      64.093   8.183   2.514  1.00  0.00     0.280 HD
ENDBRANCH   1   2
BRANCH   1  11
HETATM   11  C   UNL     1      64.881   7.025   4.478  1.00  0.00    -0.006 A 
HETATM   12  C   UNL     1      65.483   8.074   5.198  1.00  0.00     0.033 A 
HETATM   13  C   UNL     1      66.848   8.000   5.496  1.00  0.00     0.029 A 
HETATM   14  C   UNL     1      67.631   6.947   5.020  1.00  0.00     0.002 A 
HETATM   15  C   UNL     1      67.042   5.916   4.299  1.00  0.00     0.001 A 
HETATM   16  C   UNL     1      65.673   5.948   4.038  1.00  0.00     0.011 A 
BRANCH  12  17
HETATM   17  N   UNL     1      64.704   9.086   5.796  1.00  0.00    -0.399 N 
HETATM   18  H   UNL     1      64.038   8.853   6.482  1.00  0.00     0.156 HD
HETATM   19  H   UNL     1      64.824  10.024   5.526  1.00  0.00     0.156 HD
ENDBRANCH  12  17
ENDBRANCH   1  11
TORSDOF 3
ENDMDL
MODEL 8
REMARK VINA RESULT:      -4.0      3.919      4.596
REMARK  3 active torsions:
REMARK  status: ('A' for Active; 'I' for Inactive)
REMARK    1  A    between atoms: N_1  and  C_4 
REMARK    2  A    between atoms: C_2  and  C_4 
REMARK    3  A    between atoms: C_5  and  N_10 
ROOT
HETATM    1  C   UNL     1      61.262   6.334   4.194  1.00  0.00     0.275 C 
ENDROOT
BRANCH   1   2
HETATM    2  N   UNL     1      62.176   7.099   5.073  1.00  0.00    -0.064 N 
HETATM    3  C   UNL     1      63.194   6.225   5.693  1.00  0.00     0.263 C 
HETATM    4  C   UNL     1      64.230   7.010   6.530  1.00  0.00     0.262 C 
HETATM    5  N   UNL     1      64.909   8.102   5.806  1.00  0.00    -0.072 N 
HETATM    6  C   UNL     1      63.886   8.947   5.158  1.00  0.00     0.262 C 
HETATM    7  C   UNL     1      65.880   7.587   4.843  1.00  0.00     0.269 C 
HETATM    8  H   UNL     1      65.441   8.668   6.468  1.00  0.00     0.279 HD
HETATM    9  C   UNL     1      62.837   8.180   4.314  1.00  0.00     0.263 C 
HETATM   10  H   UNL     1      61.613   7.507   5.818  1.00  0.00     0.280 HD
ENDBRANCH   1   2
BRANCH   1  11
HETATM   11  C   UNL     1      59.799   6.572   4.521  1.00  0.00    -0.006 A 
HETATM   12  C   UNL     1      59.011   7.477   3.785  1.00  0.00     0.033 A 
HETATM   13  C   UNL     1      57.683   7.691   4.167  1.00  0.00     0.029 A 
HETATM   14  C   UNL     1      57.158   7.086   5.311  1.00  0.00     0.002 A 
HETATM   15  C   UNL     1      57.937   6.202   6.047  1.00  0.00     0.001 A 
HETATM   16  C   UNL     1      59.246   5.938   5.651  1.00  0.00     0.011 A 
BRANCH  12  17
HETATM   17  N   UNL     1      59.468   8.008   2.561  1.00  0.00    -0.399 N 
HETATM   18  H   UNL     1      59.433   7.461   1.744  1.00  0.00     0.156 HD
HETATM   19  H   UNL     1      59.823   8.925   2.524  1.00  0.00     0.156 HD
ENDBRANCH  12  17
ENDBRANCH   1  11
TORSDOF 3
ENDMDL
MODEL 9
REMARK VINA RESULT:      -3.9      2.686      3.490
REMARK  3 active torsions:
REMARK  status: ('A' for Active; 'I' for Inactive)
REMARK    1  A    between atoms: N_1  and  C_4 
REMARK    2  A    between atoms: C_2  and  C_4 
REMARK    3  A    between atoms: C_5  and  N_10 
ROOT
HETATM    1  C   UNL     1      64.244   6.983   3.672  1.00  0.00     0.275 C 
ENDROOT
BRANCH   1   2
HETATM    2  N   UNL     1      63.552   5.891   4.393  1.00  0.00    -0.064 N 
HETATM    3  C   UNL     1      62.948   4.918   3.457  1.00  0.00     0.263 C 
HETATM    4  C   UNL     1      62.312   3.707   4.178  1.00  0.00     0.262 C 
HETATM    5  N   UNL     1      63.216   2.992   5.099  1.00  0.00    -0.072 N 
HETATM    6  C   UNL     1      63.844   3.976   6.004  1.00  0.00     0.262 C 
HETATM    7  C   UNL     1      64.212   2.206   4.374  1.00  0.00     0.269 C 
HETATM    8  H   UNL     1      62.678   2.325   5.653  1.00  0.00     0.279 HD
HETATM    9  C   UNL     1      64.488   5.198   5.302  1.00  0.00     0.263 C 
HETATM   10  H   UNL     1      62.801   6.312   4.939  1.00  0.00     0.280 HD
ENDBRANCH   1   2
BRANCH   1  11
HETATM   11  C   UNL     1      63.580   8.333   3.878  1.00  0.00    -0.006 A 
HETATM   12  C   UNL     1      63.832   9.117   5.019  1.00  0.00     0.033 A 
HETATM   13  C   UNL     1      63.151  10.329   5.177  1.00  0.00     0.029 A 
HETATM   14  C   UNL     1      62.172  10.726   4.265  1.00  0.00     0.002 A 
HETATM   15  C   UNL     1      61.911   9.948   3.144  1.00  0.00     0.001 A 
HETATM   16  C   UNL     1      62.618   8.763   2.945  1.00  0.00     0.011 A 
BRANCH  12  17
HETATM   17  N   UNL     1      64.896   8.809   5.892  1.00  0.00    -0.399 N 
HETATM   18  H   UNL     1      64.945   7.920   6.313  1.00  0.00     0.156 HD
HETATM   19  H   UNL     1      65.589   9.481   6.081  1.00  0.00     0.156 HD
ENDBRANCH  12  17
ENDBRANCH   1  11
TORSDOF 3
ENDMDL
