MODEL 1
REMARK VINA RESULT:      -4.6      0.000      0.000
REMARK  3 active torsions:
REMARK  status: ('A' for Active; 'I' for Inactive)
REMARK    1  A    between atoms: C_3  and  C_7 
REMARK    2  A    between atoms: C_6  and  C_12 
REMARK    3  A    between atoms: C_12  and  O_14 
ROOT
HETATM    1  N   UNL     1      63.794   7.847   3.649  1.00  0.00    -0.297 N 
ATOM      2  HN  UNL     1      64.174   6.995   3.234  1.00  0.00     0.187 HD
HETATM    3  C   UNL     1      64.043   8.348   4.865  1.00  0.00     0.067 A 
HETATM    4  N   UNL     1      62.928   8.719   3.098  1.00  0.00    -0.298 N 
HETATM    5  C   UNL     1      63.366   9.572   5.062  1.00  0.00     0.061 A 
HETATM    6  C   UNL     1      62.692   9.817   3.884  1.00  0.00     0.053 A 
HETATM    7  C   UNL     1      62.347   8.386   1.817  1.00  0.00     0.177 C 
ENDROOT
BRANCH   3   8
HETATM    8  C   UNL     1      64.931   7.648   5.850  1.00  0.00     0.033 A 
HETATM    9  S   UNL     1      66.574   8.044   6.117  1.00  0.00    -0.100 SA
HETATM   10  C   UNL     1      66.724   6.862   7.344  1.00  0.00     0.050 A 
HETATM   11  C   UNL     1      65.556   6.153   7.525  1.00  0.00     0.008 A 
HETATM   12  C   UNL     1      64.519   6.611   6.661  1.00  0.00     0.021 A 
ENDBRANCH   3   8
BRANCH   6  13
HETATM   13  C   UNL     1      61.860  10.971   3.482  1.00  0.00     0.222 C 
BRANCH  13  14
HETATM   14  O   UNL     1      62.154  12.025   4.382  1.00  0.00    -0.395 OA
HETATM   15  H   UNL     1      62.098  11.698   5.293  1.00  0.00     0.209 HD
ENDBRANCH  13  14
ENDBRANCH   6  13
TORSDOF 3
ENDMDL
MODEL 2
REMARK VINA RESULT:      -4.5      1.869      2.408
REMARK  3 active torsions:
REMARK  status: ('A' for Active; 'I' for Inactive)
REMARK    1  A    between atoms: C_3  and  C_7 
REMARK    2  A    between atoms: C_6  and  C_12 
REMARK    3  A    between atoms: C_12  and  O_14 
ROOT
HETATM    1  N   UNL     1      64.048   9.595   5.528  1.00  0.00    -0.297 N 
ATOM      2  HN  UNL     1      64.401  10.074   6.356  1.00  0.00     0.187 HD
HETATM    3  C   UNL     1      64.485   8.448   4.995  1.00  0.00     0.067 A 
HETATM    4  N   UNL     1      63.036   9.975   4.723  1.00  0.00    -0.298 N 
HETATM    5  C   UNL     1      63.710   8.076   3.874  1.00  0.00     0.061 A 
HETATM    6  C   UNL     1      62.746   9.055   3.749  1.00  0.00     0.053 A 
HETATM    7  C   UNL     1      62.433  11.268   4.949  1.00  0.00     0.177 C 
ENDROOT
BRANCH   3   8
HETATM    8  C   UNL     1      65.657   7.702   5.558  1.00  0.00     0.033 A 
HETATM    9  S   UNL     1      65.594   6.726   6.962  1.00  0.00    -0.100 SA
HETATM   10  C   UNL     1      67.237   6.280   6.803  1.00  0.00     0.050 A 
HETATM   11  C   UNL     1      67.835   6.890   5.721  1.00  0.00     0.008 A 
HETATM   12  C   UNL     1      66.919   7.711   5.001  1.00  0.00     0.021 A 
ENDBRANCH   3   8
BRANCH   6  13
HETATM   13  C   UNL     1      61.624   9.174   2.793  1.00  0.00     0.222 C 
BRANCH  13  14
HETATM   14  O   UNL     1      60.454   8.756   3.476  1.00  0.00    -0.395 OA
HETATM   15  H   UNL     1      59.749   9.408   3.340  1.00  0.00     0.209 HD
ENDBRANCH  13  14
ENDBRANCH   6  13
TORSDOF 3
ENDMDL
MODEL 3
REMARK VINA RESULT:      -4.5      2.456      2.790
REMARK  3 active torsions:
REMARK  status: ('A' for Active; 'I' for Inactive)
REMARK    1  A    between atoms: C_3  and  C_7 
REMARK    2  A    between atoms: C_6  and  C_12 
REMARK    3  A    between atoms: C_12  and  O_14 
ROOT
HETATM    1  N   UNL     1      63.296   8.210   3.429  1.00  0.00    -0.297 N 
ATOM      2  HN  UNL     1      62.983   7.730   2.585  1.00  0.00     0.187 HD
HETATM    3  C   UNL     1      64.318   7.880   4.229  1.00  0.00     0.067 A 
HETATM    4  N   UNL     1      62.774   9.317   3.992  1.00  0.00    -0.298 N 
HETATM    5  C   UNL     1      64.471   8.815   5.276  1.00  0.00     0.061 A 
HETATM    6  C   UNL     1      63.491   9.765   5.071  1.00  0.00     0.053 A 
HETATM    7  C   UNL     1      61.551   9.852   3.439  1.00  0.00     0.177 C 
ENDROOT
BRANCH   3   8
HETATM    8  C   UNL     1      65.152   6.657   3.994  1.00  0.00     0.033 A 
HETATM    9  S   UNL     1      64.518   5.120   3.588  1.00  0.00    -0.100 SA
HETATM   10  C   UNL     1      66.080   4.436   3.471  1.00  0.00     0.050 A 
HETATM   11  C   UNL     1      67.068   5.349   3.769  1.00  0.00     0.008 A 
HETATM   12  C   UNL     1      66.529   6.635   4.070  1.00  0.00     0.021 A 
ENDBRANCH   3   8
BRANCH   6  13
HETATM   13  C   UNL     1      63.197  11.009   5.814  1.00  0.00     0.222 C 
BRANCH  13  14
HETATM   14  O   UNL     1      64.409  11.424   6.420  1.00  0.00    -0.395 OA
HETATM   15  H   UNL     1      65.155  10.981   5.988  1.00  0.00     0.209 HD
ENDBRANCH  13  14
ENDBRANCH   6  13
TORSDOF 3
ENDMDL
MODEL 4
REMARK VINA RESULT:      -4.4      3.131      5.483
REMARK  3 active torsions:
REMARK  status: ('A' for Active; 'I' for Inactive)
REMARK    1  A    between atoms: C_3  and  C_7 
REMARK    2  A    between atoms: C_6  and  C_12 
REMARK    3  A    between atoms: C_12  and  O_14 
ROOT
HETATM    1  N   UNL     1      64.406   7.715   6.442  1.00  0.00    -0.297 N 
ATOM      2  HN  UNL     1      63.646   7.882   7.102  1.00  0.00     0.187 HD
HETATM    3  C   UNL     1      64.543   8.210   5.207  1.00  0.00     0.067 A 
HETATM    4  N   UNL     1      65.497   6.944   6.617  1.00  0.00    -0.298 N 
HETATM    5  C   UNL     1      65.755   7.788   4.617  1.00  0.00     0.061 A 
HETATM    6  C   UNL     1      66.379   7.010   5.570  1.00  0.00     0.053 A 
HETATM    7  C   UNL     1      65.582   6.143   7.817  1.00  0.00     0.177 C 
ENDROOT
BRANCH   3   8
HETATM    8  C   UNL     1      63.504   9.092   4.581  1.00  0.00     0.033 A 
HETATM    9  S   UNL     1      62.968  10.573   5.248  1.00  0.00    -0.100 SA
HETATM   10  C   UNL     1      61.922  10.862   3.927  1.00  0.00     0.050 A 
HETATM   11  C   UNL     1      61.953   9.835   3.009  1.00  0.00     0.008 A 
HETATM   12  C   UNL     1      62.870   8.812   3.388  1.00  0.00     0.021 A 
ENDBRANCH   3   8
BRANCH   6  13
HETATM   13  C   UNL     1      67.698   6.341   5.544  1.00  0.00     0.222 C 
BRANCH  13  14
HETATM   14  O   UNL     1      67.704   5.486   4.413  1.00  0.00    -0.395 OA
HETATM   15  H   UNL     1      68.439   4.857   4.487  1.00  0.00     0.209 HD
ENDBRANCH  13  14
ENDBRANCH   6  13
TORSDOF 3
ENDMDL
MODEL 5
REMARK VINA RESULT:      -4.4      3.019      5.314
REMARK  3 active torsions:
REMARK  status: ('A' for Active; 'I' for Inactive)
REMARK    1  A    between atoms: C_3  and  C_7 
REMARK    2  A    between atoms: C_6  and  C_12 
REMARK    3  A    between atoms: C_12  and  O_14 
ROOT
HETATM    1  N   UNL     1      63.569   7.043   5.780  1.00  0.00    -0.297 N 
ATOM      2  HN  UNL     1      62.590   6.756   5.756  1.00  0.00     0.187 HD
HETATM    3  C   UNL     1      64.099   8.188   5.336  1.00  0.00     0.067 A 
HETATM    4  N   UNL     1      64.620   6.354   6.267  1.00  0.00    -0.298 N 
HETATM    5  C   UNL     1      65.488   8.242   5.589  1.00  0.00     0.061 A 
HETATM    6  C   UNL     1      65.792   7.064   6.239  1.00  0.00     0.053 A 
HETATM    7  C   UNL     1      64.401   4.993   6.703  1.00  0.00     0.177 C 
ENDROOT
BRANCH   3   8
HETATM    8  C   UNL     1      63.273   9.239   4.657  1.00  0.00     0.033 A 
HETATM    9  S   UNL     1      62.550   9.053   3.118  1.00  0.00    -0.100 SA
HETATM   10  C   UNL     1      61.831  10.601   3.198  1.00  0.00     0.050 A 
HETATM   11  C   UNL     1      62.162  11.266   4.359  1.00  0.00     0.008 A 
HETATM   12  C   UNL     1      62.996  10.475   5.203  1.00  0.00     0.021 A 
ENDBRANCH   3   8
BRANCH   6  13
HETATM   13  C   UNL     1      67.074   6.584   6.798  1.00  0.00     0.222 C 
BRANCH  13  14
HETATM   14  O   UNL     1      67.305   7.316   7.989  1.00  0.00    -0.395 OA
HETATM   15  H   UNL     1      67.115   8.254   7.835  1.00  0.00     0.209 HD
ENDBRANCH  13  14
ENDBRANCH   6  13
TORSDOF 3
ENDMDL
MODEL 6
REMARK VINA RESULT:      -4.2      3.121      5.443
REMARK  3 active torsions:
REMARK  status: ('A' for Active; 'I' for Inactive)
REMARK    1  A    between atoms: C_3  and  C_7 
REMARK    2  A    between atoms: C_6  and  C_12 
REMARK    3  A    between atoms: C_12  and  O_14 
ROOT
HETATM    1  N   UNL     1      65.831   7.991   4.994  1.00  0.00    -0.297 N 
ATOM      2  HN  UNL     1      66.300   8.533   4.268  1.00  0.00     0.187 HD
HETATM    3  C   UNL     1      64.539   8.030   5.341  1.00  0.00     0.067 A 
HETATM    4  N   UNL     1      66.372   7.074   5.820  1.00  0.00    -0.298 N 
HETATM    5  C   UNL     1      64.254   7.095   6.361  1.00  0.00     0.061 A 
HETATM    6  C   UNL     1      65.447   6.452   6.618  1.00  0.00     0.053 A 
HETATM    7  C   UNL     1      67.806   6.895   5.795  1.00  0.00     0.177 C 
ENDROOT
BRANCH   3   8
HETATM    8  C   UNL     1      63.568   8.974   4.697  1.00  0.00     0.033 A 
HETATM    9  S   UNL     1      62.754   8.664   3.225  1.00  0.00    -0.100 SA
HETATM   10  C   UNL     1      61.897  10.140   3.314  1.00  0.00     0.050 A 
HETATM   11  C   UNL     1      62.248  10.875   4.426  1.00  0.00     0.008 A 
HETATM   12  C   UNL     1      63.214  10.198   5.226  1.00  0.00     0.021 A 
ENDBRANCH   3   8
BRANCH   6  13
HETATM   13  C   UNL     1      65.754   5.342   7.545  1.00  0.00     0.222 C 
BRANCH  13  14
HETATM   14  O   UNL     1      66.154   5.928   8.772  1.00  0.00    -0.395 OA
HETATM   15  H   UNL     1      65.419   5.892   9.404  1.00  0.00     0.209 HD
ENDBRANCH  13  14
ENDBRANCH   6  13
TORSDOF 3
ENDMDL
MODEL 7
REMARK VINA RESULT:      -3.8      3.830      6.112
REMARK  3 active torsions:
REMARK  status: ('A' for Active; 'I' for Inactive)
REMARK    1  A    between atoms: C_3  and  C_7 
REMARK    2  A    between atoms: C_6  and  C_12 
REMARK    3  A    between atoms: C_12  and  O_14 
ROOT
HETATM    1  N   UNL     1      65.094   7.121   7.339  1.00  0.00    -0.297 N 
ATOM      2  HN  UNL     1      64.560   7.776   7.911  1.00  0.00     0.187 HD
HETATM    3  C   UNL     1      64.929   6.844   6.041  1.00  0.00     0.067 A 
HETATM    4  N   UNL     1      66.124   6.340   7.721  1.00  0.00    -0.298 N 
HETATM    5  C   UNL     1      65.895   5.917   5.588  1.00  0.00     0.061 A 
HETATM    6  C   UNL     1      66.689   5.645   6.683  1.00  0.00     0.053 A 
HETATM    7  C   UNL     1      66.466   6.300   9.124  1.00  0.00     0.177 C 
ENDROOT
BRANCH   3   8
HETATM    8  C   UNL     1      63.836   7.466   5.224  1.00  0.00     0.033 A 
HETATM    9  S   UNL     1      62.277   6.789   5.027  1.00  0.00    -0.100 SA
HETATM   10  C   UNL     1      61.755   8.109   4.074  1.00  0.00     0.050 A 
HETATM   11  C   UNL     1      62.759   9.034   3.878  1.00  0.00     0.008 A 
HETATM   12  C   UNL     1      63.962   8.660   4.546  1.00  0.00     0.021 A 
ENDBRANCH   3   8
BRANCH   6  13
HETATM   13  C   UNL     1      67.890   4.791   6.804  1.00  0.00     0.222 C 
BRANCH  13  14
HETATM   14  O   UNL     1      67.437   3.487   7.125  1.00  0.00    -0.395 OA
HETATM   15  H   UNL     1      66.507   3.525   7.398  1.00  0.00     0.209 HD
ENDBRANCH  13  14
ENDBRANCH   6  13
TORSDOF 3
ENDMDL
MODEL 8
REMARK VINA RESULT:      -3.7      3.846      4.486
REMARK  3 active torsions:
REMARK  status: ('A' for Active; 'I' for Inactive)
REMARK    1  A    between atoms: C_3  and  C_7 
REMARK    2  A    between atoms: C_6  and  C_12 
REMARK    3  A    between atoms: C_12  and  O_14 
ROOT
HETATM    1  N   UNL     1      61.201   7.022   4.840  1.00  0.00    -0.297 N 
ATOM      2  HN  UNL     1      60.299   6.843   4.397  1.00  0.00     0.187 HD
HETATM    3  C   UNL     1      61.667   6.516   5.987  1.00  0.00     0.067 A 
HETATM    4  N   UNL     1      62.191   7.824   4.401  1.00  0.00    -0.298 N 
HETATM    5  C   UNL     1      62.981   6.963   6.248  1.00  0.00     0.061 A 
HETATM    6  C   UNL     1      63.317   7.769   5.180  1.00  0.00     0.053 A 
HETATM    7  C   UNL     1      61.942   8.641   3.235  1.00  0.00     0.177 C 
ENDROOT
BRANCH   3   8
HETATM    8  C   UNL     1      60.848   5.599   6.846  1.00  0.00     0.033 A 
HETATM    9  S   UNL     1      61.058   3.903   6.919  1.00  0.00    -0.100 SA
HETATM   10  C   UNL     1      59.831   3.738   8.098  1.00  0.00     0.050 A 
HETATM   11  C   UNL     1      59.246   4.947   8.407  1.00  0.00     0.008 A 
HETATM   12  C   UNL     1      59.837   6.023   7.682  1.00  0.00     0.021 A 
ENDBRANCH   3   8
BRANCH   6  13
HETATM   13  C   UNL     1      64.582   8.472   4.875  1.00  0.00     0.222 C 
BRANCH  13  14
HETATM   14  O   UNL     1      64.632   9.613   5.714  1.00  0.00    -0.395 OA
HETATM   15  H   UNL     1      65.448  10.108   5.540  1.00  0.00     0.209 HD
ENDBRANCH  13  14
ENDBRANCH   6  13
TORSDOF 3
ENDMDL
MODEL 9
REMARK VINA RESULT:      -3.7      3.012      5.490
REMARK  3 active torsions:
REMARK  status: ('A' for Active; 'I' for Inactive)
REMARK    1  A    between atoms: C_3  and  C_7 
REMARK    2  A    between atoms: C_6  and  C_12 
REMARK    3  A    between atoms: C_12  and  O_14 
ROOT
HETATM    1  N   UNL     1      63.513   6.552   2.731  1.00  0.00    -0.297 N 
ATOM      2  HN  UNL     1      63.423   5.755   2.101  1.00  0.00     0.187 HD
HETATM    3  C   UNL     1      62.634   7.541   2.934  1.00  0.00     0.067 A 
HETATM    4  N   UNL     1      64.544   6.848   3.546  1.00  0.00    -0.298 N 
HETATM    5  C   UNL     1      63.094   8.440   3.921  1.00  0.00     0.061 A 
HETATM    6  C   UNL     1      64.311   7.941   4.339  1.00  0.00     0.053 A 
HETATM    7  C   UNL     1      65.737   6.036   3.459  1.00  0.00     0.177 C 
ENDROOT
BRANCH   3   8
HETATM    8  C   UNL     1      61.345   7.631   2.174  1.00  0.00     0.033 A 
HETATM    9  S   UNL     1      59.817   7.201   2.813  1.00  0.00    -0.100 SA
HETATM   10  C   UNL     1      59.016   7.655   1.373  1.00  0.00     0.050 A 
HETATM   11  C   UNL     1      59.897   8.094   0.407  1.00  0.00     0.008 A 
HETATM   12  C   UNL     1      61.244   8.080   0.874  1.00  0.00     0.021 A 
ENDBRANCH   3   8
BRANCH   6  13
HETATM   13  C   UNL     1      65.233   8.427   5.388  1.00  0.00     0.222 C 
BRANCH  13  14
HETATM   14  O   UNL     1      64.770   9.706   5.784  1.00  0.00    -0.395 OA
HETATM   15  H   UNL     1      65.023   9.872   6.706  1.00  0.00     0.209 HD
ENDBRANCH  13  14
ENDBRANCH   6  13
TORSDOF 3
ENDMDL
