MODEL 1
REMARK VINA RESULT:      -5.8      0.000      0.000
REMARK  4 active torsions:
REMARK  status: ('A' for Active; 'I' for Inactive)
REMARK    1  A    between atoms: N_1  and  C_3 
REMARK    2  A    between atoms: C_2  and  C_3 
REMARK    3  A    between atoms: C_4  and  C_9 
REMARK    4  A    between atoms: O_8  and  C_9 
ROOT
HETATM    1  C   UNL     1      62.867   9.133   4.443  1.00  0.00    -0.024 A 
HETATM    2  C   UNL     1      62.648  10.511   4.672  1.00  0.00    -0.027 A 
HETATM    3  C   UNL     1      62.607   8.603   3.162  1.00  0.00     0.009 A 
HETATM    4  C   UNL     1      62.081  11.287   3.645  1.00  0.00     0.010 A 
HETATM    5  C   UNL     1      62.083   9.402   2.147  1.00  0.00     0.001 A 
HETATM    6  C   UNL     1      61.800  10.739   2.394  1.00  0.00     0.001 A 
ENDROOT
BRANCH   1   7
HETATM    7  C   UNL     1      63.362   8.178   5.523  1.00  0.00     0.274 C 
BRANCH   7   8
HETATM    8  N   UNL     1      64.489   7.343   5.087  1.00  0.00    -0.063 N 
HETATM    9  C   UNL     1      65.781   8.070   5.043  1.00  0.00     0.261 C 
HETATM   10  C   UNL     1      66.459   8.270   6.409  1.00  0.00     0.195 C 
HETATM   11  O   UNL     1      66.615   7.025   7.102  1.00  0.00    -0.388 OA
HETATM   12  C   UNL     1      65.344   6.392   7.282  1.00  0.00     0.195 C 
HETATM   13  C   UNL     1      64.648   6.142   5.933  1.00  0.00     0.261 C 
HETATM   14  H   UNL     1      64.252   7.064   4.134  1.00  0.00     0.280 HD
ENDBRANCH   7   8
ENDBRANCH   1   7
BRANCH   2  15
HETATM   15  C   UNL     1      62.936  11.154   6.012  1.00  0.00     0.203 C 
BRANCH  15  16
HETATM   16  O   UNL     1      64.338  11.378   6.191  1.00  0.00    -0.396 OA
HETATM   17  H   UNL     1      64.827  10.574   5.950  1.00  0.00     0.209 HD
ENDBRANCH  15  16
ENDBRANCH   2  15
TORSDOF 4
ENDMDL
MODEL 2
REMARK VINA RESULT:      -4.9      2.135      2.785
REMARK  4 active torsions:
REMARK  status: ('A' for Active; 'I' for Inactive)
REMARK    1  A    between atoms: N_1  and  C_3 
REMARK    2  A    between atoms: C_2  and  C_3 
REMARK    3  A    between atoms: C_4  and  C_9 
REMARK    4  A    between atoms: O_8  and  C_9 
ROOT
HETATM    1  C   UNL     1      62.694   9.271   3.698  1.00  0.00    -0.024 A 
HETATM    2  C   UNL     1      62.498  10.557   4.252  1.00  0.00    -0.027 A 
HETATM    3  C   UNL     1      62.448   9.073   2.324  1.00  0.00     0.009 A 
HETATM    4  C   UNL     1      61.965  11.571   3.436  1.00  0.00     0.010 A 
HETATM    5  C   UNL     1      61.958  10.106   1.526  1.00  0.00     0.001 A 
HETATM    6  C   UNL     1      61.697  11.350   2.086  1.00  0.00     0.001 A 
ENDROOT
BRANCH   1   7
HETATM    7  C   UNL     1      63.150   8.071   4.521  1.00  0.00     0.274 C 
BRANCH   7   8
HETATM    8  N   UNL     1      62.052   7.402   5.230  1.00  0.00    -0.063 N 
HETATM    9  C   UNL     1      61.175   6.603   4.342  1.00  0.00     0.261 C 
HETATM   10  C   UNL     1      61.742   5.233   3.931  1.00  0.00     0.195 C 
HETATM   11  O   UNL     1      62.122   4.460   5.076  1.00  0.00    -0.388 OA
HETATM   12  C   UNL     1      63.090   5.169   5.857  1.00  0.00     0.195 C 
HETATM   13  C   UNL     1      62.546   6.532   6.319  1.00  0.00     0.261 C 
HETATM   14  H   UNL     1      61.496   8.162   5.623  1.00  0.00     0.280 HD
ENDBRANCH   7   8
ENDBRANCH   1   7
BRANCH   2  15
HETATM   15  C   UNL     1      62.773  10.849   5.712  1.00  0.00     0.203 C 
BRANCH  15  16
HETATM   16  O   UNL     1      64.153  11.161   5.928  1.00  0.00    -0.396 OA
HETATM   17  H   UNL     1      64.604  10.387   6.303  1.00  0.00     0.209 HD
ENDBRANCH  15  16
ENDBRANCH   2  15
TORSDOF 4
ENDMDL
MODEL 3
REMARK VINA RESULT:      -4.8      1.973      2.986
REMARK  4 active torsions:
REMARK  status: ('A' for Active; 'I' for Inactive)
REMARK    1  A    between atoms: N_1  and  C_3 
REMARK    2  A    between atoms: C_2  and  C_3 
REMARK    3  A    between atoms: C_4  and  C_9 
REMARK    4  A    between atoms: O_8  and  C_9 
ROOT
HETATM    1  C   UNL     1      63.613   8.731   4.380  1.00  0.00    -0.024 A 
HETATM    2  C   UNL     1      62.859   8.673   3.185  1.00  0.00    -0.027 A 
HETATM    3  C   UNL     1      63.448   9.837   5.241  1.00  0.00     0.009 A 
HETATM    4  C   UNL     1      62.047   9.770   2.844  1.00  0.00     0.010 A 
HETATM    5  C   UNL     1      62.605  10.893   4.898  1.00  0.00     0.001 A 
HETATM    6  C   UNL     1      61.920  10.871   3.690  1.00  0.00     0.001 A 
ENDROOT
BRANCH   1   7
HETATM    7  C   UNL     1      64.613   7.655   4.786  1.00  0.00     0.274 C 
BRANCH   7   8
HETATM    8  N   UNL     1      65.133   7.830   6.149  1.00  0.00    -0.063 N 
HETATM    9  C   UNL     1      64.922   6.647   7.018  1.00  0.00     0.261 C 
HETATM   10  C   UNL     1      65.911   5.490   6.790  1.00  0.00     0.195 C 
HETATM   11  O   UNL     1      67.268   5.938   6.885  1.00  0.00    -0.388 OA
HETATM   12  C   UNL     1      67.518   6.980   5.935  1.00  0.00     0.195 C 
HETATM   13  C   UNL     1      66.571   8.173   6.153  1.00  0.00     0.261 C 
HETATM   14  H   UNL     1      64.593   8.605   6.535  1.00  0.00     0.280 HD
ENDBRANCH   7   8
ENDBRANCH   1   7
BRANCH   2  15
HETATM   15  C   UNL     1      62.961   7.502   2.232  1.00  0.00     0.203 C 
BRANCH  15  16
HETATM   16  O   UNL     1      61.907   6.560   2.451  1.00  0.00    -0.396 OA
HETATM   17  H   UNL     1      62.248   5.659   2.333  1.00  0.00     0.209 HD
ENDBRANCH  15  16
ENDBRANCH   2  15
TORSDOF 4
ENDMDL
MODEL 4
REMARK VINA RESULT:      -4.7      2.049      2.810
REMARK  4 active torsions:
REMARK  status: ('A' for Active; 'I' for Inactive)
REMARK    1  A    between atoms: N_1  and  C_3 
REMARK    2  A    between atoms: C_2  and  C_3 
REMARK    3  A    between atoms: C_4  and  C_9 
REMARK    4  A    between atoms: O_8  and  C_9 
ROOT
HETATM    1  C   UNL     1      62.956   8.975   4.097  1.00  0.00    -0.024 A 
HETATM    2  C   UNL     1      62.514   8.883   2.757  1.00  0.00    -0.027 A 
HETATM    3  C   UNL     1      62.737  10.173   4.809  1.00  0.00     0.009 A 
HETATM    4  C   UNL     1      61.964  10.023   2.145  1.00  0.00     0.010 A 
HETATM    5  C   UNL     1      62.152  11.278   4.191  1.00  0.00     0.001 A 
HETATM    6  C   UNL     1      61.784  11.211   2.854  1.00  0.00     0.001 A 
ENDROOT
BRANCH   1   7
HETATM    7  C   UNL     1      63.674   7.840   4.817  1.00  0.00     0.274 C 
BRANCH   7   8
HETATM    8  N   UNL     1      65.135   7.888   4.664  1.00  0.00    -0.063 N 
HETATM    9  C   UNL     1      65.853   8.151   5.934  1.00  0.00     0.261 C 
HETATM   10  C   UNL     1      65.991   6.934   6.865  1.00  0.00     0.195 C 
HETATM   11  O   UNL     1      66.582   5.821   6.185  1.00  0.00    -0.388 OA
HETATM   12  C   UNL     1      65.801   5.465   5.039  1.00  0.00     0.195 C 
HETATM   13  C   UNL     1      65.669   6.647   4.064  1.00  0.00     0.261 C 
HETATM   14  H   UNL     1      65.304   8.674   4.037  1.00  0.00     0.280 HD
ENDBRANCH   7   8
ENDBRANCH   1   7
BRANCH   2  15
HETATM   15  C   UNL     1      62.687   7.617   1.944  1.00  0.00     0.203 C 
BRANCH  15  16
HETATM   16  O   UNL     1      62.417   7.848   0.558  1.00  0.00    -0.396 OA
HETATM   17  H   UNL     1      62.638   7.052   0.049  1.00  0.00     0.209 HD
ENDBRANCH  15  16
ENDBRANCH   2  15
TORSDOF 4
ENDMDL
MODEL 5
REMARK VINA RESULT:      -4.5      3.449      5.459
REMARK  4 active torsions:
REMARK  status: ('A' for Active; 'I' for Inactive)
REMARK    1  A    between atoms: N_1  and  C_3 
REMARK    2  A    between atoms: C_2  and  C_3 
REMARK    3  A    between atoms: C_4  and  C_9 
REMARK    4  A    between atoms: O_8  and  C_9 
ROOT
HETATM    1  C   UNL     1      62.301   9.340   3.055  1.00  0.00    -0.024 A 
HETATM    2  C   UNL     1      63.228   8.702   3.911  1.00  0.00    -0.027 A 
HETATM    3  C   UNL     1      61.866  10.645   3.370  1.00  0.00     0.009 A 
HETATM    4  C   UNL     1      63.607   9.347   5.101  1.00  0.00     0.010 A 
HETATM    5  C   UNL     1      62.288  11.280   4.537  1.00  0.00     0.001 A 
HETATM    6  C   UNL     1      63.142  10.624   5.414  1.00  0.00     0.001 A 
ENDROOT
BRANCH   1   7
HETATM    7  C   UNL     1      61.732   8.681   1.804  1.00  0.00     0.274 C 
BRANCH   7   8
HETATM    8  N   UNL     1      60.275   8.501   1.854  1.00  0.00    -0.063 N 
HETATM    9  C   UNL     1      59.685   8.094   0.557  1.00  0.00     0.261 C 
HETATM   10  C   UNL     1      59.855   6.606   0.205  1.00  0.00     0.195 C 
HETATM   11  O   UNL     1      59.369   5.762   1.256  1.00  0.00    -0.388 OA
HETATM   12  C   UNL     1      60.050   6.050   2.483  1.00  0.00     0.195 C 
HETATM   13  C   UNL     1      59.874   7.523   2.888  1.00  0.00     0.261 C 
HETATM   14  H   UNL     1      59.908   9.423   2.092  1.00  0.00     0.280 HD
ENDBRANCH   7   8
ENDBRANCH   1   7
BRANCH   2  15
HETATM   15  C   UNL     1      63.763   7.316   3.617  1.00  0.00     0.203 C 
BRANCH  15  16
HETATM   16  O   UNL     1      64.164   6.648   4.818  1.00  0.00    -0.396 OA
HETATM   17  H   UNL     1      65.133   6.624   4.866  1.00  0.00     0.209 HD
ENDBRANCH  15  16
ENDBRANCH   2  15
TORSDOF 4
ENDMDL
MODEL 6
REMARK VINA RESULT:      -4.3      3.062      5.392
REMARK  4 active torsions:
REMARK  status: ('A' for Active; 'I' for Inactive)
REMARK    1  A    between atoms: N_1  and  C_3 
REMARK    2  A    between atoms: C_2  and  C_3 
REMARK    3  A    between atoms: C_4  and  C_9 
REMARK    4  A    between atoms: O_8  and  C_9 
ROOT
HETATM    1  C   UNL     1      63.334   8.029   3.650  1.00  0.00    -0.024 A 
HETATM    2  C   UNL     1      63.841   8.827   4.701  1.00  0.00    -0.027 A 
HETATM    3  C   UNL     1      64.064   6.893   3.240  1.00  0.00     0.009 A 
HETATM    4  C   UNL     1      65.107   8.522   5.233  1.00  0.00     0.010 A 
HETATM    5  C   UNL     1      65.298   6.589   3.812  1.00  0.00     0.001 A 
HETATM    6  C   UNL     1      65.831   7.414   4.793  1.00  0.00     0.001 A 
ENDROOT
BRANCH   1   7
HETATM    7  C   UNL     1      62.032   8.341   2.922  1.00  0.00     0.274 C 
BRANCH   7   8
HETATM    8  N   UNL     1      61.472   7.183   2.211  1.00  0.00    -0.063 N 
HETATM    9  C   UNL     1      60.301   6.581   2.892  1.00  0.00     0.261 C 
HETATM   10  C   UNL     1      58.977   7.340   2.697  1.00  0.00     0.195 C 
HETATM   11  O   UNL     1      58.691   7.542   1.308  1.00  0.00    -0.388 OA
HETATM   12  C   UNL     1      59.757   8.262   0.679  1.00  0.00     0.195 C 
HETATM   13  C   UNL     1      61.095   7.517   0.822  1.00  0.00     0.261 C 
HETATM   14  H   UNL     1      62.224   6.493   2.208  1.00  0.00     0.280 HD
ENDBRANCH   7   8
ENDBRANCH   1   7
BRANCH   2  15
HETATM   15  C   UNL     1      63.095  10.041   5.214  1.00  0.00     0.203 C 
BRANCH  15  16
HETATM   16  O   UNL     1      63.981  10.962   5.859  1.00  0.00    -0.396 OA
HETATM   17  H   UNL     1      64.899  10.683   5.713  1.00  0.00     0.209 HD
ENDBRANCH  15  16
ENDBRANCH   2  15
TORSDOF 4
ENDMDL
MODEL 7
REMARK VINA RESULT:      -4.3      2.361      6.208
REMARK  4 active torsions:
REMARK  status: ('A' for Active; 'I' for Inactive)
REMARK    1  A    between atoms: N_1  and  C_3 
REMARK    2  A    between atoms: C_2  and  C_3 
REMARK    3  A    between atoms: C_4  and  C_9 
REMARK    4  A    between atoms: O_8  and  C_9 
ROOT
HETATM    1  C   UNL     1      66.185   6.252   6.599  1.00  0.00    -0.024 A 
HETATM    2  C   UNL     1      67.169   5.272   6.333  1.00  0.00    -0.027 A 
HETATM    3  C   UNL     1      66.203   6.919   7.841  1.00  0.00     0.009 A 
HETATM    4  C   UNL     1      68.070   4.922   7.354  1.00  0.00     0.010 A 
HETATM    5  C   UNL     1      67.133   6.582   8.824  1.00  0.00     0.001 A 
HETATM    6  C   UNL     1      68.054   5.570   8.589  1.00  0.00     0.001 A 
ENDROOT
BRANCH   1   7
HETATM    7  C   UNL     1      65.087   6.619   5.608  1.00  0.00     0.274 C 
BRANCH   7   8
HETATM    8  N   UNL     1      64.238   7.727   6.067  1.00  0.00    -0.063 N 
HETATM    9  C   UNL     1      64.220   8.882   5.138  1.00  0.00     0.261 C 
HETATM   10  C   UNL     1      63.322   8.707   3.902  1.00  0.00     0.195 C 
HETATM   11  O   UNL     1      61.985   8.352   4.274  1.00  0.00    -0.388 OA
HETATM   12  C   UNL     1      61.986   7.145   5.045  1.00  0.00     0.195 C 
HETATM   13  C   UNL     1      62.847   7.292   6.312  1.00  0.00     0.261 C 
HETATM   14  H   UNL     1      64.662   8.033   6.943  1.00  0.00     0.280 HD
ENDBRANCH   7   8
ENDBRANCH   1   7
BRANCH   2  15
HETATM   15  C   UNL     1      67.230   4.539   5.009  1.00  0.00     0.203 C 
BRANCH  15  16
HETATM   16  O   UNL     1      67.625   5.415   3.948  1.00  0.00    -0.396 OA
HETATM   17  H   UNL     1      68.436   5.077   3.535  1.00  0.00     0.209 HD
ENDBRANCH  15  16
ENDBRANCH   2  15
TORSDOF 4
ENDMDL
MODEL 8
REMARK VINA RESULT:      -4.3      3.041      4.321
REMARK  4 active torsions:
REMARK  status: ('A' for Active; 'I' for Inactive)
REMARK    1  A    between atoms: N_1  and  C_3 
REMARK    2  A    between atoms: C_2  and  C_3 
REMARK    3  A    between atoms: C_4  and  C_9 
REMARK    4  A    between atoms: O_8  and  C_9 
ROOT
HETATM    1  C   UNL     1      62.932   8.871   3.407  1.00  0.00    -0.024 A 
HETATM    2  C   UNL     1      63.519   9.209   4.648  1.00  0.00    -0.027 A 
HETATM    3  C   UNL     1      62.098   9.810   2.766  1.00  0.00     0.009 A 
HETATM    4  C   UNL     1      63.170  10.430   5.252  1.00  0.00     0.010 A 
HETATM    5  C   UNL     1      61.799  11.032   3.367  1.00  0.00     0.001 A 
HETATM    6  C   UNL     1      62.317  11.335   4.620  1.00  0.00     0.001 A 
ENDROOT
BRANCH   1   7
HETATM    7  C   UNL     1      63.146   7.525   2.724  1.00  0.00     0.274 C 
BRANCH   7   8
HETATM    8  N   UNL     1      62.424   6.423   3.374  1.00  0.00    -0.063 N 
HETATM    9  C   UNL     1      60.982   6.700   3.578  1.00  0.00     0.261 C 
HETATM   10  C   UNL     1      60.106   6.533   2.324  1.00  0.00     0.195 C 
HETATM   11  O   UNL     1      60.282   5.241   1.732  1.00  0.00    -0.388 OA
HETATM   12  C   UNL     1      61.657   5.031   1.392  1.00  0.00     0.195 C 
HETATM   13  C   UNL     1      62.564   5.154   2.628  1.00  0.00     0.261 C 
HETATM   14  H   UNL     1      62.861   6.332   4.292  1.00  0.00     0.280 HD
ENDBRANCH   7   8
ENDBRANCH   1   7
BRANCH   2  15
HETATM   15  C   UNL     1      64.450   8.263   5.376  1.00  0.00     0.203 C 
BRANCH  15  16
HETATM   16  O   UNL     1      65.538   8.967   5.983  1.00  0.00    -0.396 OA
HETATM   17  H   UNL     1      65.198   9.541   6.688  1.00  0.00     0.209 HD
ENDBRANCH  15  16
ENDBRANCH   2  15
TORSDOF 4
ENDMDL
MODEL 9
REMARK VINA RESULT:      -4.2      3.050      4.100
REMARK  4 active torsions:
REMARK  status: ('A' for Active; 'I' for Inactive)
REMARK    1  A    between atoms: N_1  and  C_3 
REMARK    2  A    between atoms: C_2  and  C_3 
REMARK    3  A    between atoms: C_4  and  C_9 
REMARK    4  A    between atoms: O_8  and  C_9 
ROOT
HETATM    1  C   UNL     1      63.117   8.817   3.788  1.00  0.00    -0.024 A 
HETATM    2  C   UNL     1      62.281   9.539   2.906  1.00  0.00    -0.027 A 
HETATM    3  C   UNL     1      63.434   9.377   5.043  1.00  0.00     0.009 A 
HETATM    4  C   UNL     1      61.876  10.837   3.267  1.00  0.00     0.010 A 
HETATM    5  C   UNL     1      62.987  10.650   5.395  1.00  0.00     0.001 A 
HETATM    6  C   UNL     1      62.226  11.390   4.499  1.00  0.00     0.001 A 
ENDROOT
BRANCH   1   7
HETATM    7  C   UNL     1      63.710   7.456   3.445  1.00  0.00     0.274 C 
BRANCH   7   8
HETATM    8  N   UNL     1      63.148   6.359   4.244  1.00  0.00    -0.063 N 
HETATM    9  C   UNL     1      61.759   6.004   3.866  1.00  0.00     0.261 C 
HETATM   10  C   UNL     1      61.631   5.144   2.598  1.00  0.00     0.195 C 
HETATM   11  O   UNL     1      62.436   3.962   2.685  1.00  0.00    -0.388 OA
HETATM   12  C   UNL     1      63.809   4.309   2.897  1.00  0.00     0.195 C 
HETATM   13  C   UNL     1      63.984   5.142   4.179  1.00  0.00     0.261 C 
HETATM   14  H   UNL     1      63.134   6.716   5.200  1.00  0.00     0.280 HD
ENDBRANCH   7   8
ENDBRANCH   1   7
BRANCH   2  15
HETATM   15  C   UNL     1      61.873   8.985   1.558  1.00  0.00     0.203 C 
BRANCH  15  16
HETATM   16  O   UNL     1      60.450   8.948   1.419  1.00  0.00    -0.396 OA
HETATM   17  H   UNL     1      60.144   8.028   1.465  1.00  0.00     0.209 HD
ENDBRANCH  15  16
ENDBRANCH   2  15
TORSDOF 4
ENDMDL
