MODEL 1
REMARK VINA RESULT:      -4.7      0.000      0.000
REMARK  3 active torsions:
REMARK  status: ('A' for Active; 'I' for Inactive)
REMARK    1  A    between atoms: C_1  and  C_3 
REMARK    2  A    between atoms: C_11  and  C_13 
REMARK    3  A    between atoms: N_12  and  C_13 
ROOT
HETATM    1  C   UNL     1      64.095   8.076   4.890  1.00  0.00    -0.025 A 
HETATM    2  C   UNL     1      63.510   9.329   5.114  1.00  0.00     0.013 A 
HETATM    3  C   UNL     1      63.842   7.428   3.674  1.00  0.00     0.013 A 
HETATM    4  C   UNL     1      63.027   8.021   2.701  1.00  0.00     0.010 A 
HETATM    5  C   UNL     1      62.699   9.923   4.141  1.00  0.00     0.010 A 
HETATM    6  C   UNL     1      62.450   9.276   2.924  1.00  0.00    -0.033 A 
ENDROOT
BRANCH   1   7
HETATM    7  C   UNL     1      64.979   7.486   5.899  1.00  0.00    -0.019 A 
HETATM    8  C   UNL     1      64.628   6.371   6.637  1.00  0.00     0.061 A 
HETATM    9  S   UNL     1      65.853   5.885   7.732  1.00  0.00    -0.113 SA
HETATM   10  C   UNL     1      66.868   7.169   7.250  1.00  0.00     0.050 A 
HETATM   11  C   UNL     1      66.287   7.946   6.273  1.00  0.00     0.020 A 
ENDBRANCH   1   7
BRANCH   6  12
HETATM   12  C   UNL     1      61.596   9.931   1.869  1.00  0.00     0.268 C 
BRANCH  12  13
HETATM   13  N   UNL     1      61.474  11.367   2.095  1.00  0.00    -0.075 N 
HETATM   14  H   UNL     1      60.491  11.609   2.219  1.00  0.00     0.274 HD
HETATM   15  H   UNL     1      61.850  11.870   1.291  1.00  0.00     0.274 HD
HETATM   16  H   UNL     1      61.996  11.625   2.933  1.00  0.00     0.274 HD
ENDBRANCH  12  13
ENDBRANCH   6  12
TORSDOF 3
ENDMDL
MODEL 2
REMARK VINA RESULT:      -4.5      3.708      5.828
REMARK  3 active torsions:
REMARK  status: ('A' for Active; 'I' for Inactive)
REMARK    1  A    between atoms: C_1  and  C_3 
REMARK    2  A    between atoms: C_11  and  C_13 
REMARK    3  A    between atoms: N_12  and  C_13 
ROOT
HETATM    1  C   UNL     1      64.636   7.958   5.390  1.00  0.00    -0.025 A 
HETATM    2  C   UNL     1      66.004   8.130   5.141  1.00  0.00     0.013 A 
HETATM    3  C   UNL     1      64.246   7.025   6.361  1.00  0.00     0.013 A 
HETATM    4  C   UNL     1      65.201   6.285   7.069  1.00  0.00     0.010 A 
HETATM    5  C   UNL     1      66.958   7.394   5.851  1.00  0.00     0.010 A 
HETATM    6  C   UNL     1      66.566   6.464   6.823  1.00  0.00    -0.033 A 
ENDROOT
BRANCH   1   7
HETATM    7  C   UNL     1      63.650   8.769   4.671  1.00  0.00    -0.019 A 
HETATM    8  C   UNL     1      63.167   8.423   3.423  1.00  0.00     0.061 A 
HETATM    9  S   UNL     1      62.014   9.538   2.822  1.00  0.00    -0.113 SA
HETATM   10  C   UNL     1      62.153  10.513   4.215  1.00  0.00     0.050 A 
HETATM   11  C   UNL     1      63.054   9.997   5.118  1.00  0.00     0.020 A 
ENDBRANCH   1   7
BRANCH   6  12
HETATM   12  C   UNL     1      67.599   5.691   7.603  1.00  0.00     0.268 C 
BRANCH  12  13
HETATM   13  N   UNL     1      68.072   6.445   8.758  1.00  0.00    -0.075 N 
HETATM   14  H   UNL     1      68.093   5.837   9.576  1.00  0.00     0.274 HD
HETATM   15  H   UNL     1      67.442   7.229   8.933  1.00  0.00     0.274 HD
HETATM   16  H   UNL     1      69.011   6.798   8.573  1.00  0.00     0.274 HD
ENDBRANCH  12  13
ENDBRANCH   6  12
TORSDOF 3
ENDMDL
MODEL 3
REMARK VINA RESULT:      -4.4      0.867      1.592
REMARK  3 active torsions:
REMARK  status: ('A' for Active; 'I' for Inactive)
REMARK    1  A    between atoms: C_1  and  C_3 
REMARK    2  A    between atoms: C_11  and  C_13 
REMARK    3  A    between atoms: N_12  and  C_13 
ROOT
HETATM    1  C   UNL     1      64.631   7.758   4.748  1.00  0.00    -0.025 A 
HETATM    2  C   UNL     1      64.248   7.077   3.585  1.00  0.00     0.013 A 
HETATM    3  C   UNL     1      63.984   8.962   5.061  1.00  0.00     0.013 A 
HETATM    4  C   UNL     1      62.976   9.470   4.233  1.00  0.00     0.010 A 
HETATM    5  C   UNL     1      63.238   7.582   2.761  1.00  0.00     0.010 A 
HETATM    6  C   UNL     1      62.591   8.784   3.076  1.00  0.00    -0.033 A 
ENDROOT
BRANCH   1   7
HETATM    7  C   UNL     1      65.659   7.194   5.627  1.00  0.00    -0.019 A 
HETATM    8  C   UNL     1      65.395   6.800   6.926  1.00  0.00     0.061 A 
HETATM    9  S   UNL     1      66.772   6.162   7.721  1.00  0.00    -0.113 SA
HETATM   10  C   UNL     1      67.750   6.418   6.346  1.00  0.00     0.050 A 
HETATM   11  C   UNL     1      67.041   6.973   5.305  1.00  0.00     0.020 A 
ENDBRANCH   1   7
BRANCH   6  12
HETATM   12  C   UNL     1      61.485   9.311   2.198  1.00  0.00     0.268 C 
BRANCH  12  13
HETATM   13  N   UNL     1      61.507  10.768   2.126  1.00  0.00    -0.075 N 
HETATM   14  H   UNL     1      60.713  11.146   2.643  1.00  0.00     0.274 HD
HETATM   15  H   UNL     1      61.448  11.060   1.151  1.00  0.00     0.274 HD
HETATM   16  H   UNL     1      62.375  11.116   2.534  1.00  0.00     0.274 HD
ENDBRANCH  12  13
ENDBRANCH   6  12
TORSDOF 3
ENDMDL
MODEL 4
REMARK VINA RESULT:      -4.4      3.469      5.511
REMARK  3 active torsions:
REMARK  status: ('A' for Active; 'I' for Inactive)
REMARK    1  A    between atoms: C_1  and  C_3 
REMARK    2  A    between atoms: C_11  and  C_13 
REMARK    3  A    between atoms: N_12  and  C_13 
ROOT
HETATM    1  C   UNL     1      63.501   7.801   3.401  1.00  0.00    -0.025 A 
HETATM    2  C   UNL     1      63.717   8.759   4.401  1.00  0.00     0.013 A 
HETATM    3  C   UNL     1      64.434   6.765   3.256  1.00  0.00     0.013 A 
HETATM    4  C   UNL     1      65.554   6.686   4.093  1.00  0.00     0.010 A 
HETATM    5  C   UNL     1      64.833   8.677   5.239  1.00  0.00     0.010 A 
HETATM    6  C   UNL     1      65.763   7.640   5.095  1.00  0.00    -0.033 A 
ENDROOT
BRANCH   1   7
HETATM    7  C   UNL     1      62.303   7.872   2.560  1.00  0.00    -0.019 A 
HETATM    8  C   UNL     1      61.110   7.270   2.910  1.00  0.00     0.061 A 
HETATM    9  S   UNL     1      59.871   7.525   1.754  1.00  0.00    -0.113 SA
HETATM   10  C   UNL     1      60.916   8.432   0.756  1.00  0.00     0.050 A 
HETATM   11  C   UNL     1      62.178   8.541   1.295  1.00  0.00     0.020 A 
ENDBRANCH   1   7
BRANCH   6  12
HETATM   12  C   UNL     1      66.952   7.542   6.017  1.00  0.00     0.268 C 
BRANCH  12  13
HETATM   13  N   UNL     1      66.901   8.555   7.064  1.00  0.00    -0.075 N 
HETATM   14  H   UNL     1      66.891   8.101   7.977  1.00  0.00     0.274 HD
HETATM   15  H   UNL     1      66.055   9.115   6.954  1.00  0.00     0.274 HD
HETATM   16  H   UNL     1      67.720   9.159   6.994  1.00  0.00     0.274 HD
ENDBRANCH  12  13
ENDBRANCH   6  12
TORSDOF 3
ENDMDL
MODEL 5
REMARK VINA RESULT:      -4.3      3.705      5.940
REMARK  3 active torsions:
REMARK  status: ('A' for Active; 'I' for Inactive)
REMARK    1  A    between atoms: C_1  and  C_3 
REMARK    2  A    between atoms: C_11  and  C_13 
REMARK    3  A    between atoms: N_12  and  C_13 
ROOT
HETATM    1  C   UNL     1      64.928   7.796   5.395  1.00  0.00    -0.025 A 
HETATM    2  C   UNL     1      64.581   6.982   6.482  1.00  0.00     0.013 A 
HETATM    3  C   UNL     1      66.284   7.928   5.066  1.00  0.00     0.013 A 
HETATM    4  C   UNL     1      67.269   7.259   5.802  1.00  0.00     0.010 A 
HETATM    5  C   UNL     1      65.565   6.311   7.215  1.00  0.00     0.010 A 
HETATM    6  C   UNL     1      66.920   6.442   6.883  1.00  0.00    -0.033 A 
ENDROOT
BRANCH   1   7
HETATM    7  C   UNL     1      63.884   8.457   4.608  1.00  0.00    -0.019 A 
HETATM    8  C   UNL     1      63.250   9.611   5.029  1.00  0.00     0.061 A 
HETATM    9  S   UNL     1      62.084  10.177   3.910  1.00  0.00    -0.113 SA
HETATM   10  C   UNL     1      62.395   8.878   2.848  1.00  0.00     0.050 A 
HETATM   11  C   UNL     1      63.369   8.036   3.335  1.00  0.00     0.020 A 
ENDBRANCH   1   7
BRANCH   6  12
HETATM   12  C   UNL     1      67.974   5.696   7.660  1.00  0.00     0.268 C 
BRANCH  12  13
HETATM   13  N   UNL     1      67.385   4.883   8.718  1.00  0.00    -0.075 N 
HETATM   14  H   UNL     1      66.915   5.490   9.390  1.00  0.00     0.274 HD
HETATM   15  H   UNL     1      68.119   4.356   9.190  1.00  0.00     0.274 HD
HETATM   16  H   UNL     1      66.708   4.236   8.313  1.00  0.00     0.274 HD
ENDBRANCH  12  13
ENDBRANCH   6  12
TORSDOF 3
ENDMDL
MODEL 6
REMARK VINA RESULT:      -3.9      3.216      4.539
REMARK  3 active torsions:
REMARK  status: ('A' for Active; 'I' for Inactive)
REMARK    1  A    between atoms: C_1  and  C_3 
REMARK    2  A    between atoms: C_11  and  C_13 
REMARK    3  A    between atoms: N_12  and  C_13 
ROOT
HETATM    1  C   UNL     1      62.933   7.175   1.916  1.00  0.00    -0.025 A 
HETATM    2  C   UNL     1      62.352   8.036   0.975  1.00  0.00     0.013 A 
HETATM    3  C   UNL     1      63.158   7.657   3.212  1.00  0.00     0.013 A 
HETATM    4  C   UNL     1      62.806   8.967   3.561  1.00  0.00     0.010 A 
HETATM    5  C   UNL     1      61.997   9.342   1.324  1.00  0.00     0.010 A 
HETATM    6  C   UNL     1      62.220   9.822   2.622  1.00  0.00    -0.033 A 
ENDROOT
BRANCH   1   7
HETATM    7  C   UNL     1      63.258   5.794   1.549  1.00  0.00    -0.019 A 
HETATM    8  C   UNL     1      64.437   5.181   1.926  1.00  0.00     0.061 A 
HETATM    9  S   UNL     1      64.552   3.562   1.376  1.00  0.00    -0.113 SA
HETATM   10  C   UNL     1      63.031   3.660   0.608  1.00  0.00     0.050 A 
HETATM   11  C   UNL     1      62.449   4.897   0.772  1.00  0.00     0.020 A 
ENDBRANCH   1   7
BRANCH   6  12
HETATM   12  C   UNL     1      61.812  11.223   3.000  1.00  0.00     0.268 C 
BRANCH  12  13
HETATM   13  N   UNL     1      61.798  12.108   1.842  1.00  0.00    -0.075 N 
HETATM   14  H   UNL     1      62.689  12.600   1.779  1.00  0.00     0.274 HD
HETATM   15  H   UNL     1      61.042  12.786   1.941  1.00  0.00     0.274 HD
HETATM   16  H   UNL     1      61.652  11.558   0.995  1.00  0.00     0.274 HD
ENDBRANCH  12  13
ENDBRANCH   6  12
TORSDOF 3
ENDMDL
MODEL 7
REMARK VINA RESULT:      -3.8     11.262     12.636
REMARK  3 active torsions:
REMARK  status: ('A' for Active; 'I' for Inactive)
REMARK    1  A    between atoms: C_1  and  C_3 
REMARK    2  A    between atoms: C_11  and  C_13 
REMARK    3  A    between atoms: N_12  and  C_13 
ROOT
HETATM    1  C   UNL     1      60.240  -0.102  12.693  1.00  0.00    -0.025 A 
HETATM    2  C   UNL     1      59.752   1.194  12.911  1.00  0.00     0.013 A 
HETATM    3  C   UNL     1      59.399  -1.188  12.972  1.00  0.00     0.013 A 
HETATM    4  C   UNL     1      58.100  -0.984  13.453  1.00  0.00     0.010 A 
HETATM    5  C   UNL     1      58.454   1.397  13.388  1.00  0.00     0.010 A 
HETATM    6  C   UNL     1      57.614   0.311  13.664  1.00  0.00    -0.033 A 
ENDROOT
BRANCH   1   7
HETATM    7  C   UNL     1      61.586  -0.300  12.149  1.00  0.00    -0.019 A 
HETATM    8  C   UNL     1      61.865  -0.211  10.798  1.00  0.00     0.061 A 
HETATM    9  S   UNL     1      63.521  -0.471  10.442  1.00  0.00    -0.113 SA
HETATM   10  C   UNL     1      63.891  -0.723  12.088  1.00  0.00     0.050 A 
HETATM   11  C   UNL     1      62.778  -0.607  12.890  1.00  0.00     0.020 A 
ENDBRANCH   1   7
BRANCH   6  12
HETATM   12  C   UNL     1      56.206   0.536  14.154  1.00  0.00     0.268 C 
BRANCH  12  13
HETATM   13  N   UNL     1      55.944   1.950  14.398  1.00  0.00    -0.075 N 
HETATM   14  H   UNL     1      55.752   2.093  15.389  1.00  0.00     0.274 HD
HETATM   15  H   UNL     1      55.137   2.246  13.849  1.00  0.00     0.274 HD
HETATM   16  H   UNL     1      56.761   2.499  14.128  1.00  0.00     0.274 HD
ENDBRANCH  12  13
ENDBRANCH   6  12
TORSDOF 3
ENDMDL
MODEL 8
REMARK VINA RESULT:      -3.7     11.227     12.339
REMARK  3 active torsions:
REMARK  status: ('A' for Active; 'I' for Inactive)
REMARK    1  A    between atoms: C_1  and  C_3 
REMARK    2  A    between atoms: C_11  and  C_13 
REMARK    3  A    between atoms: N_12  and  C_13 
ROOT
HETATM    1  C   UNL     1      58.961   0.982  12.343  1.00  0.00    -0.025 A 
HETATM    2  C   UNL     1      58.290   0.496  13.474  1.00  0.00     0.013 A 
HETATM    3  C   UNL     1      58.417   2.081  11.665  1.00  0.00     0.013 A 
HETATM    4  C   UNL     1      57.234   2.684  12.110  1.00  0.00     0.010 A 
HETATM    5  C   UNL     1      57.111   1.100  13.920  1.00  0.00     0.010 A 
HETATM    6  C   UNL     1      56.570   2.201  13.243  1.00  0.00    -0.033 A 
ENDROOT
BRANCH   1   7
HETATM    7  C   UNL     1      60.220   0.368  11.913  1.00  0.00    -0.019 A 
HETATM    8  C   UNL     1      60.581   0.259  10.583  1.00  0.00     0.061 A 
HETATM    9  S   UNL     1      62.109  -0.484  10.366  1.00  0.00    -0.113 SA
HETATM   10  C   UNL     1      62.307  -0.690  12.049  1.00  0.00     0.050 A 
HETATM   11  C   UNL     1      61.234  -0.198  12.758  1.00  0.00     0.020 A 
ENDBRANCH   1   7
BRANCH   6  12
HETATM   12  C   UNL     1      55.312   2.865  13.742  1.00  0.00     0.268 C 
BRANCH  12  13
HETATM   13  N   UNL     1      54.801   2.209  14.940  1.00  0.00    -0.075 N 
HETATM   14  H   UNL     1      55.459   2.342  15.708  1.00  0.00     0.274 HD
HETATM   15  H   UNL     1      54.687   1.211  14.759  1.00  0.00     0.274 HD
HETATM   16  H   UNL     1      53.899   2.614  15.192  1.00  0.00     0.274 HD
ENDBRANCH  12  13
ENDBRANCH   6  12
TORSDOF 3
ENDMDL
MODEL 9
REMARK VINA RESULT:      -3.7      4.393      6.173
REMARK  3 active torsions:
REMARK  status: ('A' for Active; 'I' for Inactive)
REMARK    1  A    between atoms: C_1  and  C_3 
REMARK    2  A    between atoms: C_11  and  C_13 
REMARK    3  A    between atoms: N_12  and  C_13 
ROOT
HETATM    1  C   UNL     1      60.727   7.775   3.641  1.00  0.00    -0.025 A 
HETATM    2  C   UNL     1      61.270   7.070   4.724  1.00  0.00     0.013 A 
HETATM    3  C   UNL     1      61.499   8.780   3.043  1.00  0.00     0.013 A 
HETATM    4  C   UNL     1      62.785   9.071   3.514  1.00  0.00     0.010 A 
HETATM    5  C   UNL     1      62.556   7.359   5.191  1.00  0.00     0.010 A 
HETATM    6  C   UNL     1      63.328   8.362   4.591  1.00  0.00    -0.033 A 
ENDROOT
BRANCH   1   7
HETATM    7  C   UNL     1      59.396   7.431   3.133  1.00  0.00    -0.019 A 
HETATM    8  C   UNL     1      59.157   7.152   1.801  1.00  0.00     0.061 A 
HETATM    9  S   UNL     1      57.518   6.767   1.485  1.00  0.00    -0.113 SA
HETATM   10  C   UNL     1      57.096   6.984   3.124  1.00  0.00     0.050 A 
HETATM   11  C   UNL     1      58.182   7.337   3.893  1.00  0.00     0.020 A 
ENDBRANCH   1   7
BRANCH   6  12
HETATM   12  C   UNL     1      64.723   8.652   5.082  1.00  0.00     0.268 C 
BRANCH  12  13
HETATM   13  N   UNL     1      65.056   7.850   6.253  1.00  0.00    -0.075 N 
HETATM   14  H   UNL     1      66.007   7.493   6.162  1.00  0.00     0.274 HD
HETATM   15  H   UNL     1      64.405   7.068   6.325  1.00  0.00     0.274 HD
HETATM   16  H   UNL     1      64.989   8.427   7.092  1.00  0.00     0.274 HD
ENDBRANCH  12  13
ENDBRANCH   6  12
TORSDOF 3
ENDMDL
