MODEL 1
REMARK VINA RESULT:      -4.8      0.000      0.000
REMARK  2 active torsions:
REMARK  status: ('A' for Active; 'I' for Inactive)
REMARK    1  A    between atoms: C_1  and  C_2 
REMARK    2  A    between atoms: C_8  and  N_9 
ROOT
HETATM    1  C   UNL     1      63.273   9.123   4.496  1.00  0.00    -0.023 A 
HETATM    2  C   UNL     1      62.890   8.788   3.186  1.00  0.00     0.041 A 
HETATM    3  C   UNL     1      62.104   9.651   2.412  1.00  0.00     0.026 A 
HETATM    4  C   UNL     1      62.885  10.369   5.008  1.00  0.00     0.012 A 
HETATM    5  C   UNL     1      62.145  11.258   4.225  1.00  0.00     0.003 A 
HETATM    6  C   UNL     1      61.776  10.905   2.927  1.00  0.00     0.029 A 
ENDROOT
BRANCH   1   7
HETATM    7  C   UNL     1      64.053   8.201   5.327  1.00  0.00    -0.019 A 
HETATM    8  C   UNL     1      65.428   8.300   5.463  1.00  0.00     0.061 A 
HETATM    9  S   UNL     1      66.088   7.094   6.483  1.00  0.00    -0.113 SA
HETATM   10  C   UNL     1      64.547   6.427   6.780  1.00  0.00     0.050 A 
HETATM   11  C   UNL     1      63.553   7.106   6.110  1.00  0.00     0.020 A 
ENDBRANCH   1   7
BRANCH   3  12
HETATM   12  N   UNL     1      61.851   9.355   1.066  1.00  0.00    -0.399 N 
HETATM   13  H   UNL     1      60.953   9.504   0.689  1.00  0.00     0.156 HD
HETATM   14  H   UNL     1      62.572   9.000   0.497  1.00  0.00     0.156 HD
ENDBRANCH   3  12
TORSDOF 2
ENDMDL
MODEL 2
REMARK VINA RESULT:      -4.7      2.479      3.058
REMARK  2 active torsions:
REMARK  status: ('A' for Active; 'I' for Inactive)
REMARK    1  A    between atoms: C_1  and  C_2 
REMARK    2  A    between atoms: C_8  and  N_9 
ROOT
HETATM    1  C   UNL     1      63.192   8.744   3.883  1.00  0.00    -0.023 A 
HETATM    2  C   UNL     1      63.507   9.454   5.054  1.00  0.00     0.041 A 
HETATM    3  C   UNL     1      63.039  10.758   5.266  1.00  0.00     0.026 A 
HETATM    4  C   UNL     1      62.356   9.352   2.937  1.00  0.00     0.012 A 
HETATM    5  C   UNL     1      61.841  10.630   3.163  1.00  0.00     0.003 A 
HETATM    6  C   UNL     1      62.167  11.318   4.332  1.00  0.00     0.029 A 
ENDROOT
BRANCH   1   7
HETATM    7  C   UNL     1      63.722   7.400   3.636  1.00  0.00    -0.019 A 
HETATM    8  C   UNL     1      64.440   6.694   4.587  1.00  0.00     0.061 A 
HETATM    9  S   UNL     1      64.948   5.155   4.036  1.00  0.00    -0.113 SA
HETATM   10  C   UNL     1      64.200   5.391   2.521  1.00  0.00     0.050 A 
HETATM   11  C   UNL     1      63.584   6.620   2.437  1.00  0.00     0.020 A 
ENDBRANCH   1   7
BRANCH   3  12
HETATM   12  N   UNL     1      63.254  11.391   6.497  1.00  0.00    -0.399 N 
HETATM   13  H   UNL     1      64.118  11.293   6.957  1.00  0.00     0.156 HD
HETATM   14  H   UNL     1      62.540  11.936   6.900  1.00  0.00     0.156 HD
ENDBRANCH   3  12
TORSDOF 2
ENDMDL
MODEL 3
REMARK VINA RESULT:      -4.6      1.428      2.400
REMARK  2 active torsions:
REMARK  status: ('A' for Active; 'I' for Inactive)
REMARK    1  A    between atoms: C_1  and  C_2 
REMARK    2  A    between atoms: C_8  and  N_9 
ROOT
HETATM    1  C   UNL     1      63.165   8.250   3.389  1.00  0.00    -0.023 A 
HETATM    2  C   UNL     1      62.649   9.556   3.387  1.00  0.00     0.041 A 
HETATM    3  C   UNL     1      61.978  10.075   2.272  1.00  0.00     0.026 A 
HETATM    4  C   UNL     1      62.958   7.448   2.259  1.00  0.00     0.012 A 
HETATM    5  C   UNL     1      62.245   7.938   1.163  1.00  0.00     0.003 A 
HETATM    6  C   UNL     1      61.742   9.238   1.182  1.00  0.00     0.029 A 
ENDROOT
BRANCH   1   7
HETATM    7  C   UNL     1      63.911   7.722   4.535  1.00  0.00    -0.019 A 
HETATM    8  C   UNL     1      63.503   6.601   5.239  1.00  0.00     0.061 A 
HETATM    9  S   UNL     1      64.551   6.206   6.534  1.00  0.00    -0.113 SA
HETATM   10  C   UNL     1      65.584   7.514   6.168  1.00  0.00     0.050 A 
HETATM   11  C   UNL     1      65.133   8.238   5.086  1.00  0.00     0.020 A 
ENDBRANCH   1   7
BRANCH   3  12
HETATM   12  N   UNL     1      61.356  11.329   2.345  1.00  0.00    -0.399 N 
HETATM   13  H   UNL     1      60.387  11.389   2.505  1.00  0.00     0.156 HD
HETATM   14  H   UNL     1      61.890  12.149   2.238  1.00  0.00     0.156 HD
ENDBRANCH   3  12
TORSDOF 2
ENDMDL
MODEL 4
REMARK VINA RESULT:      -4.5      2.221      2.642
REMARK  2 active torsions:
REMARK  status: ('A' for Active; 'I' for Inactive)
REMARK    1  A    between atoms: C_1  and  C_2 
REMARK    2  A    between atoms: C_8  and  N_9 
ROOT
HETATM    1  C   UNL     1      63.238   8.714   3.725  1.00  0.00    -0.023 A 
HETATM    2  C   UNL     1      62.511   9.476   2.795  1.00  0.00     0.041 A 
HETATM    3  C   UNL     1      61.963  10.719   3.137  1.00  0.00     0.026 A 
HETATM    4  C   UNL     1      63.444   9.243   5.006  1.00  0.00     0.012 A 
HETATM    5  C   UNL     1      62.946  10.504   5.341  1.00  0.00     0.003 A 
HETATM    6  C   UNL     1      62.227  11.243   4.403  1.00  0.00     0.029 A 
ENDROOT
BRANCH   1   7
HETATM    7  C   UNL     1      63.770   7.391   3.384  1.00  0.00    -0.019 A 
HETATM    8  C   UNL     1      63.144   6.545   2.484  1.00  0.00     0.061 A 
HETATM    9  S   UNL     1      63.971   5.060   2.275  1.00  0.00    -0.113 SA
HETATM   10  C   UNL     1      65.194   5.527   3.369  1.00  0.00     0.050 A 
HETATM   11  C   UNL     1      64.971   6.784   3.886  1.00  0.00     0.020 A 
ENDBRANCH   1   7
BRANCH   3  12
HETATM   12  N   UNL     1      61.361  11.518   2.156  1.00  0.00    -0.399 N 
HETATM   13  H   UNL     1      60.398  11.430   1.972  1.00  0.00     0.156 HD
HETATM   14  H   UNL     1      61.902  12.167   1.652  1.00  0.00     0.156 HD
ENDBRANCH   3  12
TORSDOF 2
ENDMDL
MODEL 5
REMARK VINA RESULT:      -4.4      3.022      5.132
REMARK  2 active torsions:
REMARK  status: ('A' for Active; 'I' for Inactive)
REMARK    1  A    between atoms: C_1  and  C_2 
REMARK    2  A    between atoms: C_8  and  N_9 
ROOT
HETATM    1  C   UNL     1      64.105   8.160   5.203  1.00  0.00    -0.023 A 
HETATM    2  C   UNL     1      65.461   8.477   5.385  1.00  0.00     0.041 A 
HETATM    3  C   UNL     1      66.268   7.751   6.271  1.00  0.00     0.026 A 
HETATM    4  C   UNL     1      63.575   7.065   5.899  1.00  0.00     0.012 A 
HETATM    5  C   UNL     1      64.384   6.303   6.743  1.00  0.00     0.003 A 
HETATM    6  C   UNL     1      65.728   6.635   6.910  1.00  0.00     0.029 A 
ENDROOT
BRANCH   1   7
HETATM    7  C   UNL     1      63.246   8.949   4.315  1.00  0.00    -0.019 A 
HETATM    8  C   UNL     1      62.875   8.513   3.054  1.00  0.00     0.061 A 
HETATM    9  S   UNL     1      61.876   9.630   2.226  1.00  0.00    -0.113 SA
HETATM   10  C   UNL     1      61.901  10.711   3.545  1.00  0.00     0.050 A 
HETATM   11  C   UNL     1      62.660  10.232   4.589  1.00  0.00     0.020 A 
ENDBRANCH   1   7
BRANCH   3  12
HETATM   12  N   UNL     1      67.646   7.999   6.332  1.00  0.00    -0.399 N 
HETATM   13  H   UNL     1      68.284   7.252   6.271  1.00  0.00     0.156 HD
HETATM   14  H   UNL     1      67.975   8.921   6.436  1.00  0.00     0.156 HD
ENDBRANCH   3  12
TORSDOF 2
ENDMDL
MODEL 6
REMARK VINA RESULT:      -4.4      1.616      2.330
REMARK  2 active torsions:
REMARK  status: ('A' for Active; 'I' for Inactive)
REMARK    1  A    between atoms: C_1  and  C_2 
REMARK    2  A    between atoms: C_8  and  N_9 
ROOT
HETATM    1  C   UNL     1      63.646   8.657   4.766  1.00  0.00    -0.023 A 
HETATM    2  C   UNL     1      63.333   9.984   5.104  1.00  0.00     0.041 A 
HETATM    3  C   UNL     1      62.517  10.774   4.284  1.00  0.00     0.026 A 
HETATM    4  C   UNL     1      63.089   8.115   3.600  1.00  0.00     0.012 A 
HETATM    5  C   UNL     1      62.233   8.876   2.803  1.00  0.00     0.003 A 
HETATM    6  C   UNL     1      61.935  10.192   3.157  1.00  0.00     0.029 A 
ENDROOT
BRANCH   1   7
HETATM    7  C   UNL     1      64.540   7.845   5.598  1.00  0.00    -0.019 A 
HETATM    8  C   UNL     1      64.137   6.660   6.190  1.00  0.00     0.061 A 
HETATM    9  S   UNL     1      65.374   5.917   7.112  1.00  0.00    -0.113 SA
HETATM   10  C   UNL     1      66.481   7.155   6.722  1.00  0.00     0.050 A 
HETATM   11  C   UNL     1      65.916   8.115   5.912  1.00  0.00     0.020 A 
ENDBRANCH   1   7
BRANCH   3  12
HETATM   12  N   UNL     1      62.110  12.045   4.709  1.00  0.00    -0.399 N 
HETATM   13  H   UNL     1      62.352  12.841   4.184  1.00  0.00     0.156 HD
HETATM   14  H   UNL     1      61.580  12.140   5.533  1.00  0.00     0.156 HD
ENDBRANCH   3  12
TORSDOF 2
ENDMDL
MODEL 7
REMARK VINA RESULT:      -4.1      3.139      5.038
REMARK  2 active torsions:
REMARK  status: ('A' for Active; 'I' for Inactive)
REMARK    1  A    between atoms: C_1  and  C_2 
REMARK    2  A    between atoms: C_8  and  N_9 
ROOT
HETATM    1  C   UNL     1      65.162   7.829   4.691  1.00  0.00    -0.023 A 
HETATM    2  C   UNL     1      65.719   6.802   3.909  1.00  0.00     0.041 A 
HETATM    3  C   UNL     1      66.929   6.190   4.262  1.00  0.00     0.026 A 
HETATM    4  C   UNL     1      65.823   8.207   5.867  1.00  0.00     0.012 A 
HETATM    5  C   UNL     1      67.002   7.567   6.255  1.00  0.00     0.003 A 
HETATM    6  C   UNL     1      67.538   6.551   5.464  1.00  0.00     0.029 A 
ENDROOT
BRANCH   1   7
HETATM    7  C   UNL     1      63.922   8.505   4.297  1.00  0.00    -0.019 A 
HETATM    8  C   UNL     1      63.154   8.089   3.223  1.00  0.00     0.061 A 
HETATM    9  S   UNL     1      61.764   9.059   2.979  1.00  0.00    -0.113 SA
HETATM   10  C   UNL     1      62.150  10.043   4.317  1.00  0.00     0.050 A 
HETATM   11  C   UNL     1      63.317   9.644   4.931  1.00  0.00     0.020 A 
ENDBRANCH   1   7
BRANCH   3  12
HETATM   12  N   UNL     1      67.392   5.081   3.543  1.00  0.00    -0.399 N 
HETATM   13  H   UNL     1      66.919   4.220   3.607  1.00  0.00     0.156 HD
HETATM   14  H   UNL     1      68.190   5.163   2.973  1.00  0.00     0.156 HD
ENDBRANCH   3  12
TORSDOF 2
ENDMDL
MODEL 8
REMARK VINA RESULT:      -4.1      4.030      6.697
REMARK  2 active torsions:
REMARK  status: ('A' for Active; 'I' for Inactive)
REMARK    1  A    between atoms: C_1  and  C_2 
REMARK    2  A    between atoms: C_8  and  N_9 
ROOT
HETATM    1  C   UNL     1      66.059   6.250   7.351  1.00  0.00    -0.023 A 
HETATM    2  C   UNL     1      66.041   4.845   7.326  1.00  0.00     0.041 A 
HETATM    3  C   UNL     1      66.925   4.090   8.108  1.00  0.00     0.026 A 
HETATM    4  C   UNL     1      66.958   6.892   8.213  1.00  0.00     0.012 A 
HETATM    5  C   UNL     1      67.806   6.148   9.035  1.00  0.00     0.003 A 
HETATM    6  C   UNL     1      67.773   4.754   8.995  1.00  0.00     0.029 A 
ENDROOT
BRANCH   1   7
HETATM    7  C   UNL     1      65.170   7.043   6.496  1.00  0.00    -0.019 A 
HETATM    8  C   UNL     1      63.804   6.826   6.436  1.00  0.00     0.061 A 
HETATM    9  S   UNL     1      63.005   7.886   5.354  1.00  0.00    -0.113 SA
HETATM   10  C   UNL     1      64.467   8.670   4.959  1.00  0.00     0.050 A 
HETATM   11  C   UNL     1      65.540   8.130   5.632  1.00  0.00     0.020 A 
ENDBRANCH   1   7
BRANCH   3  12
HETATM   12  N   UNL     1      66.796   2.696   8.169  1.00  0.00    -0.399 N 
HETATM   13  H   UNL     1      67.554   2.120   7.918  1.00  0.00     0.156 HD
HETATM   14  H   UNL     1      65.947   2.293   8.464  1.00  0.00     0.156 HD
ENDBRANCH   3  12
TORSDOF 2
ENDMDL
MODEL 9
REMARK VINA RESULT:      -4.1      3.407      5.530
REMARK  2 active torsions:
REMARK  status: ('A' for Active; 'I' for Inactive)
REMARK    1  A    between atoms: C_1  and  C_2 
REMARK    2  A    between atoms: C_8  and  N_9 
ROOT
HETATM    1  C   UNL     1      65.183   7.454   5.122  1.00  0.00    -0.023 A 
HETATM    2  C   UNL     1      65.164   7.213   6.506  1.00  0.00     0.041 A 
HETATM    3  C   UNL     1      66.197   6.510   7.140  1.00  0.00     0.026 A 
HETATM    4  C   UNL     1      66.287   7.010   4.382  1.00  0.00     0.012 A 
HETATM    5  C   UNL     1      67.346   6.355   5.012  1.00  0.00     0.003 A 
HETATM    6  C   UNL     1      67.307   6.126   6.387  1.00  0.00     0.029 A 
ENDROOT
BRANCH   1   7
HETATM    7  C   UNL     1      64.079   8.144   4.449  1.00  0.00    -0.019 A 
HETATM    8  C   UNL     1      63.492   9.290   4.961  1.00  0.00     0.061 A 
HETATM    9  S   UNL     1      62.222   9.887   3.981  1.00  0.00    -0.113 SA
HETATM   10  C   UNL     1      62.442   8.637   2.841  1.00  0.00     0.050 A 
HETATM   11  C   UNL     1      63.458   7.781   3.205  1.00  0.00     0.020 A 
ENDBRANCH   1   7
BRANCH   3  12
HETATM   12  N   UNL     1      66.222   6.402   8.536  1.00  0.00    -0.399 N 
HETATM   13  H   UNL     1      66.125   5.520   8.964  1.00  0.00     0.156 HD
HETATM   14  H   UNL     1      66.338   7.208   9.090  1.00  0.00     0.156 HD
ENDBRANCH   3  12
TORSDOF 2
ENDMDL
