MODEL 1
REMARK VINA RESULT:      -5.3      0.000      0.000
REMARK  3 active torsions:
REMARK  status: ('A' for Active; 'I' for Inactive)
REMARK    1  A    between atoms: C_1  and  C_3 
REMARK    2  A    between atoms: N_2  and  C_3 
REMARK    3  A    between atoms: C_4  and  N_6 
ROOT
HETATM    1  C   UNL     1      62.961   9.266   4.674  1.00  0.00    -0.006 A 
HETATM    2  C   UNL     1      62.789  10.612   5.053  1.00  0.00     0.033 A 
HETATM    3  C   UNL     1      62.618   8.883   3.356  1.00  0.00     0.011 A 
HETATM    4  C   UNL     1      62.141  11.486   4.168  1.00  0.00     0.029 A 
HETATM    5  C   UNL     1      62.045   9.786   2.463  1.00  0.00     0.001 A 
HETATM    6  C   UNL     1      61.780  11.086   2.881  1.00  0.00     0.002 A 
ENDROOT
BRANCH   1   7
HETATM    7  C   UNL     1      63.414   8.182   5.642  1.00  0.00     0.275 C 
BRANCH   7   8
HETATM    8  N   UNL     1      64.537   7.369   5.150  1.00  0.00    -0.063 N 
HETATM    9  C   UNL     1      65.821   8.098   5.128  1.00  0.00     0.261 C 
HETATM   10  C   UNL     1      66.522   8.207   6.491  1.00  0.00     0.195 C 
HETATM   11  O   UNL     1      66.720   6.916   7.074  1.00  0.00    -0.388 OA
HETATM   12  C   UNL     1      65.465   6.254   7.254  1.00  0.00     0.195 C 
HETATM   13  C   UNL     1      64.696   6.120   5.925  1.00  0.00     0.261 C 
HETATM   14  H   UNL     1      64.292   7.139   4.187  1.00  0.00     0.280 HD
ENDBRANCH   7   8
ENDBRANCH   1   7
BRANCH   2  15
HETATM   15  N   UNL     1      63.050  11.063   6.360  1.00  0.00    -0.399 N 
HETATM   16  H   UNL     1      62.632  10.612   7.129  1.00  0.00     0.156 HD
HETATM   17  H   UNL     1      63.651  11.828   6.505  1.00  0.00     0.156 HD
ENDBRANCH   2  15
TORSDOF 3
ENDMDL
MODEL 2
REMARK VINA RESULT:      -4.9      1.348      2.497
REMARK  3 active torsions:
REMARK  status: ('A' for Active; 'I' for Inactive)
REMARK    1  A    between atoms: C_1  and  C_3 
REMARK    2  A    between atoms: N_2  and  C_3 
REMARK    3  A    between atoms: C_4  and  N_6 
ROOT
HETATM    1  C   UNL     1      63.587   8.799   4.367  1.00  0.00    -0.006 A 
HETATM    2  C   UNL     1      62.827   8.715   3.184  1.00  0.00     0.033 A 
HETATM    3  C   UNL     1      63.402   9.918   5.213  1.00  0.00     0.011 A 
HETATM    4  C   UNL     1      62.038   9.811   2.808  1.00  0.00     0.029 A 
HETATM    5  C   UNL     1      62.553  10.965   4.859  1.00  0.00     0.001 A 
HETATM    6  C   UNL     1      61.889  10.923   3.637  1.00  0.00     0.002 A 
ENDROOT
BRANCH   1   7
HETATM    7  C   UNL     1      64.662   7.789   4.738  1.00  0.00     0.275 C 
BRANCH   7   8
HETATM    8  N   UNL     1      65.095   7.861   6.143  1.00  0.00    -0.063 N 
HETATM    9  C   UNL     1      64.760   6.652   6.921  1.00  0.00     0.261 C 
HETATM   10  C   UNL     1      65.713   5.466   6.709  1.00  0.00     0.195 C 
HETATM   11  O   UNL     1      67.068   5.839   6.973  1.00  0.00    -0.388 OA
HETATM   12  C   UNL     1      67.466   6.908   6.111  1.00  0.00     0.195 C 
HETATM   13  C   UNL     1      66.544   8.134   6.261  1.00  0.00     0.261 C 
HETATM   14  H   UNL     1      64.572   8.643   6.538  1.00  0.00     0.280 HD
ENDBRANCH   7   8
ENDBRANCH   1   7
BRANCH   2  15
HETATM   15  N   UNL     1      62.991   7.666   2.261  1.00  0.00    -0.399 N 
HETATM   16  H   UNL     1      63.890   7.440   1.926  1.00  0.00     0.156 HD
HETATM   17  H   UNL     1      62.208   7.158   1.949  1.00  0.00     0.156 HD
ENDBRANCH   2  15
TORSDOF 3
ENDMDL
MODEL 3
REMARK VINA RESULT:      -4.3      2.131      3.191
REMARK  3 active torsions:
REMARK  status: ('A' for Active; 'I' for Inactive)
REMARK    1  A    between atoms: C_1  and  C_3 
REMARK    2  A    between atoms: N_2  and  C_3 
REMARK    3  A    between atoms: C_4  and  N_6 
ROOT
HETATM    1  C   UNL     1      65.287   7.160   4.559  1.00  0.00    -0.006 A 
HETATM    2  C   UNL     1      64.431   8.276   4.644  1.00  0.00     0.033 A 
HETATM    3  C   UNL     1      65.098   6.240   3.500  1.00  0.00     0.011 A 
HETATM    4  C   UNL     1      63.331   8.353   3.777  1.00  0.00     0.029 A 
HETATM    5  C   UNL     1      64.043   6.375   2.599  1.00  0.00     0.001 A 
HETATM    6  C   UNL     1      63.140   7.421   2.757  1.00  0.00     0.002 A 
ENDROOT
BRANCH   1   7
HETATM    7  C   UNL     1      66.348   6.845   5.602  1.00  0.00     0.275 C 
BRANCH   7   8
HETATM    8  N   UNL     1      65.905   5.907   6.645  1.00  0.00    -0.063 N 
HETATM    9  C   UNL     1      66.775   4.720   6.772  1.00  0.00     0.261 C 
HETATM   10  C   UNL     1      68.072   4.955   7.561  1.00  0.00     0.195 C 
HETATM   11  O   UNL     1      67.797   5.481   8.862  1.00  0.00    -0.388 OA
HETATM   12  C   UNL     1      67.092   6.721   8.757  1.00  0.00     0.195 C 
HETATM   13  C   UNL     1      65.780   6.566   7.964  1.00  0.00     0.261 C 
HETATM   14  H   UNL     1      64.986   5.590   6.339  1.00  0.00     0.280 HD
ENDBRANCH   7   8
ENDBRANCH   1   7
BRANCH   2  15
HETATM   15  N   UNL     1      64.514   9.206   5.697  1.00  0.00    -0.399 N 
HETATM   16  H   UNL     1      65.053  10.023   5.591  1.00  0.00     0.156 HD
HETATM   17  H   UNL     1      64.034   9.039   6.539  1.00  0.00     0.156 HD
ENDBRANCH   2  15
TORSDOF 3
ENDMDL
MODEL 4
REMARK VINA RESULT:      -4.2      2.461      6.115
REMARK  3 active torsions:
REMARK  status: ('A' for Active; 'I' for Inactive)
REMARK    1  A    between atoms: C_1  and  C_3 
REMARK    2  A    between atoms: N_2  and  C_3 
REMARK    3  A    between atoms: C_4  and  N_6 
ROOT
HETATM    1  C   UNL     1      66.930   6.797   6.758  1.00  0.00    -0.006 A 
HETATM    2  C   UNL     1      67.524   5.584   6.358  1.00  0.00     0.033 A 
HETATM    3  C   UNL     1      66.958   7.145   8.129  1.00  0.00     0.011 A 
HETATM    4  C   UNL     1      67.977   4.695   7.343  1.00  0.00     0.029 A 
HETATM    5  C   UNL     1      67.484   6.281   9.088  1.00  0.00     0.001 A 
HETATM    6  C   UNL     1      67.970   5.038   8.694  1.00  0.00     0.002 A 
ENDROOT
BRANCH   1   7
HETATM    7  C   UNL     1      66.181   7.712   5.801  1.00  0.00     0.275 C 
BRANCH   7   8
HETATM    8  N   UNL     1      64.760   7.898   6.137  1.00  0.00    -0.063 N 
HETATM    9  C   UNL     1      64.052   8.799   5.206  1.00  0.00     0.261 C 
HETATM   10  C   UNL     1      63.633   8.151   3.877  1.00  0.00     0.195 C 
HETATM   11  O   UNL     1      62.839   6.983   4.101  1.00  0.00    -0.388 OA
HETATM   12  C   UNL     1      63.572   6.024   4.869  1.00  0.00     0.195 C 
HETATM   13  C   UNL     1      64.038   6.610   6.216  1.00  0.00     0.261 C 
HETATM   14  H   UNL     1      64.764   8.339   7.057  1.00  0.00     0.280 HD
ENDBRANCH   7   8
ENDBRANCH   1   7
BRANCH   2  15
HETATM   15  N   UNL     1      67.489   5.137   5.024  1.00  0.00    -0.399 N 
HETATM   16  H   UNL     1      68.326   4.912   4.558  1.00  0.00     0.156 HD
HETATM   17  H   UNL     1      66.627   5.050   4.556  1.00  0.00     0.156 HD
ENDBRANCH   2  15
TORSDOF 3
ENDMDL
MODEL 5
REMARK VINA RESULT:      -4.2      2.145      3.267
REMARK  3 active torsions:
REMARK  status: ('A' for Active; 'I' for Inactive)
REMARK    1  A    between atoms: C_1  and  C_3 
REMARK    2  A    between atoms: N_2  and  C_3 
REMARK    3  A    between atoms: C_4  and  N_6 
ROOT
HETATM    1  C   UNL     1      62.121   7.696   2.836  1.00  0.00    -0.006 A 
HETATM    2  C   UNL     1      60.792   7.231   2.892  1.00  0.00     0.033 A 
HETATM    3  C   UNL     1      62.498   8.543   1.767  1.00  0.00     0.011 A 
HETATM    4  C   UNL     1      59.938   7.493   1.811  1.00  0.00     0.029 A 
HETATM    5  C   UNL     1      61.610   8.856   0.739  1.00  0.00     0.001 A 
HETATM    6  C   UNL     1      60.333   8.305   0.749  1.00  0.00     0.002 A 
ENDROOT
BRANCH   1   7
HETATM    7  C   UNL     1      63.197   7.259   3.819  1.00  0.00     0.275 C 
BRANCH   7   8
HETATM    8  N   UNL     1      63.224   8.040   5.065  1.00  0.00    -0.063 N 
HETATM    9  C   UNL     1      63.123   7.206   6.280  1.00  0.00     0.261 C 
HETATM   10  C   UNL     1      64.433   6.523   6.702  1.00  0.00     0.195 C 
HETATM   11  O   UNL     1      65.483   7.480   6.870  1.00  0.00    -0.388 OA
HETATM   12  C   UNL     1      65.708   8.191   5.650  1.00  0.00     0.195 C 
HETATM   13  C   UNL     1      64.428   8.894   5.156  1.00  0.00     0.261 C 
HETATM   14  H   UNL     1      62.394   8.631   5.022  1.00  0.00     0.280 HD
ENDBRANCH   7   8
ENDBRANCH   1   7
BRANCH   2  15
HETATM   15  N   UNL     1      60.352   6.340   3.888  1.00  0.00    -0.399 N 
HETATM   16  H   UNL     1      60.891   5.548   4.114  1.00  0.00     0.156 HD
HETATM   17  H   UNL     1      59.503   6.508   4.358  1.00  0.00     0.156 HD
ENDBRANCH   2  15
TORSDOF 3
ENDMDL
MODEL 6
REMARK VINA RESULT:      -3.9      2.946      3.836
REMARK  3 active torsions:
REMARK  status: ('A' for Active; 'I' for Inactive)
REMARK    1  A    between atoms: C_1  and  C_3 
REMARK    2  A    between atoms: N_2  and  C_3 
REMARK    3  A    between atoms: C_4  and  N_6 
ROOT
HETATM    1  C   UNL     1      62.985   8.774   3.671  1.00  0.00    -0.006 A 
HETATM    2  C   UNL     1      63.417   9.286   4.910  1.00  0.00     0.033 A 
HETATM    3  C   UNL     1      62.239   9.617   2.813  1.00  0.00     0.011 A 
HETATM    4  C   UNL     1      62.963  10.549   5.316  1.00  0.00     0.029 A 
HETATM    5  C   UNL     1      61.862  10.901   3.202  1.00  0.00     0.001 A 
HETATM    6  C   UNL     1      62.202  11.357   4.471  1.00  0.00     0.002 A 
ENDROOT
BRANCH   1   7
HETATM    7  C   UNL     1      63.202   7.330   3.246  1.00  0.00     0.275 C 
BRANCH   7   8
HETATM    8  N   UNL     1      61.976   6.516   3.237  1.00  0.00    -0.063 N 
HETATM    9  C   UNL     1      61.674   5.929   1.916  1.00  0.00     0.261 C 
HETATM   10  C   UNL     1      62.488   4.672   1.569  1.00  0.00     0.195 C 
HETATM   11  O   UNL     1      62.342   3.669   2.578  1.00  0.00    -0.388 OA
HETATM   12  C   UNL     1      62.785   4.168   3.843  1.00  0.00     0.195 C 
HETATM   13  C   UNL     1      62.019   5.441   4.252  1.00  0.00     0.261 C 
HETATM   14  H   UNL     1      61.227   7.168   3.468  1.00  0.00     0.280 HD
ENDBRANCH   7   8
ENDBRANCH   1   7
BRANCH   2  15
HETATM   15  N   UNL     1      64.112   8.497   5.845  1.00  0.00    -0.399 N 
HETATM   16  H   UNL     1      64.231   7.533   5.685  1.00  0.00     0.156 HD
HETATM   17  H   UNL     1      64.480   8.909   6.660  1.00  0.00     0.156 HD
ENDBRANCH   2  15
TORSDOF 3
ENDMDL
MODEL 7
REMARK VINA RESULT:      -3.8     12.683     14.228
REMARK  3 active torsions:
REMARK  status: ('A' for Active; 'I' for Inactive)
REMARK    1  A    between atoms: C_1  and  C_3 
REMARK    2  A    between atoms: N_2  and  C_3 
REMARK    3  A    between atoms: C_4  and  N_6 
ROOT
HETATM    1  C   UNL     1      56.691   1.563  13.402  1.00  0.00    -0.006 A 
HETATM    2  C   UNL     1      57.181   2.137  12.212  1.00  0.00     0.033 A 
HETATM    3  C   UNL     1      57.618   1.165  14.394  1.00  0.00     0.011 A 
HETATM    4  C   UNL     1      58.565   2.148  11.987  1.00  0.00     0.029 A 
HETATM    5  C   UNL     1      58.993   1.255  14.183  1.00  0.00     0.001 A 
HETATM    6  C   UNL     1      59.467   1.723  12.962  1.00  0.00     0.002 A 
ENDROOT
BRANCH   1   7
HETATM    7  C   UNL     1      55.217   1.267  13.637  1.00  0.00     0.275 C 
BRANCH   7   8
HETATM    8  N   UNL     1      54.583   2.137  14.640  1.00  0.00    -0.063 N 
HETATM    9  C   UNL     1      54.674   3.574  14.310  1.00  0.00     0.261 C 
HETATM   10  C   UNL     1      53.654   4.061  13.270  1.00  0.00     0.195 C 
HETATM   11  O   UNL     1      52.317   3.752  13.674  1.00  0.00    -0.388 OA
HETATM   12  C   UNL     1      52.163   2.340  13.843  1.00  0.00     0.195 C 
HETATM   13  C   UNL     1      53.166   1.776  14.868  1.00  0.00     0.261 C 
HETATM   14  H   UNL     1      55.112   1.979  15.497  1.00  0.00     0.280 HD
ENDBRANCH   7   8
ENDBRANCH   1   7
BRANCH   2  15
HETATM   15  N   UNL     1      56.332   2.506  11.153  1.00  0.00    -0.399 N 
HETATM   16  H   UNL     1      56.680   3.046  10.407  1.00  0.00     0.156 HD
HETATM   17  H   UNL     1      55.388   2.225  11.158  1.00  0.00     0.156 HD
ENDBRANCH   2  15
TORSDOF 3
ENDMDL
MODEL 8
REMARK VINA RESULT:      -3.7      2.098      2.748
REMARK  3 active torsions:
REMARK  status: ('A' for Active; 'I' for Inactive)
REMARK    1  A    between atoms: C_1  and  C_3 
REMARK    2  A    between atoms: N_2  and  C_3 
REMARK    3  A    between atoms: C_4  and  N_6 
ROOT
HETATM    1  C   UNL     1      63.306   7.469   5.585  1.00  0.00    -0.006 A 
HETATM    2  C   UNL     1      62.025   6.935   5.345  1.00  0.00     0.033 A 
HETATM    3  C   UNL     1      63.748   8.553   4.791  1.00  0.00     0.011 A 
HETATM    4  C   UNL     1      61.300   7.389   4.233  1.00  0.00     0.029 A 
HETATM    5  C   UNL     1      62.980   9.043   3.737  1.00  0.00     0.001 A 
HETATM    6  C   UNL     1      61.763   8.438   3.440  1.00  0.00     0.002 A 
ENDROOT
BRANCH   1   7
HETATM    7  C   UNL     1      64.276   6.878   6.597  1.00  0.00     0.275 C 
BRANCH   7   8
HETATM    8  N   UNL     1      65.677   6.858   6.146  1.00  0.00    -0.063 N 
HETATM    9  C   UNL     1      66.600   7.544   7.072  1.00  0.00     0.261 C 
HETATM   10  C   UNL     1      67.005   6.719   8.304  1.00  0.00     0.195 C 
HETATM   11  O   UNL     1      67.567   5.462   7.920  1.00  0.00    -0.388 OA
HETATM   12  C   UNL     1      66.623   4.709   7.154  1.00  0.00     0.195 C 
HETATM   13  C   UNL     1      66.160   5.481   5.903  1.00  0.00     0.261 C 
HETATM   14  H   UNL     1      65.676   7.374   5.266  1.00  0.00     0.280 HD
ENDBRANCH   7   8
ENDBRANCH   1   7
BRANCH   2  15
HETATM   15  N   UNL     1      61.532   5.821   6.050  1.00  0.00    -0.399 N 
HETATM   16  H   UNL     1      61.558   5.810   7.034  1.00  0.00     0.156 HD
HETATM   17  H   UNL     1      61.163   5.052   5.559  1.00  0.00     0.156 HD
ENDBRANCH   2  15
TORSDOF 3
ENDMDL
MODEL 9
REMARK VINA RESULT:      -3.7      1.797      2.323
REMARK  3 active torsions:
REMARK  status: ('A' for Active; 'I' for Inactive)
REMARK    1  A    between atoms: C_1  and  C_3 
REMARK    2  A    between atoms: N_2  and  C_3 
REMARK    3  A    between atoms: C_4  and  N_6 
ROOT
HETATM    1  C   UNL     1      62.320   7.340   5.050  1.00  0.00    -0.006 A 
HETATM    2  C   UNL     1      62.129   8.478   4.242  1.00  0.00     0.033 A 
HETATM    3  C   UNL     1      61.442   6.242   4.893  1.00  0.00     0.011 A 
HETATM    4  C   UNL     1      60.990   8.545   3.427  1.00  0.00     0.029 A 
HETATM    5  C   UNL     1      60.357   6.297   4.020  1.00  0.00     0.001 A 
HETATM    6  C   UNL     1      60.115   7.466   3.305  1.00  0.00     0.002 A 
ENDROOT
BRANCH   1   7
HETATM    7  C   UNL     1      63.369   7.268   6.150  1.00  0.00     0.275 C 
BRANCH   7   8
HETATM    8  N   UNL     1      64.588   6.536   5.770  1.00  0.00    -0.063 N 
HETATM    9  C   UNL     1      65.671   7.416   5.287  1.00  0.00     0.261 C 
HETATM   10  C   UNL     1      66.466   8.125   6.395  1.00  0.00     0.195 C 
HETATM   11  O   UNL     1      67.001   7.184   7.329  1.00  0.00    -0.388 OA
HETATM   12  C   UNL     1      65.946   6.428   7.932  1.00  0.00     0.195 C 
HETATM   13  C   UNL     1      65.095   5.696   6.876  1.00  0.00     0.261 C 
HETATM   14  H   UNL     1      64.303   5.937   4.995  1.00  0.00     0.280 HD
ENDBRANCH   7   8
ENDBRANCH   1   7
BRANCH   2  15
HETATM   15  N   UNL     1      62.920   9.633   4.375  1.00  0.00    -0.399 N 
HETATM   16  H   UNL     1      62.494  10.520   4.417  1.00  0.00     0.156 HD
HETATM   17  H   UNL     1      63.900   9.555   4.427  1.00  0.00     0.156 HD
ENDBRANCH   2  15
TORSDOF 3
ENDMDL
