MODEL 1
REMARK VINA RESULT:      -5.4      0.000      0.000
REMARK  3 active torsions:
REMARK  status: ('A' for Active; 'I' for Inactive)
REMARK    1  A    between atoms: N_1  and  C_7 
REMARK    2  A    between atoms: C_4  and  C_8 
REMARK    3  A    between atoms: C_8  and  O_11 
ROOT
HETATM    1  N   UNL     1      62.813   8.108   4.690  1.00  0.00    -0.260 N 
HETATM    2  N   UNL     1      61.823   7.318   5.183  1.00  0.00    -0.298 N 
ATOM      3  HN  UNL     1      60.821   7.410   5.018  1.00  0.00     0.187 HD
HETATM    4  C   UNL     1      63.818   6.665   6.057  1.00  0.00     0.013 A 
HETATM    5  C   UNL     1      64.041   7.774   5.250  1.00  0.00     0.041 A 
HETATM    6  C   UNL     1      62.436   6.399   5.927  1.00  0.00     0.033 A 
HETATM    7  C   UNL     1      65.306   8.545   5.103  1.00  0.00     0.071 C 
HETATM    8  C   UNL     1      61.648   5.296   6.533  1.00  0.00     0.070 C 
ENDROOT
BRANCH   1   9
HETATM    9  C   UNL     1      62.476   9.111   3.741  1.00  0.00     0.056 A 
HETATM   10  C   UNL     1      62.196  10.409   4.200  1.00  0.00     0.031 A 
HETATM   11  C   UNL     1      61.883  11.423   3.296  1.00  0.00     0.002 A 
HETATM   12  C   UNL     1      61.809  11.142   1.933  1.00  0.00     0.000 A 
HETATM   13  C   UNL     1      62.044   9.844   1.475  1.00  0.00     0.002 A 
HETATM   14  C   UNL     1      62.379   8.829   2.373  1.00  0.00     0.031 A 
ENDBRANCH   1   9
BRANCH   4  15
HETATM   15  C   UNL     1      64.799   5.949   6.917  1.00  0.00     0.207 C 
BRANCH  15  16
HETATM   16  O   UNL     1      65.241   6.757   8.002  1.00  0.00    -0.396 OA
HETATM   17  H   UNL     1      65.881   6.259   8.535  1.00  0.00     0.209 HD
ENDBRANCH  15  16
ENDBRANCH   4  15
TORSDOF 3
ENDMDL
MODEL 2
REMARK VINA RESULT:      -5.3      2.654      5.557
REMARK  3 active torsions:
REMARK  status: ('A' for Active; 'I' for Inactive)
REMARK    1  A    between atoms: N_1  and  C_7 
REMARK    2  A    between atoms: C_4  and  C_8 
REMARK    3  A    between atoms: C_8  and  O_11 
ROOT
HETATM    1  N   UNL     1      64.477   8.367   5.057  1.00  0.00    -0.260 N 
HETATM    2  N   UNL     1      64.063   9.500   5.682  1.00  0.00    -0.298 N 
ATOM      3  HN  UNL     1      64.395   9.869   6.573  1.00  0.00     0.187 HD
HETATM    4  C   UNL     1      62.816   9.170   3.810  1.00  0.00     0.013 A 
HETATM    5  C   UNL     1      63.696   8.102   3.938  1.00  0.00     0.041 A 
HETATM    6  C   UNL     1      63.134  10.028   4.888  1.00  0.00     0.033 A 
HETATM    7  C   UNL     1      63.725   6.853   3.128  1.00  0.00     0.071 C 
HETATM    8  C   UNL     1      62.541  11.348   5.221  1.00  0.00     0.070 C 
ENDROOT
BRANCH   1   9
HETATM    9  C   UNL     1      65.574   7.647   5.605  1.00  0.00     0.056 A 
HETATM   10  C   UNL     1      66.832   7.764   4.992  1.00  0.00     0.031 A 
HETATM   11  C   UNL     1      67.935   7.090   5.515  1.00  0.00     0.002 A 
HETATM   12  C   UNL     1      67.783   6.266   6.628  1.00  0.00     0.000 A 
HETATM   13  C   UNL     1      66.526   6.112   7.216  1.00  0.00     0.002 A 
HETATM   14  C   UNL     1      65.422   6.801   6.710  1.00  0.00     0.031 A 
ENDBRANCH   1   9
BRANCH   4  15
HETATM   15  C   UNL     1      61.736   9.348   2.801  1.00  0.00     0.207 C 
BRANCH  15  16
HETATM   16  O   UNL     1      60.472   8.924   3.297  1.00  0.00    -0.396 OA
HETATM   17  H   UNL     1      60.488   8.926   4.267  1.00  0.00     0.209 HD
ENDBRANCH  15  16
ENDBRANCH   4  15
TORSDOF 3
ENDMDL
MODEL 3
REMARK VINA RESULT:      -5.2      2.524      5.453
REMARK  3 active torsions:
REMARK  status: ('A' for Active; 'I' for Inactive)
REMARK    1  A    between atoms: N_1  and  C_7 
REMARK    2  A    between atoms: C_4  and  C_8 
REMARK    3  A    between atoms: C_8  and  O_11 
ROOT
HETATM    1  N   UNL     1      63.423   8.564   4.142  1.00  0.00    -0.260 N 
HETATM    2  N   UNL     1      63.296   8.025   2.901  1.00  0.00    -0.298 N 
ATOM      3  HN  UNL     1      63.740   7.177   2.548  1.00  0.00     0.187 HD
HETATM    4  C   UNL     1      62.165   9.996   2.989  1.00  0.00     0.013 A 
HETATM    5  C   UNL     1      62.792   9.801   4.214  1.00  0.00     0.041 A 
HETATM    6  C   UNL     1      62.469   8.835   2.242  1.00  0.00     0.033 A 
HETATM    7  C   UNL     1      62.892  10.767   5.342  1.00  0.00     0.071 C 
HETATM    8  C   UNL     1      62.021   8.477   0.873  1.00  0.00     0.070 C 
ENDROOT
BRANCH   1   9
HETATM    9  C   UNL     1      64.148   7.841   5.128  1.00  0.00     0.056 A 
HETATM   10  C   UNL     1      63.521   6.760   5.770  1.00  0.00     0.031 A 
HETATM   11  C   UNL     1      64.210   6.015   6.727  1.00  0.00     0.002 A 
HETATM   12  C   UNL     1      65.511   6.365   7.078  1.00  0.00     0.000 A 
HETATM   13  C   UNL     1      66.124   7.465   6.474  1.00  0.00     0.002 A 
HETATM   14  C   UNL     1      65.449   8.203   5.500  1.00  0.00     0.031 A 
ENDBRANCH   1   9
BRANCH   4  15
HETATM   15  C   UNL     1      61.397  11.187   2.537  1.00  0.00     0.207 C 
BRANCH  15  16
HETATM   16  O   UNL     1      62.202  12.083   1.781  1.00  0.00    -0.396 OA
HETATM   17  H   UNL     1      61.636  12.739   1.346  1.00  0.00     0.209 HD
ENDBRANCH  15  16
ENDBRANCH   4  15
TORSDOF 3
ENDMDL
MODEL 4
REMARK VINA RESULT:      -5.2      1.543      2.660
REMARK  3 active torsions:
REMARK  status: ('A' for Active; 'I' for Inactive)
REMARK    1  A    between atoms: N_1  and  C_7 
REMARK    2  A    between atoms: C_4  and  C_8 
REMARK    3  A    between atoms: C_8  and  O_11 
ROOT
HETATM    1  N   UNL     1      64.346   7.912   5.223  1.00  0.00    -0.260 N 
HETATM    2  N   UNL     1      65.689   7.981   5.032  1.00  0.00    -0.298 N 
ATOM      3  HN  UNL     1      66.193   8.623   4.420  1.00  0.00     0.187 HD
HETATM    4  C   UNL     1      65.208   6.232   6.403  1.00  0.00     0.013 A 
HETATM    5  C   UNL     1      64.011   6.817   6.011  1.00  0.00     0.041 A 
HETATM    6  C   UNL     1      66.210   7.034   5.810  1.00  0.00     0.033 A 
HETATM    7  C   UNL     1      62.633   6.311   6.263  1.00  0.00     0.071 C 
HETATM    8  C   UNL     1      67.684   6.905   5.928  1.00  0.00     0.070 C 
ENDROOT
BRANCH   1   9
HETATM    9  C   UNL     1      63.519   8.900   4.620  1.00  0.00     0.056 A 
HETATM   10  C   UNL     1      63.257  10.084   5.327  1.00  0.00     0.031 A 
HETATM   11  C   UNL     1      62.468  11.083   4.757  1.00  0.00     0.002 A 
HETATM   12  C   UNL     1      61.906  10.893   3.497  1.00  0.00     0.000 A 
HETATM   13  C   UNL     1      62.129   9.699   2.808  1.00  0.00     0.002 A 
HETATM   14  C   UNL     1      62.934   8.703   3.363  1.00  0.00     0.031 A 
ENDBRANCH   1   9
BRANCH   4  15
HETATM   15  C   UNL     1      65.400   5.000   7.216  1.00  0.00     0.207 C 
BRANCH  15  16
HETATM   16  O   UNL     1      65.888   5.294   8.519  1.00  0.00    -0.396 OA
HETATM   17  H   UNL     1      66.319   4.507   8.888  1.00  0.00     0.209 HD
ENDBRANCH  15  16
ENDBRANCH   4  15
TORSDOF 3
ENDMDL
MODEL 5
REMARK VINA RESULT:      -4.9      1.532      2.427
REMARK  3 active torsions:
REMARK  status: ('A' for Active; 'I' for Inactive)
REMARK    1  A    between atoms: N_1  and  C_7 
REMARK    2  A    between atoms: C_4  and  C_8 
REMARK    3  A    between atoms: C_8  and  O_11 
ROOT
HETATM    1  N   UNL     1      62.464   8.034   4.491  1.00  0.00    -0.260 N 
HETATM    2  N   UNL     1      63.679   7.880   5.078  1.00  0.00    -0.298 N 
ATOM      3  HN  UNL     1      64.523   8.426   4.903  1.00  0.00     0.187 HD
HETATM    4  C   UNL     1      62.276   6.243   5.802  1.00  0.00     0.013 A 
HETATM    5  C   UNL     1      61.597   7.014   4.867  1.00  0.00     0.041 A 
HETATM    6  C   UNL     1      63.539   6.866   5.931  1.00  0.00     0.033 A 
HETATM    7  C   UNL     1      60.259   6.743   4.274  1.00  0.00     0.071 C 
HETATM    8  C   UNL     1      64.661   6.497   6.830  1.00  0.00     0.070 C 
ENDROOT
BRANCH   1   9
HETATM    9  C   UNL     1      62.263   9.140   3.619  1.00  0.00     0.056 A 
HETATM   10  C   UNL     1      62.064  10.412   4.178  1.00  0.00     0.031 A 
HETATM   11  C   UNL     1      61.884  11.522   3.353  1.00  0.00     0.002 A 
HETATM   12  C   UNL     1      61.865  11.365   1.969  1.00  0.00     0.000 A 
HETATM   13  C   UNL     1      62.019  10.095   1.410  1.00  0.00     0.002 A 
HETATM   14  C   UNL     1      62.220   8.983   2.229  1.00  0.00     0.031 A 
ENDBRANCH   1   9
BRANCH   4  15
HETATM   15  C   UNL     1      61.807   5.003   6.477  1.00  0.00     0.207 C 
BRANCH  15  16
HETATM   16  O   UNL     1      60.699   5.251   7.333  1.00  0.00    -0.396 OA
HETATM   17  H   UNL     1      60.466   4.436   7.805  1.00  0.00     0.209 HD
ENDBRANCH  15  16
ENDBRANCH   4  15
TORSDOF 3
ENDMDL
MODEL 6
REMARK VINA RESULT:      -4.5      1.583      2.504
REMARK  3 active torsions:
REMARK  status: ('A' for Active; 'I' for Inactive)
REMARK    1  A    between atoms: N_1  and  C_7 
REMARK    2  A    between atoms: C_4  and  C_8 
REMARK    3  A    between atoms: C_8  and  O_11 
ROOT
HETATM    1  N   UNL     1      64.058   7.341   4.142  1.00  0.00    -0.260 N 
HETATM    2  N   UNL     1      65.277   6.913   3.722  1.00  0.00    -0.298 N 
ATOM      3  HN  UNL     1      65.648   6.943   2.772  1.00  0.00     0.187 HD
HETATM    4  C   UNL     1      65.021   6.421   5.927  1.00  0.00     0.013 A 
HETATM    5  C   UNL     1      63.844   7.003   5.473  1.00  0.00     0.041 A 
HETATM    6  C   UNL     1      65.888   6.448   4.811  1.00  0.00     0.033 A 
HETATM    7  C   UNL     1      62.556   7.129   6.209  1.00  0.00     0.071 C 
HETATM    8  C   UNL     1      67.300   5.997   4.729  1.00  0.00     0.070 C 
ENDROOT
BRANCH   1   9
HETATM    9  C   UNL     1      63.218   8.020   3.217  1.00  0.00     0.056 A 
HETATM   10  C   UNL     1      62.760   9.307   3.542  1.00  0.00     0.031 A 
HETATM   11  C   UNL     1      61.952  10.012   2.649  1.00  0.00     0.002 A 
HETATM   12  C   UNL     1      61.565   9.424   1.447  1.00  0.00     0.000 A 
HETATM   13  C   UNL     1      61.983   8.128   1.139  1.00  0.00     0.002 A 
HETATM   14  C   UNL     1      62.809   7.424   2.018  1.00  0.00     0.031 A 
ENDBRANCH   1   9
BRANCH   4  15
HETATM   15  C   UNL     1      65.295   5.842   7.270  1.00  0.00     0.207 C 
BRANCH  15  16
HETATM   16  O   UNL     1      65.483   6.851   8.255  1.00  0.00    -0.396 OA
HETATM   17  H   UNL     1      66.420   6.889   8.504  1.00  0.00     0.209 HD
ENDBRANCH  15  16
ENDBRANCH   4  15
TORSDOF 3
ENDMDL
MODEL 7
REMARK VINA RESULT:      -4.4      2.630      5.484
REMARK  3 active torsions:
REMARK  status: ('A' for Active; 'I' for Inactive)
REMARK    1  A    between atoms: N_1  and  C_7 
REMARK    2  A    between atoms: C_4  and  C_8 
REMARK    3  A    between atoms: C_8  and  O_11 
ROOT
HETATM    1  N   UNL     1      64.465   7.541   4.346  1.00  0.00    -0.260 N 
HETATM    2  N   UNL     1      64.363   6.774   3.229  1.00  0.00    -0.298 N 
ATOM      3  HN  UNL     1      64.951   5.983   2.969  1.00  0.00     0.187 HD
HETATM    4  C   UNL     1      62.846   8.465   3.126  1.00  0.00     0.013 A 
HETATM    5  C   UNL     1      63.590   8.621   4.289  1.00  0.00     0.041 A 
HETATM    6  C   UNL     1      63.334   7.272   2.545  1.00  0.00     0.033 A 
HETATM    7  C   UNL     1      63.564   9.773   5.231  1.00  0.00     0.071 C 
HETATM    8  C   UNL     1      62.872   6.593   1.309  1.00  0.00     0.070 C 
ENDROOT
BRANCH   1   9
HETATM    9  C   UNL     1      65.400   7.166   5.349  1.00  0.00     0.056 A 
HETATM   10  C   UNL     1      66.768   7.177   5.033  1.00  0.00     0.031 A 
HETATM   11  C   UNL     1      67.715   6.835   5.998  1.00  0.00     0.002 A 
HETATM   12  C   UNL     1      67.303   6.444   7.270  1.00  0.00     0.000 A 
HETATM   13  C   UNL     1      65.942   6.390   7.576  1.00  0.00     0.002 A 
HETATM   14  C   UNL     1      64.989   6.751   6.622  1.00  0.00     0.031 A 
ENDBRANCH   1   9
BRANCH   4  15
HETATM   15  C   UNL     1      61.807   9.378   2.577  1.00  0.00     0.207 C 
BRANCH  15  16
HETATM   16  O   UNL     1      60.525   9.123   3.140  1.00  0.00    -0.396 OA
HETATM   17  H   UNL     1      60.600   8.428   3.812  1.00  0.00     0.209 HD
ENDBRANCH  15  16
ENDBRANCH   4  15
TORSDOF 3
ENDMDL
MODEL 8
REMARK VINA RESULT:      -4.4      3.419      5.281
REMARK  3 active torsions:
REMARK  status: ('A' for Active; 'I' for Inactive)
REMARK    1  A    between atoms: N_1  and  C_7 
REMARK    2  A    between atoms: C_4  and  C_8 
REMARK    3  A    between atoms: C_8  and  O_11 
ROOT
HETATM    1  N   UNL     1      62.252   7.235   2.867  1.00  0.00    -0.260 N 
HETATM    2  N   UNL     1      61.517   6.134   3.172  1.00  0.00    -0.298 N 
ATOM      3  HN  UNL     1      61.775   5.375   3.802  1.00  0.00     0.187 HD
HETATM    4  C   UNL     1      60.432   7.353   1.588  1.00  0.00     0.013 A 
HETATM    5  C   UNL     1      61.646   7.974   1.858  1.00  0.00     0.041 A 
HETATM    6  C   UNL     1      60.388   6.253   2.475  1.00  0.00     0.033 A 
HETATM    7  C   UNL     1      62.254   9.123   1.132  1.00  0.00     0.071 C 
HETATM    8  C   UNL     1      59.298   5.262   2.660  1.00  0.00     0.070 C 
ENDROOT
BRANCH   1   9
HETATM    9  C   UNL     1      63.469   7.458   3.569  1.00  0.00     0.056 A 
HETATM   10  C   UNL     1      64.547   6.587   3.344  1.00  0.00     0.031 A 
HETATM   11  C   UNL     1      65.762   6.789   3.999  1.00  0.00     0.002 A 
HETATM   12  C   UNL     1      65.897   7.836   4.908  1.00  0.00     0.000 A 
HETATM   13  C   UNL     1      64.815   8.678   5.167  1.00  0.00     0.002 A 
HETATM   14  C   UNL     1      63.602   8.495   4.500  1.00  0.00     0.031 A 
ENDBRANCH   1   9
BRANCH   4  15
HETATM   15  C   UNL     1      59.427   7.722   0.555  1.00  0.00     0.207 C 
BRANCH  15  16
HETATM   16  O   UNL     1      58.427   8.590   1.074  1.00  0.00    -0.396 OA
HETATM   17  H   UNL     1      58.265   8.376   2.006  1.00  0.00     0.209 HD
ENDBRANCH  15  16
ENDBRANCH   4  15
TORSDOF 3
ENDMDL
MODEL 9
REMARK VINA RESULT:      -4.3      3.634      4.684
REMARK  3 active torsions:
REMARK  status: ('A' for Active; 'I' for Inactive)
REMARK    1  A    between atoms: N_1  and  C_7 
REMARK    2  A    between atoms: C_4  and  C_8 
REMARK    3  A    between atoms: C_8  and  O_11 
ROOT
HETATM    1  N   UNL     1      60.128   7.800   3.597  1.00  0.00    -0.260 N 
HETATM    2  N   UNL     1      60.554   9.069   3.361  1.00  0.00    -0.298 N 
ATOM      3  HN  UNL     1      60.109   9.768   2.766  1.00  0.00     0.187 HD
HETATM    4  C   UNL     1      62.080   7.987   4.655  1.00  0.00     0.013 A 
HETATM    5  C   UNL     1      61.067   7.090   4.337  1.00  0.00     0.041 A 
HETATM    6  C   UNL     1      61.673   9.208   4.069  1.00  0.00     0.033 A 
HETATM    7  C   UNL     1      61.037   5.627   4.611  1.00  0.00     0.071 C 
HETATM    8  C   UNL     1      62.351  10.528   4.127  1.00  0.00     0.070 C 
ENDROOT
BRANCH   1   9
HETATM    9  C   UNL     1      58.868   7.395   3.076  1.00  0.00     0.056 A 
HETATM   10  C   UNL     1      58.737   7.219   1.690  1.00  0.00     0.031 A 
HETATM   11  C   UNL     1      57.522   6.802   1.146  1.00  0.00     0.002 A 
HETATM   12  C   UNL     1      56.422   6.596   1.976  1.00  0.00     0.000 A 
HETATM   13  C   UNL     1      56.536   6.812   3.351  1.00  0.00     0.002 A 
HETATM   14  C   UNL     1      57.755   7.209   3.904  1.00  0.00     0.031 A 
ENDBRANCH   1   9
BRANCH   4  15
HETATM   15  C   UNL     1      63.343   7.715   5.393  1.00  0.00     0.207 C 
BRANCH  15  16
HETATM   16  O   UNL     1      63.136   7.675   6.800  1.00  0.00    -0.396 OA
HETATM   17  H   UNL     1      62.621   6.887   7.029  1.00  0.00     0.209 HD
ENDBRANCH  15  16
ENDBRANCH   4  15
TORSDOF 3
ENDMDL
