MODEL 1
REMARK VINA RESULT:      -5.5      0.000      0.000
REMARK  2 active torsions:
REMARK  status: ('A' for Active; 'I' for Inactive)
REMARK    1  A    between atoms: C_1  and  C_4 
REMARK    2  A    between atoms: C_2  and  C_3 
ROOT
HETATM    1  C   UNL     1      62.460   9.947   3.375  1.00  0.00     0.041 A 
HETATM    2  C   UNL     1      63.703   8.092   4.353  1.00  0.00    -0.024 A 
HETATM    3  C   UNL     1      63.291   9.433   4.382  1.00  0.00     0.030 A 
HETATM    4  C   UNL     1      62.046   9.121   2.324  1.00  0.00     0.018 A 
HETATM    5  C   UNL     1      63.266   7.276   3.298  1.00  0.00     0.012 A 
HETATM    6  C   UNL     1      62.449   7.788   2.286  1.00  0.00     0.002 A 
ENDROOT
BRANCH   2   7
HETATM    7  C   UNL     1      64.560   7.563   5.419  1.00  0.00    -0.019 A 
HETATM    8  C   UNL     1      65.831   8.053   5.658  1.00  0.00     0.061 A 
HETATM    9  S   UNL     1      66.620   7.263   6.957  1.00  0.00    -0.113 SA
HETATM   10  C   UNL     1      65.266   6.263   7.237  1.00  0.00     0.050 A 
HETATM   11  C   UNL     1      64.241   6.524   6.356  1.00  0.00     0.020 A 
ENDBRANCH   2   7
BRANCH   1  12
HETATM   12  C   UNL     1      61.989  11.352   3.388  1.00  0.00     0.209 C 
HETATM   13  O   UNL     1      61.796  12.032   4.380  1.00  0.00    -0.644 OA
HETATM   14  O   UNL     1      61.793  11.850   2.154  1.00  0.00    -0.644 OA
ENDBRANCH   1  12
TORSDOF 2
ENDMDL
MODEL 2
REMARK VINA RESULT:      -5.4      1.678      1.995
REMARK  2 active torsions:
REMARK  status: ('A' for Active; 'I' for Inactive)
REMARK    1  A    between atoms: C_1  and  C_4 
REMARK    2  A    between atoms: C_2  and  C_3 
ROOT
HETATM    1  C   UNL     1      63.113   9.796   4.687  1.00  0.00     0.041 A 
HETATM    2  C   UNL     1      64.418   7.763   4.353  1.00  0.00    -0.024 A 
HETATM    3  C   UNL     1      64.179   8.958   5.048  1.00  0.00     0.030 A 
HETATM    4  C   UNL     1      62.286   9.445   3.614  1.00  0.00     0.018 A 
HETATM    5  C   UNL     1      63.568   7.423   3.290  1.00  0.00     0.012 A 
HETATM    6  C   UNL     1      62.513   8.260   2.917  1.00  0.00     0.002 A 
ENDROOT
BRANCH   2   7
HETATM    7  C   UNL     1      65.527   6.890   4.751  1.00  0.00    -0.019 A 
HETATM    8  C   UNL     1      65.868   6.683   6.075  1.00  0.00     0.061 A 
HETATM    9  S   UNL     1      67.198   5.622   6.267  1.00  0.00    -0.113 SA
HETATM   10  C   UNL     1      67.331   5.403   4.580  1.00  0.00     0.050 A 
HETATM   11  C   UNL     1      66.386   6.128   3.889  1.00  0.00     0.020 A 
ENDBRANCH   2   7
BRANCH   1  12
HETATM   12  C   UNL     1      62.821  11.054   5.414  1.00  0.00     0.209 C 
HETATM   13  O   UNL     1      63.225  11.346   6.525  1.00  0.00    -0.644 OA
HETATM   14  O   UNL     1      62.046  11.898   4.710  1.00  0.00    -0.644 OA
ENDBRANCH   1  12
TORSDOF 2
ENDMDL
MODEL 3
REMARK VINA RESULT:      -5.3      1.892      2.703
REMARK  2 active torsions:
REMARK  status: ('A' for Active; 'I' for Inactive)
REMARK    1  A    between atoms: C_1  and  C_4 
REMARK    2  A    between atoms: C_2  and  C_3 
ROOT
HETATM    1  C   UNL     1      62.213   9.352   2.533  1.00  0.00     0.041 A 
HETATM    2  C   UNL     1      63.461   8.954   4.590  1.00  0.00    -0.024 A 
HETATM    3  C   UNL     1      63.040   8.535   3.318  1.00  0.00     0.030 A 
HETATM    4  C   UNL     1      61.791  10.593   3.024  1.00  0.00     0.018 A 
HETATM    5  C   UNL     1      63.038  10.208   5.058  1.00  0.00     0.012 A 
HETATM    6  C   UNL     1      62.203  11.019   4.285  1.00  0.00     0.002 A 
ENDROOT
BRANCH   2   7
HETATM    7  C   UNL     1      64.337   8.097   5.394  1.00  0.00    -0.019 A 
HETATM    8  C   UNL     1      63.869   6.979   6.061  1.00  0.00     0.061 A 
HETATM    9  S   UNL     1      65.095   6.154   6.927  1.00  0.00    -0.113 SA
HETATM   10  C   UNL     1      66.280   7.267   6.409  1.00  0.00     0.050 A 
HETATM   11  C   UNL     1      65.750   8.247   5.599  1.00  0.00     0.020 A 
ENDBRANCH   2   7
BRANCH   1  12
HETATM   12  C   UNL     1      61.769   8.949   1.177  1.00  0.00     0.209 C 
HETATM   13  O   UNL     1      62.485   8.823   0.200  1.00  0.00    -0.644 OA
HETATM   14  O   UNL     1      60.448   8.706   1.109  1.00  0.00    -0.644 OA
ENDBRANCH   1  12
TORSDOF 2
ENDMDL
MODEL 4
REMARK VINA RESULT:      -5.0      3.498      5.362
REMARK  2 active torsions:
REMARK  status: ('A' for Active; 'I' for Inactive)
REMARK    1  A    between atoms: C_1  and  C_4 
REMARK    2  A    between atoms: C_2  and  C_3 
ROOT
HETATM    1  C   UNL     1      64.007   8.892   4.791  1.00  0.00     0.041 A 
HETATM    2  C   UNL     1      62.243   8.751   3.114  1.00  0.00    -0.024 A 
HETATM    3  C   UNL     1      63.373   8.207   3.744  1.00  0.00     0.030 A 
HETATM    4  C   UNL     1      63.519  10.137   5.206  1.00  0.00     0.018 A 
HETATM    5  C   UNL     1      61.760   9.993   3.555  1.00  0.00     0.012 A 
HETATM    6  C   UNL     1      62.398  10.686   4.588  1.00  0.00     0.002 A 
ENDROOT
BRANCH   2   7
HETATM    7  C   UNL     1      61.580   8.018   2.032  1.00  0.00    -0.019 A 
HETATM    8  C   UNL     1      61.809   6.674   1.799  1.00  0.00     0.061 A 
HETATM    9  S   UNL     1      60.912   6.060   0.476  1.00  0.00    -0.113 SA
HETATM   10  C   UNL     1      60.184   7.579   0.200  1.00  0.00     0.050 A 
HETATM   11  C   UNL     1      60.621   8.531   1.094  1.00  0.00     0.020 A 
ENDBRANCH   2   7
BRANCH   1  12
HETATM   12  C   UNL     1      65.189   8.336   5.491  1.00  0.00     0.209 C 
HETATM   13  O   UNL     1      66.351   8.481   5.155  1.00  0.00    -0.644 OA
HETATM   14  O   UNL     1      64.865   7.633   6.590  1.00  0.00    -0.644 OA
ENDBRANCH   1  12
TORSDOF 2
ENDMDL
MODEL 5
REMARK VINA RESULT:      -4.9      4.101      6.104
REMARK  2 active torsions:
REMARK  status: ('A' for Active; 'I' for Inactive)
REMARK    1  A    between atoms: C_1  and  C_4 
REMARK    2  A    between atoms: C_2  and  C_3 
ROOT
HETATM    1  C   UNL     1      66.410   6.491   7.218  1.00  0.00     0.041 A 
HETATM    2  C   UNL     1      65.418   7.625   5.301  1.00  0.00    -0.024 A 
HETATM    3  C   UNL     1      65.303   7.080   6.589  1.00  0.00     0.030 A 
HETATM    4  C   UNL     1      67.640   6.431   6.552  1.00  0.00     0.018 A 
HETATM    5  C   UNL     1      66.664   7.568   4.656  1.00  0.00     0.012 A 
HETATM    6  C   UNL     1      67.766   6.970   5.273  1.00  0.00     0.002 A 
ENDROOT
BRANCH   2   7
HETATM    7  C   UNL     1      64.258   8.252   4.661  1.00  0.00    -0.019 A 
HETATM    8  C   UNL     1      63.659   7.722   3.532  1.00  0.00     0.061 A 
HETATM    9  S   UNL     1      62.325   8.646   2.985  1.00  0.00    -0.113 SA
HETATM   10  C   UNL     1      62.510   9.762   4.262  1.00  0.00     0.050 A 
HETATM   11  C   UNL     1      63.569   9.439   5.081  1.00  0.00     0.020 A 
ENDBRANCH   2   7
BRANCH   1  12
HETATM   12  C   UNL     1      66.328   5.926   8.586  1.00  0.00     0.209 C 
HETATM   13  O   UNL     1      66.335   6.565   9.623  1.00  0.00    -0.644 OA
HETATM   14  O   UNL     1      66.225   4.585   8.594  1.00  0.00    -0.644 OA
ENDBRANCH   1  12
TORSDOF 2
ENDMDL
MODEL 6
REMARK VINA RESULT:      -4.8      2.918      4.604
REMARK  2 active torsions:
REMARK  status: ('A' for Active; 'I' for Inactive)
REMARK    1  A    between atoms: C_1  and  C_4 
REMARK    2  A    between atoms: C_2  and  C_3 
ROOT
HETATM    1  C   UNL     1      63.164   9.685   4.656  1.00  0.00     0.041 A 
HETATM    2  C   UNL     1      62.819   7.858   3.079  1.00  0.00    -0.024 A 
HETATM    3  C   UNL     1      62.445   9.106   3.599  1.00  0.00     0.030 A 
HETATM    4  C   UNL     1      64.258   9.009   5.207  1.00  0.00     0.018 A 
HETATM    5  C   UNL     1      63.928   7.202   3.636  1.00  0.00     0.012 A 
HETATM    6  C   UNL     1      64.639   7.769   4.697  1.00  0.00     0.002 A 
ENDROOT
BRANCH   2   7
HETATM    7  C   UNL     1      62.068   7.271   1.965  1.00  0.00    -0.019 A 
HETATM    8  C   UNL     1      60.871   7.801   1.518  1.00  0.00     0.061 A 
HETATM    9  S   UNL     1      60.199   6.927   0.208  1.00  0.00    -0.113 SA
HETATM   10  C   UNL     1      61.509   5.833   0.200  1.00  0.00     0.050 A 
HETATM   11  C   UNL     1      62.432   6.126   1.179  1.00  0.00     0.020 A 
ENDBRANCH   2   7
BRANCH   1  12
HETATM   12  C   UNL     1      62.808  11.011   5.214  1.00  0.00     0.209 C 
HETATM   13  O   UNL     1      62.083  11.836   4.686  1.00  0.00    -0.644 OA
HETATM   14  O   UNL     1      63.365  11.240   6.416  1.00  0.00    -0.644 OA
ENDBRANCH   1  12
TORSDOF 2
ENDMDL
MODEL 7
REMARK VINA RESULT:      -4.7      2.449      3.238
REMARK  2 active torsions:
REMARK  status: ('A' for Active; 'I' for Inactive)
REMARK    1  A    between atoms: C_1  and  C_4 
REMARK    2  A    between atoms: C_2  and  C_3 
ROOT
HETATM    1  C   UNL     1      62.658   9.930   3.778  1.00  0.00     0.041 A 
HETATM    2  C   UNL     1      63.024   7.851   2.558  1.00  0.00    -0.024 A 
HETATM    3  C   UNL     1      63.229   8.652   3.692  1.00  0.00     0.030 A 
HETATM    4  C   UNL     1      61.887  10.421   2.719  1.00  0.00     0.018 A 
HETATM    5  C   UNL     1      62.234   8.356   1.513  1.00  0.00     0.012 A 
HETATM    6  C   UNL     1      61.675   9.634   1.588  1.00  0.00     0.002 A 
ENDROOT
BRANCH   2   7
HETATM    7  C   UNL     1      63.613   6.511   2.487  1.00  0.00    -0.019 A 
HETATM    8  C   UNL     1      64.660   6.119   3.302  1.00  0.00     0.061 A 
HETATM    9  S   UNL     1      65.163   4.507   3.018  1.00  0.00    -0.113 SA
HETATM   10  C   UNL     1      63.974   4.295   1.812  1.00  0.00     0.050 A 
HETATM   11  C   UNL     1      63.218   5.431   1.628  1.00  0.00     0.020 A 
ENDBRANCH   2   7
BRANCH   1  12
HETATM   12  C   UNL     1      62.838  10.792   4.971  1.00  0.00     0.209 C 
HETATM   13  O   UNL     1      62.156  11.759   5.262  1.00  0.00    -0.644 OA
HETATM   14  O   UNL     1      63.856  10.395   5.755  1.00  0.00    -0.644 OA
ENDBRANCH   1  12
TORSDOF 2
ENDMDL
MODEL 8
REMARK VINA RESULT:      -4.5      3.316      4.521
REMARK  2 active torsions:
REMARK  status: ('A' for Active; 'I' for Inactive)
REMARK    1  A    between atoms: C_1  and  C_4 
REMARK    2  A    between atoms: C_2  and  C_3 
ROOT
HETATM    1  C   UNL     1      62.062   9.925   3.935  1.00  0.00     0.041 A 
HETATM    2  C   UNL     1      61.332   7.599   3.935  1.00  0.00    -0.024 A 
HETATM    3  C   UNL     1      61.201   8.918   3.475  1.00  0.00     0.030 A 
HETATM    4  C   UNL     1      63.055   9.617   4.872  1.00  0.00     0.018 A 
HETATM    5  C   UNL     1      62.343   7.308   4.864  1.00  0.00     0.012 A 
HETATM    6  C   UNL     1      63.195   8.311   5.335  1.00  0.00     0.002 A 
ENDROOT
BRANCH   2   7
HETATM    7  C   UNL     1      60.434   6.553   3.436  1.00  0.00    -0.019 A 
HETATM    8  C   UNL     1      59.510   6.787   2.433  1.00  0.00     0.061 A 
HETATM    9  S   UNL     1      58.587   5.401   2.035  1.00  0.00    -0.113 SA
HETATM   10  C   UNL     1      59.421   4.454   3.185  1.00  0.00     0.050 A 
HETATM   11  C   UNL     1      60.376   5.182   3.858  1.00  0.00     0.020 A 
ENDBRANCH   2   7
BRANCH   1  12
HETATM   12  C   UNL     1      61.965  11.323   3.453  1.00  0.00     0.209 C 
HETATM   13  O   UNL     1      61.976  11.678   2.288  1.00  0.00    -0.644 OA
HETATM   14  O   UNL     1      61.841  12.215   4.452  1.00  0.00    -0.644 OA
ENDBRANCH   1  12
TORSDOF 2
ENDMDL
MODEL 9
REMARK VINA RESULT:      -4.4      2.991      4.153
REMARK  2 active torsions:
REMARK  status: ('A' for Active; 'I' for Inactive)
REMARK    1  A    between atoms: C_1  and  C_4 
REMARK    2  A    between atoms: C_2  and  C_3 
ROOT
HETATM    1  C   UNL     1      63.067   7.165   5.830  1.00  0.00     0.041 A 
HETATM    2  C   UNL     1      65.370   7.001   6.615  1.00  0.00    -0.024 A 
HETATM    3  C   UNL     1      64.043   6.544   6.623  1.00  0.00     0.030 A 
HETATM    4  C   UNL     1      63.413   8.262   5.032  1.00  0.00     0.018 A 
HETATM    5  C   UNL     1      65.699   8.093   5.796  1.00  0.00     0.012 A 
HETATM    6  C   UNL     1      64.727   8.724   5.015  1.00  0.00     0.002 A 
ENDROOT
BRANCH   2   7
HETATM    7  C   UNL     1      66.383   6.334   7.436  1.00  0.00    -0.019 A 
HETATM    8  C   UNL     1      66.911   5.099   7.103  1.00  0.00     0.061 A 
HETATM    9  S   UNL     1      68.075   4.541   8.229  1.00  0.00    -0.113 SA
HETATM   10  C   UNL     1      67.910   5.953   9.174  1.00  0.00     0.050 A 
HETATM   11  C   UNL     1      66.983   6.823   8.645  1.00  0.00     0.020 A 
ENDBRANCH   2   7
BRANCH   1  12
HETATM   12  C   UNL     1      61.662   6.693   5.799  1.00  0.00     0.209 C 
HETATM   13  O   UNL     1      60.962   6.601   4.807  1.00  0.00    -0.644 OA
HETATM   14  O   UNL     1      61.201   6.342   7.012  1.00  0.00    -0.644 OA
ENDBRANCH   1  12
TORSDOF 2
ENDMDL
