MODEL 1
REMARK VINA RESULT:      -5.7      0.000      0.000
REMARK  4 active torsions:
REMARK  status: ('A' for Active; 'I' for Inactive)
REMARK    1  A    between atoms: C_1  and  O_4 
REMARK    2  A    between atoms: O_4  and  C_5 
REMARK    3  A    between atoms: C_6  and  C_14 
REMARK    4  A    between atoms: O_11  and  C_14 
ROOT
HETATM    1  C   UNL     1      63.266   8.634   5.133  1.00  0.00     0.077 A 
HETATM    2  C   UNL     1      62.181  10.079   2.980  1.00  0.00    -0.035 A 
HETATM    3  C   UNL     1      62.973   7.987   3.932  1.00  0.00     0.038 A 
HETATM    4  C   UNL     1      62.945   9.985   5.282  1.00  0.00     0.038 A 
HETATM    5  C   UNL     1      62.407  10.706   4.213  1.00  0.00     0.012 A 
HETATM    6  C   UNL     1      62.459   8.711   2.854  1.00  0.00     0.012 A 
ENDROOT
BRANCH   1   7
HETATM    7  O   UNL     1      63.802   8.023   6.242  1.00  0.00    -0.294 OA
BRANCH   7   8
HETATM    8  C   UNL     1      65.108   7.584   6.230  1.00  0.00     0.147 A 
HETATM    9  N   UNL     1      65.455   6.873   7.327  1.00  0.00    -0.347 N 
HETATM   10  C   UNL     1      66.725   6.425   7.399  1.00  0.00     0.090 A 
ATOM     11  HN  UNL     1      64.782   6.684   8.071  1.00  0.00     0.167 HD
HETATM   12  C   UNL     1      67.678   6.645   6.419  1.00  0.00     0.017 A 
HETATM   13  C   UNL     1      67.313   7.402   5.312  1.00  0.00     0.006 A 
HETATM   14  C   UNL     1      66.018   7.904   5.228  1.00  0.00     0.056 A 
ENDBRANCH   7   8
ENDBRANCH   1   7
BRANCH   2  15
HETATM   15  C   UNL     1      61.655  10.855   1.803  1.00  0.00     0.202 C 
BRANCH  15  16
HETATM   16  O   UNL     1      62.046  12.218   1.899  1.00  0.00    -0.396 OA
HETATM   17  H   UNL     1      62.553  12.352   2.715  1.00  0.00     0.209 HD
ENDBRANCH  15  16
ENDBRANCH   2  15
TORSDOF 4
ENDMDL
MODEL 2
REMARK VINA RESULT:      -5.7      0.801      1.645
REMARK  4 active torsions:
REMARK  status: ('A' for Active; 'I' for Inactive)
REMARK    1  A    between atoms: C_1  and  O_4 
REMARK    2  A    between atoms: O_4  and  C_5 
REMARK    3  A    between atoms: C_6  and  C_14 
REMARK    4  A    between atoms: O_11  and  C_14 
ROOT
HETATM    1  C   UNL     1      63.154   8.606   5.260  1.00  0.00     0.077 A 
HETATM    2  C   UNL     1      62.241  10.024   3.012  1.00  0.00    -0.035 A 
HETATM    3  C   UNL     1      62.827   9.958   5.370  1.00  0.00     0.038 A 
HETATM    4  C   UNL     1      63.097   7.985   4.010  1.00  0.00     0.038 A 
HETATM    5  C   UNL     1      62.642   8.687   2.891  1.00  0.00     0.012 A 
HETATM    6  C   UNL     1      62.348  10.655   4.259  1.00  0.00     0.012 A 
ENDROOT
BRANCH   1   7
HETATM    7  O   UNL     1      63.602   7.820   6.295  1.00  0.00    -0.294 OA
BRANCH   7   8
HETATM    8  C   UNL     1      64.885   7.318   6.281  1.00  0.00     0.147 A 
HETATM    9  N   UNL     1      65.844   8.271   6.277  1.00  0.00    -0.347 N 
HETATM   10  C   UNL     1      67.128   7.858   6.243  1.00  0.00     0.090 A 
ATOM     11  HN  UNL     1      65.606   9.263   6.298  1.00  0.00     0.167 HD
HETATM   12  C   UNL     1      67.511   6.528   6.219  1.00  0.00     0.017 A 
HETATM   13  C   UNL     1      66.513   5.562   6.195  1.00  0.00     0.006 A 
HETATM   14  C   UNL     1      65.179   5.960   6.197  1.00  0.00     0.056 A 
ENDBRANCH   7   8
ENDBRANCH   1   7
BRANCH   2  15
HETATM   15  C   UNL     1      61.696  10.778   1.829  1.00  0.00     0.202 C 
BRANCH  15  16
HETATM   16  O   UNL     1      62.083  12.144   1.895  1.00  0.00    -0.396 OA
HETATM   17  H   UNL     1      62.945  12.214   2.334  1.00  0.00     0.209 HD
ENDBRANCH  15  16
ENDBRANCH   2  15
TORSDOF 4
ENDMDL
MODEL 3
REMARK VINA RESULT:      -5.6      3.822      6.306
REMARK  4 active torsions:
REMARK  status: ('A' for Active; 'I' for Inactive)
REMARK    1  A    between atoms: C_1  and  O_4 
REMARK    2  A    between atoms: O_4  and  C_5 
REMARK    3  A    between atoms: C_6  and  C_14 
REMARK    4  A    between atoms: O_11  and  C_14 
ROOT
HETATM    1  C   UNL     1      61.938   9.608   2.147  1.00  0.00     0.077 A 
HETATM    2  C   UNL     1      62.600  10.689   4.655  1.00  0.00    -0.035 A 
HETATM    3  C   UNL     1      62.619   8.832   3.087  1.00  0.00     0.038 A 
HETATM    4  C   UNL     1      61.658  10.945   2.434  1.00  0.00     0.038 A 
HETATM    5  C   UNL     1      61.984  11.485   3.680  1.00  0.00     0.012 A 
HETATM    6  C   UNL     1      62.924   9.362   4.342  1.00  0.00     0.012 A 
ENDROOT
BRANCH   1   7
HETATM    7  O   UNL     1      61.562   9.175   0.897  1.00  0.00    -0.294 OA
BRANCH   7   8
HETATM    8  C   UNL     1      60.633   8.167   0.761  1.00  0.00     0.147 A 
HETATM    9  N   UNL     1      59.394   8.506   1.184  1.00  0.00    -0.347 N 
HETATM   10  C   UNL     1      58.432   7.563   1.102  1.00  0.00     0.090 A 
ATOM     11  HN  UNL     1      59.195   9.437   1.550  1.00  0.00     0.167 HD
HETATM   12  C   UNL     1      58.642   6.286   0.609  1.00  0.00     0.017 A 
HETATM   13  C   UNL     1      59.928   5.946   0.206  1.00  0.00     0.006 A 
HETATM   14  C   UNL     1      60.946   6.889   0.309  1.00  0.00     0.056 A 
ENDBRANCH   7   8
ENDBRANCH   1   7
BRANCH   2  15
HETATM   15  C   UNL     1      62.907  11.239   6.022  1.00  0.00     0.202 C 
BRANCH  15  16
HETATM   16  O   UNL     1      64.313  11.335   6.209  1.00  0.00    -0.396 OA
HETATM   17  H   UNL     1      64.709  11.796   5.452  1.00  0.00     0.209 HD
ENDBRANCH  15  16
ENDBRANCH   2  15
TORSDOF 4
ENDMDL
MODEL 4
REMARK VINA RESULT:      -5.4      1.325      1.591
REMARK  4 active torsions:
REMARK  status: ('A' for Active; 'I' for Inactive)
REMARK    1  A    between atoms: C_1  and  O_4 
REMARK    2  A    between atoms: O_4  and  C_5 
REMARK    3  A    between atoms: C_6  and  C_14 
REMARK    4  A    between atoms: O_11  and  C_14 
ROOT
HETATM    1  C   UNL     1      64.530   8.686   4.998  1.00  0.00     0.077 A 
HETATM    2  C   UNL     1      62.340   8.604   3.239  1.00  0.00    -0.035 A 
HETATM    3  C   UNL     1      64.414   7.649   4.072  1.00  0.00     0.038 A 
HETATM    4  C   UNL     1      63.512   9.637   5.096  1.00  0.00     0.038 A 
HETATM    5  C   UNL     1      62.423   9.600   4.221  1.00  0.00     0.012 A 
HETATM    6  C   UNL     1      63.339   7.624   3.180  1.00  0.00     0.012 A 
ENDROOT
BRANCH   1   7
HETATM    7  O   UNL     1      65.561   8.823   5.897  1.00  0.00    -0.294 OA
BRANCH   7   8
HETATM    8  C   UNL     1      66.176   7.708   6.425  1.00  0.00     0.147 A 
HETATM    9  N   UNL     1      65.489   7.136   7.440  1.00  0.00    -0.347 N 
HETATM   10  C   UNL     1      66.037   6.050   8.024  1.00  0.00     0.090 A 
ATOM     11  HN  UNL     1      64.593   7.511   7.751  1.00  0.00     0.167 HD
HETATM   12  C   UNL     1      67.245   5.494   7.639  1.00  0.00     0.017 A 
HETATM   13  C   UNL     1      67.952   6.111   6.615  1.00  0.00     0.006 A 
HETATM   14  C   UNL     1      67.425   7.253   6.016  1.00  0.00     0.056 A 
ENDBRANCH   7   8
ENDBRANCH   1   7
BRANCH   2  15
HETATM   15  C   UNL     1      61.202   8.583   2.254  1.00  0.00     0.202 C 
BRANCH  15  16
HETATM   16  O   UNL     1      61.017   9.875   1.689  1.00  0.00    -0.396 OA
HETATM   17  H   UNL     1      61.810  10.126   1.190  1.00  0.00     0.209 HD
ENDBRANCH  15  16
ENDBRANCH   2  15
TORSDOF 4
ENDMDL
MODEL 5
REMARK VINA RESULT:      -5.3      2.300      6.450
REMARK  4 active torsions:
REMARK  status: ('A' for Active; 'I' for Inactive)
REMARK    1  A    between atoms: C_1  and  O_4 
REMARK    2  A    between atoms: O_4  and  C_5 
REMARK    3  A    between atoms: C_6  and  C_14 
REMARK    4  A    between atoms: O_11  and  C_14 
ROOT
HETATM    1  C   UNL     1      66.032   7.566   6.377  1.00  0.00     0.077 A 
HETATM    2  C   UNL     1      67.043   5.035   7.064  1.00  0.00    -0.035 A 
HETATM    3  C   UNL     1      65.316   6.737   7.241  1.00  0.00     0.038 A 
HETATM    4  C   UNL     1      67.214   7.098   5.798  1.00  0.00     0.038 A 
HETATM    5  C   UNL     1      67.719   5.841   6.139  1.00  0.00     0.012 A 
HETATM    6  C   UNL     1      65.832   5.490   7.603  1.00  0.00     0.012 A 
ENDROOT
BRANCH   1   7
HETATM    7  O   UNL     1      65.632   8.821   5.983  1.00  0.00    -0.294 OA
BRANCH   7   8
HETATM    8  C   UNL     1      64.505   8.979   5.207  1.00  0.00     0.147 A 
HETATM    9  N   UNL     1      63.751  10.048   5.552  1.00  0.00    -0.347 N 
HETATM   10  C   UNL     1      62.618  10.259   4.850  1.00  0.00     0.090 A 
ATOM     11  HN  UNL     1      64.029  10.670   6.311  1.00  0.00     0.167 HD
HETATM   12  C   UNL     1      62.195   9.453   3.807  1.00  0.00     0.017 A 
HETATM   13  C   UNL     1      62.965   8.343   3.485  1.00  0.00     0.006 A 
HETATM   14  C   UNL     1      64.123   8.083   4.213  1.00  0.00     0.056 A 
ENDBRANCH   7   8
ENDBRANCH   1   7
BRANCH   2  15
HETATM   15  C   UNL     1      67.603   3.703   7.484  1.00  0.00     0.202 C 
BRANCH  15  16
HETATM   16  O   UNL     1      66.938   3.235   8.650  1.00  0.00    -0.396 OA
HETATM   17  H   UNL     1      67.160   3.808   9.401  1.00  0.00     0.209 HD
ENDBRANCH  15  16
ENDBRANCH   2  15
TORSDOF 4
ENDMDL
MODEL 6
REMARK VINA RESULT:      -5.2      2.262      6.023
REMARK  4 active torsions:
REMARK  status: ('A' for Active; 'I' for Inactive)
REMARK    1  A    between atoms: C_1  and  O_4 
REMARK    2  A    between atoms: O_4  and  C_5 
REMARK    3  A    between atoms: C_6  and  C_14 
REMARK    4  A    between atoms: O_11  and  C_14 
ROOT
HETATM    1  C   UNL     1      63.551   7.955   5.445  1.00  0.00     0.077 A 
HETATM    2  C   UNL     1      66.017   7.007   6.405  1.00  0.00    -0.035 A 
HETATM    3  C   UNL     1      64.735   8.609   5.101  1.00  0.00     0.038 A 
HETATM    4  C   UNL     1      63.595   6.875   6.330  1.00  0.00     0.038 A 
HETATM    5  C   UNL     1      64.819   6.401   6.807  1.00  0.00     0.012 A 
HETATM    6  C   UNL     1      65.962   8.121   5.557  1.00  0.00     0.012 A 
ENDROOT
BRANCH   1   7
HETATM    7  O   UNL     1      62.297   8.330   5.025  1.00  0.00    -0.294 OA
BRANCH   7   8
HETATM    8  C   UNL     1      62.150   9.203   3.969  1.00  0.00     0.147 A 
HETATM    9  N   UNL     1      62.209   8.607   2.757  1.00  0.00    -0.347 N 
HETATM   10  C   UNL     1      62.094   9.399   1.671  1.00  0.00     0.090 A 
ATOM     11  HN  UNL     1      62.337   7.599   2.667  1.00  0.00     0.167 HD
HETATM   12  C   UNL     1      61.913  10.771   1.732  1.00  0.00     0.017 A 
HETATM   13  C   UNL     1      61.883  11.371   2.985  1.00  0.00     0.006 A 
HETATM   14  C   UNL     1      62.032  10.581   4.121  1.00  0.00     0.056 A 
ENDBRANCH   7   8
ENDBRANCH   1   7
BRANCH   2  15
HETATM   15  C   UNL     1      67.346   6.474   6.866  1.00  0.00     0.202 C 
BRANCH  15  16
HETATM   16  O   UNL     1      67.641   6.951   8.173  1.00  0.00    -0.396 OA
HETATM   17  H   UNL     1      67.005   6.579   8.803  1.00  0.00     0.209 HD
ENDBRANCH  15  16
ENDBRANCH   2  15
TORSDOF 4
ENDMDL
MODEL 7
REMARK VINA RESULT:      -5.2      2.277      5.933
REMARK  4 active torsions:
REMARK  status: ('A' for Active; 'I' for Inactive)
REMARK    1  A    between atoms: C_1  and  O_4 
REMARK    2  A    between atoms: O_4  and  C_5 
REMARK    3  A    between atoms: C_6  and  C_14 
REMARK    4  A    between atoms: O_11  and  C_14 
ROOT
HETATM    1  C   UNL     1      63.733   8.025   5.478  1.00  0.00     0.077 A 
HETATM    2  C   UNL     1      66.178   6.683   5.825  1.00  0.00    -0.035 A 
HETATM    3  C   UNL     1      63.749   6.702   5.921  1.00  0.00     0.038 A 
HETATM    4  C   UNL     1      64.934   8.649   5.136  1.00  0.00     0.038 A 
HETATM    5  C   UNL     1      66.151   7.985   5.308  1.00  0.00     0.012 A 
HETATM    6  C   UNL     1      64.965   6.045   6.119  1.00  0.00     0.012 A 
ENDROOT
BRANCH   1   7
HETATM    7  O   UNL     1      62.596   8.773   5.281  1.00  0.00    -0.294 OA
BRANCH   7   8
HETATM    8  C   UNL     1      62.373   9.393   4.071  1.00  0.00     0.147 A 
HETATM    9  N   UNL     1      62.127  10.719   4.175  1.00  0.00    -0.347 N 
HETATM   10  C   UNL     1      61.879  11.394   3.034  1.00  0.00     0.090 A 
ATOM     11  HN  UNL     1      62.130  11.189   5.081  1.00  0.00     0.167 HD
HETATM   12  C   UNL     1      61.868  10.811   1.778  1.00  0.00     0.017 A 
HETATM   13  C   UNL     1      62.094   9.442   1.692  1.00  0.00     0.006 A 
HETATM   14  C   UNL     1      62.321   8.715   2.857  1.00  0.00     0.056 A 
ENDBRANCH   7   8
ENDBRANCH   1   7
BRANCH   2  15
HETATM   15  C   UNL     1      67.483   5.975   6.070  1.00  0.00     0.202 C 
BRANCH  15  16
HETATM   16  O   UNL     1      68.075   6.439   7.276  1.00  0.00    -0.396 OA
HETATM   17  H   UNL     1      68.959   6.791   7.088  1.00  0.00     0.209 HD
ENDBRANCH  15  16
ENDBRANCH   2  15
TORSDOF 4
ENDMDL
MODEL 8
REMARK VINA RESULT:      -4.6      3.647      6.034
REMARK  4 active torsions:
REMARK  status: ('A' for Active; 'I' for Inactive)
REMARK    1  A    between atoms: C_1  and  O_4 
REMARK    2  A    between atoms: O_4  and  C_5 
REMARK    3  A    between atoms: C_6  and  C_14 
REMARK    4  A    between atoms: O_11  and  C_14 
ROOT
HETATM    1  C   UNL     1      62.174   7.805   3.427  1.00  0.00     0.077 A 
HETATM    2  C   UNL     1      64.723   8.017   4.592  1.00  0.00    -0.035 A 
HETATM    3  C   UNL     1      63.165   6.873   3.118  1.00  0.00     0.038 A 
HETATM    4  C   UNL     1      62.482   8.885   4.258  1.00  0.00     0.038 A 
HETATM    5  C   UNL     1      63.748   8.992   4.839  1.00  0.00     0.012 A 
HETATM    6  C   UNL     1      64.423   6.964   3.718  1.00  0.00     0.012 A 
ENDROOT
BRANCH   1   7
HETATM    7  O   UNL     1      60.896   7.790   2.920  1.00  0.00    -0.294 OA
BRANCH   7   8
HETATM    8  C   UNL     1      59.844   7.364   3.701  1.00  0.00     0.147 A 
HETATM    9  N   UNL     1      58.708   8.077   3.523  1.00  0.00    -0.347 N 
HETATM   10  C   UNL     1      57.637   7.734   4.267  1.00  0.00     0.090 A 
ATOM     11  HN  UNL     1      58.664   8.844   2.851  1.00  0.00     0.167 HD
HETATM   12  C   UNL     1      57.637   6.699   5.188  1.00  0.00     0.017 A 
HETATM   13  C   UNL     1      58.820   5.995   5.380  1.00  0.00     0.006 A 
HETATM   14  C   UNL     1      59.949   6.350   4.648  1.00  0.00     0.056 A 
ENDBRANCH   7   8
ENDBRANCH   1   7
BRANCH   2  15
HETATM   15  C   UNL     1      66.072   8.088   5.254  1.00  0.00     0.202 C 
BRANCH  15  16
HETATM   16  O   UNL     1      66.023   8.956   6.379  1.00  0.00    -0.396 OA
HETATM   17  H   UNL     1      65.972   9.876   6.075  1.00  0.00     0.209 HD
ENDBRANCH  15  16
ENDBRANCH   2  15
TORSDOF 4
ENDMDL
MODEL 9
REMARK VINA RESULT:      -4.5      2.423      2.931
REMARK  4 active torsions:
REMARK  status: ('A' for Active; 'I' for Inactive)
REMARK    1  A    between atoms: C_1  and  O_4 
REMARK    2  A    between atoms: O_4  and  C_5 
REMARK    3  A    between atoms: C_6  and  C_14 
REMARK    4  A    between atoms: O_11  and  C_14 
ROOT
HETATM    1  C   UNL     1      62.700   7.181   6.122  1.00  0.00     0.077 A 
HETATM    2  C   UNL     1      60.557   6.945   4.318  1.00  0.00    -0.035 A 
HETATM    3  C   UNL     1      61.663   6.283   6.379  1.00  0.00     0.038 A 
HETATM    4  C   UNL     1      62.625   8.014   5.004  1.00  0.00     0.038 A 
HETATM    5  C   UNL     1      61.562   7.898   4.105  1.00  0.00     0.012 A 
HETATM    6  C   UNL     1      60.612   6.147   5.469  1.00  0.00     0.012 A 
ENDROOT
BRANCH   1   7
HETATM    7  O   UNL     1      63.794   7.369   6.933  1.00  0.00    -0.294 OA
BRANCH   7   8
HETATM    8  C   UNL     1      65.058   7.064   6.476  1.00  0.00     0.147 A 
HETATM    9  N   UNL     1      65.902   8.121   6.461  1.00  0.00    -0.347 N 
HETATM   10  C   UNL     1      67.154   7.907   6.007  1.00  0.00     0.090 A 
ATOM     11  HN  UNL     1      65.603   9.043   6.780  1.00  0.00     0.167 HD
HETATM   12  C   UNL     1      67.616   6.677   5.567  1.00  0.00     0.017 A 
HETATM   13  C   UNL     1      66.728   5.609   5.563  1.00  0.00     0.006 A 
HETATM   14  C   UNL     1      65.420   5.810   5.996  1.00  0.00     0.056 A 
ENDBRANCH   7   8
ENDBRANCH   1   7
BRANCH   2  15
HETATM   15  C   UNL     1      59.436   6.770   3.330  1.00  0.00     0.202 C 
BRANCH  15  16
HETATM   16  O   UNL     1      58.814   8.020   3.065  1.00  0.00    -0.396 OA
HETATM   17  H   UNL     1      58.796   8.551   3.877  1.00  0.00     0.209 HD
ENDBRANCH  15  16
ENDBRANCH   2  15
TORSDOF 4
ENDMDL
