MODEL 1
REMARK VINA RESULT:      -5.2      0.000      0.000
REMARK  3 active torsions:
REMARK  status: ('A' for Active; 'I' for Inactive)
REMARK    1  A    between atoms: C_1  and  C_2 
REMARK    2  A    between atoms: C_8  and  C_12 
REMARK    3  A    between atoms: N_9  and  C_12 
ROOT
HETATM    1  C   UNL     1      63.409   9.058   4.597  1.00  0.00    -0.025 A 
HETATM    2  C   UNL     1      62.930   8.692   3.328  1.00  0.00     0.021 A 
HETATM    3  C   UNL     1      62.111   9.557   2.583  1.00  0.00    -0.032 A 
HETATM    4  C   UNL     1      63.074  10.320   5.103  1.00  0.00     0.012 A 
HETATM    5  C   UNL     1      62.258  11.188   4.373  1.00  0.00     0.001 A 
HETATM    6  C   UNL     1      61.771  10.803   3.127  1.00  0.00     0.009 A 
ENDROOT
BRANCH   1   7
HETATM    7  C   UNL     1      64.199   8.128   5.412  1.00  0.00    -0.019 A 
HETATM    8  C   UNL     1      65.574   8.217   5.534  1.00  0.00     0.061 A 
HETATM    9  S   UNL     1      66.239   6.975   6.507  1.00  0.00    -0.113 SA
HETATM   10  C   UNL     1      64.697   6.303   6.798  1.00  0.00     0.050 A 
HETATM   11  C   UNL     1      63.700   7.012   6.166  1.00  0.00     0.020 A 
ENDBRANCH   1   7
BRANCH   3  12
HETATM   12  C   UNL     1      61.574   9.128   1.234  1.00  0.00     0.270 C 
BRANCH  12  13
HETATM   13  N   UNL     1      60.150   8.803   1.304  1.00  0.00    -0.075 N 
HETATM   14  C   UNL     1      59.804   7.757   0.353  1.00  0.00     0.267 C 
HETATM   15  H   UNL     1      59.606   9.639   1.091  1.00  0.00     0.277 HD
HETATM   16  H   UNL     1      59.939   8.468   2.244  1.00  0.00     0.277 HD
ENDBRANCH  12  13
ENDBRANCH   3  12
TORSDOF 3
ENDMDL
MODEL 2
REMARK VINA RESULT:      -4.5      3.706      6.704
REMARK  3 active torsions:
REMARK  status: ('A' for Active; 'I' for Inactive)
REMARK    1  A    between atoms: C_1  and  C_2 
REMARK    2  A    between atoms: C_8  and  C_12 
REMARK    3  A    between atoms: N_9  and  C_12 
ROOT
HETATM    1  C   UNL     1      65.494   7.648   5.386  1.00  0.00    -0.025 A 
HETATM    2  C   UNL     1      65.385   6.989   6.622  1.00  0.00     0.021 A 
HETATM    3  C   UNL     1      66.506   6.398   7.231  1.00  0.00    -0.032 A 
HETATM    4  C   UNL     1      66.752   7.729   4.775  1.00  0.00     0.012 A 
HETATM    5  C   UNL     1      67.872   7.143   5.370  1.00  0.00     0.001 A 
HETATM    6  C   UNL     1      67.745   6.472   6.584  1.00  0.00     0.009 A 
ENDROOT
BRANCH   1   7
HETATM    7  C   UNL     1      64.314   8.196   4.708  1.00  0.00    -0.019 A 
HETATM    8  C   UNL     1      63.760   7.620   3.579  1.00  0.00     0.061 A 
HETATM    9  S   UNL     1      62.421   8.496   2.971  1.00  0.00    -0.113 SA
HETATM   10  C   UNL     1      62.545   9.655   4.217  1.00  0.00     0.050 A 
HETATM   11  C   UNL     1      63.585   9.378   5.076  1.00  0.00     0.020 A 
ENDBRANCH   1   7
BRANCH   3  12
HETATM   12  C   UNL     1      66.360   5.660   8.544  1.00  0.00     0.270 C 
BRANCH  12  13
HETATM   13  N   UNL     1      66.417   4.210   8.353  1.00  0.00    -0.075 N 
HETATM   14  C   UNL     1      67.674   3.666   8.844  1.00  0.00     0.267 C 
HETATM   15  H   UNL     1      66.330   4.003   7.358  1.00  0.00     0.277 HD
HETATM   16  H   UNL     1      65.652   3.784   8.876  1.00  0.00     0.277 HD
ENDBRANCH  12  13
ENDBRANCH   3  12
TORSDOF 3
ENDMDL
MODEL 3
REMARK VINA RESULT:      -4.5      3.394      6.092
REMARK  3 active torsions:
REMARK  status: ('A' for Active; 'I' for Inactive)
REMARK    1  A    between atoms: C_1  and  C_2 
REMARK    2  A    between atoms: C_8  and  C_12 
REMARK    3  A    between atoms: N_9  and  C_12 
ROOT
HETATM    1  C   UNL     1      63.287   7.980   4.758  1.00  0.00    -0.025 A 
HETATM    2  C   UNL     1      64.644   7.981   5.121  1.00  0.00     0.021 A 
HETATM    3  C   UNL     1      65.168   6.998   5.979  1.00  0.00    -0.032 A 
HETATM    4  C   UNL     1      62.461   6.961   5.249  1.00  0.00     0.012 A 
HETATM    5  C   UNL     1      62.969   5.981   6.104  1.00  0.00     0.001 A 
HETATM    6  C   UNL     1      64.311   6.008   6.476  1.00  0.00     0.009 A 
ENDROOT
BRANCH   1   7
HETATM    7  C   UNL     1      62.719   9.048   3.928  1.00  0.00    -0.019 A 
HETATM    8  C   UNL     1      62.504   8.908   2.568  1.00  0.00     0.061 A 
HETATM    9  S   UNL     1      61.877  10.327   1.843  1.00  0.00    -0.113 SA
HETATM   10  C   UNL     1      61.864  11.151   3.339  1.00  0.00     0.050 A 
HETATM   11  C   UNL     1      62.329  10.359   4.365  1.00  0.00     0.020 A 
ENDBRANCH   1   7
BRANCH   3  12
HETATM   12  C   UNL     1      66.624   7.040   6.389  1.00  0.00     0.270 C 
BRANCH  12  13
HETATM   13  N   UNL     1      66.802   7.733   7.665  1.00  0.00    -0.075 N 
HETATM   14  C   UNL     1      67.000   6.786   8.752  1.00  0.00     0.267 C 
HETATM   15  H   UNL     1      65.971   8.292   7.859  1.00  0.00     0.277 HD
HETATM   16  H   UNL     1      67.627   8.328   7.599  1.00  0.00     0.277 HD
ENDBRANCH  12  13
ENDBRANCH   3  12
TORSDOF 3
ENDMDL
MODEL 4
REMARK VINA RESULT:      -4.4      1.340      1.497
REMARK  3 active torsions:
REMARK  status: ('A' for Active; 'I' for Inactive)
REMARK    1  A    between atoms: C_1  and  C_2 
REMARK    2  A    between atoms: C_8  and  C_12 
REMARK    3  A    between atoms: N_9  and  C_12 
ROOT
HETATM    1  C   UNL     1      63.990   8.602   4.356  1.00  0.00    -0.025 A 
HETATM    2  C   UNL     1      63.205   8.308   3.230  1.00  0.00     0.021 A 
HETATM    3  C   UNL     1      62.091   9.096   2.894  1.00  0.00    -0.032 A 
HETATM    4  C   UNL     1      63.658   9.719   5.134  1.00  0.00     0.012 A 
HETATM    5  C   UNL     1      62.552  10.509   4.811  1.00  0.00     0.001 A 
HETATM    6  C   UNL     1      61.767  10.191   3.705  1.00  0.00     0.009 A 
ENDROOT
BRANCH   1   7
HETATM    7  C   UNL     1      65.105   7.737   4.756  1.00  0.00    -0.019 A 
HETATM    8  C   UNL     1      65.813   7.919   5.930  1.00  0.00     0.061 A 
HETATM    9  S   UNL     1      67.091   6.795   6.120  1.00  0.00    -0.113 SA
HETATM   10  C   UNL     1      66.709   6.030   4.643  1.00  0.00     0.050 A 
HETATM   11  C   UNL     1      65.633   6.622   4.021  1.00  0.00     0.020 A 
ENDBRANCH   1   7
BRANCH   3  12
HETATM   12  C   UNL     1      61.235   8.739   1.697  1.00  0.00     0.270 C 
BRANCH  12  13
HETATM   13  N   UNL     1      60.669   7.396   1.827  1.00  0.00    -0.075 N 
HETATM   14  C   UNL     1      59.424   7.423   2.579  1.00  0.00     0.267 C 
HETATM   15  H   UNL     1      61.338   6.798   2.311  1.00  0.00     0.277 HD
HETATM   16  H   UNL     1      60.475   7.035   0.893  1.00  0.00     0.277 HD
ENDBRANCH  12  13
ENDBRANCH   3  12
TORSDOF 3
ENDMDL
MODEL 5
REMARK VINA RESULT:      -4.2     10.131     12.192
REMARK  3 active torsions:
REMARK  status: ('A' for Active; 'I' for Inactive)
REMARK    1  A    between atoms: C_1  and  C_2 
REMARK    2  A    between atoms: C_8  and  C_12 
REMARK    3  A    between atoms: N_9  and  C_12 
ROOT
HETATM    1  C   UNL     1      58.301   2.424  11.658  1.00  0.00    -0.025 A 
HETATM    2  C   UNL     1      56.974   2.488  12.112  1.00  0.00     0.021 A 
HETATM    3  C   UNL     1      56.624   2.048  13.400  1.00  0.00    -0.032 A 
HETATM    4  C   UNL     1      59.285   1.931  12.525  1.00  0.00     0.012 A 
HETATM    5  C   UNL     1      58.949   1.489  13.806  1.00  0.00     0.001 A 
HETATM    6  C   UNL     1      57.625   1.536  14.235  1.00  0.00     0.009 A 
ENDROOT
BRANCH   1   7
HETATM    7  C   UNL     1      58.658   2.807  10.287  1.00  0.00    -0.019 A 
HETATM    8  C   UNL     1      59.099   1.897   9.343  1.00  0.00     0.061 A 
HETATM    9  S   UNL     1      59.490   2.627   7.845  1.00  0.00    -0.113 SA
HETATM   10  C   UNL     1      59.060   4.174   8.424  1.00  0.00     0.050 A 
HETATM   11  C   UNL     1      58.629   4.131   9.732  1.00  0.00     0.020 A 
ENDBRANCH   1   7
BRANCH   3  12
HETATM   12  C   UNL     1      55.181   2.091  13.856  1.00  0.00     0.270 C 
BRANCH  12  13
HETATM   13  N   UNL     1      54.929   3.240  14.725  1.00  0.00    -0.075 N 
HETATM   14  C   UNL     1      54.350   4.346  13.977  1.00  0.00     0.267 C 
HETATM   15  H   UNL     1      55.810   3.544  15.140  1.00  0.00     0.277 HD
HETATM   16  H   UNL     1      54.270   2.959  15.451  1.00  0.00     0.277 HD
ENDBRANCH  12  13
ENDBRANCH   3  12
TORSDOF 3
ENDMDL
MODEL 6
REMARK VINA RESULT:      -4.1      2.216      3.342
REMARK  3 active torsions:
REMARK  status: ('A' for Active; 'I' for Inactive)
REMARK    1  A    between atoms: C_1  and  C_2 
REMARK    2  A    between atoms: C_8  and  C_12 
REMARK    3  A    between atoms: N_9  and  C_12 
ROOT
HETATM    1  C   UNL     1      62.248   7.970   2.696  1.00  0.00    -0.025 A 
HETATM    2  C   UNL     1      60.967   7.582   3.118  1.00  0.00     0.021 A 
HETATM    3  C   UNL     1      59.858   7.678   2.259  1.00  0.00    -0.032 A 
HETATM    4  C   UNL     1      62.412   8.438   1.385  1.00  0.00     0.012 A 
HETATM    5  C   UNL     1      61.317   8.541   0.524  1.00  0.00     0.001 A 
HETATM    6  C   UNL     1      60.048   8.175   0.963  1.00  0.00     0.009 A 
ENDROOT
BRANCH   1   7
HETATM    7  C   UNL     1      63.394   7.946   3.613  1.00  0.00    -0.019 A 
HETATM    8  C   UNL     1      64.336   6.934   3.611  1.00  0.00     0.061 A 
HETATM    9  S   UNL     1      65.535   7.136   4.817  1.00  0.00    -0.113 SA
HETATM   10  C   UNL     1      64.825   8.593   5.354  1.00  0.00     0.050 A 
HETATM   11  C   UNL     1      63.700   8.914   4.628  1.00  0.00     0.020 A 
ENDBRANCH   1   7
BRANCH   3  12
HETATM   12  C   UNL     1      58.479   7.290   2.746  1.00  0.00     0.270 C 
BRANCH  12  13
HETATM   13  N   UNL     1      58.111   8.026   3.956  1.00  0.00    -0.075 N 
HETATM   14  C   UNL     1      57.487   7.149   4.934  1.00  0.00     0.267 C 
HETATM   15  H   UNL     1      57.456   8.768   3.708  1.00  0.00     0.277 HD
HETATM   16  H   UNL     1      58.958   8.418   4.366  1.00  0.00     0.277 HD
ENDBRANCH  12  13
ENDBRANCH   3  12
TORSDOF 3
ENDMDL
MODEL 7
REMARK VINA RESULT:      -4.1      3.917      6.700
REMARK  3 active torsions:
REMARK  status: ('A' for Active; 'I' for Inactive)
REMARK    1  A    between atoms: C_1  and  C_2 
REMARK    2  A    between atoms: C_8  and  C_12 
REMARK    3  A    between atoms: N_9  and  C_12 
ROOT
HETATM    1  C   UNL     1      64.978   7.021   4.158  1.00  0.00    -0.025 A 
HETATM    2  C   UNL     1      65.356   7.324   5.476  1.00  0.00     0.021 A 
HETATM    3  C   UNL     1      66.429   6.662   6.095  1.00  0.00    -0.032 A 
HETATM    4  C   UNL     1      65.709   6.055   3.454  1.00  0.00     0.012 A 
HETATM    5  C   UNL     1      66.776   5.388   4.060  1.00  0.00     0.001 A 
HETATM    6  C   UNL     1      67.125   5.682   5.376  1.00  0.00     0.009 A 
ENDROOT
BRANCH   1   7
HETATM    7  C   UNL     1      63.809   7.652   3.534  1.00  0.00    -0.019 A 
HETATM    8  C   UNL     1      63.230   8.809   4.024  1.00  0.00     0.061 A 
HETATM    9  S   UNL     1      61.853   9.296   3.130  1.00  0.00    -0.113 SA
HETATM   10  C   UNL     1      62.015   7.977   2.059  1.00  0.00     0.050 A 
HETATM   11  C   UNL     1      63.096   7.185   2.379  1.00  0.00     0.020 A 
ENDBRANCH   1   7
BRANCH   3  12
HETATM   12  C   UNL     1      66.796   6.976   7.530  1.00  0.00     0.270 C 
BRANCH  12  13
HETATM   13  N   UNL     1      68.073   6.368   7.901  1.00  0.00    -0.075 N 
HETATM   14  C   UNL     1      67.974   5.681   9.180  1.00  0.00     0.267 C 
HETATM   15  H   UNL     1      68.782   7.098   7.970  1.00  0.00     0.277 HD
HETATM   16  H   UNL     1      68.328   5.687   7.186  1.00  0.00     0.277 HD
ENDBRANCH  12  13
ENDBRANCH   3  12
TORSDOF 3
ENDMDL
MODEL 8
REMARK VINA RESULT:      -4.0      2.927      3.756
REMARK  3 active torsions:
REMARK  status: ('A' for Active; 'I' for Inactive)
REMARK    1  A    between atoms: C_1  and  C_2 
REMARK    2  A    between atoms: C_8  and  C_12 
REMARK    3  A    between atoms: N_9  and  C_12 
ROOT
HETATM    1  C   UNL     1      64.384   7.034   3.447  1.00  0.00    -0.025 A 
HETATM    2  C   UNL     1      63.184   7.701   3.152  1.00  0.00     0.021 A 
HETATM    3  C   UNL     1      62.784   8.835   3.879  1.00  0.00    -0.032 A 
HETATM    4  C   UNL     1      65.197   7.536   4.472  1.00  0.00     0.012 A 
HETATM    5  C   UNL     1      64.809   8.660   5.204  1.00  0.00     0.001 A 
HETATM    6  C   UNL     1      63.605   9.298   4.916  1.00  0.00     0.009 A 
ENDROOT
BRANCH   1   7
HETATM    7  C   UNL     1      64.767   5.804   2.745  1.00  0.00    -0.019 A 
HETATM    8  C   UNL     1      65.855   5.035   3.115  1.00  0.00     0.061 A 
HETATM    9  S   UNL     1      66.096   3.683   2.092  1.00  0.00    -0.113 SA
HETATM   10  C   UNL     1      64.737   4.091   1.143  1.00  0.00     0.050 A 
HETATM   11  C   UNL     1      64.117   5.233   1.599  1.00  0.00     0.020 A 
ENDBRANCH   1   7
BRANCH   3  12
HETATM   12  C   UNL     1      61.469   9.517   3.569  1.00  0.00     0.270 C 
BRANCH  12  13
HETATM   13  N   UNL     1      61.478  10.116   2.235  1.00  0.00    -0.075 N 
HETATM   14  C   UNL     1      61.800  11.534   2.300  1.00  0.00     0.267 C 
HETATM   15  H   UNL     1      60.556  10.003   1.813  1.00  0.00     0.277 HD
HETATM   16  H   UNL     1      62.189   9.648   1.674  1.00  0.00     0.277 HD
ENDBRANCH  12  13
ENDBRANCH   3  12
TORSDOF 3
ENDMDL
MODEL 9
REMARK VINA RESULT:      -3.9      3.016      4.094
REMARK  3 active torsions:
REMARK  status: ('A' for Active; 'I' for Inactive)
REMARK    1  A    between atoms: C_1  and  C_2 
REMARK    2  A    between atoms: C_8  and  C_12 
REMARK    3  A    between atoms: N_9  and  C_12 
ROOT
HETATM    1  C   UNL     1      64.935   6.982   6.186  1.00  0.00    -0.025 A 
HETATM    2  C   UNL     1      63.633   6.456   6.196  1.00  0.00     0.021 A 
HETATM    3  C   UNL     1      62.590   7.080   5.489  1.00  0.00    -0.032 A 
HETATM    4  C   UNL     1      65.187   8.137   5.434  1.00  0.00     0.012 A 
HETATM    5  C   UNL     1      64.159   8.767   4.729  1.00  0.00     0.001 A 
HETATM    6  C   UNL     1      62.868   8.248   4.767  1.00  0.00     0.009 A 
ENDROOT
BRANCH   1   7
HETATM    7  C   UNL     1      66.007   6.380   6.986  1.00  0.00    -0.019 A 
HETATM    8  C   UNL     1      66.978   5.558   6.443  1.00  0.00     0.061 A 
HETATM    9  S   UNL     1      68.075   4.958   7.613  1.00  0.00    -0.113 SA
HETATM   10  C   UNL     1      67.282   5.802   8.867  1.00  0.00     0.050 A 
HETATM   11  C   UNL     1      66.206   6.523   8.401  1.00  0.00     0.020 A 
ENDBRANCH   1   7
BRANCH   3  12
HETATM   12  C   UNL     1      61.186   6.518   5.544  1.00  0.00     0.270 C 
BRANCH  12  13
HETATM   13  N   UNL     1      60.826   6.111   6.902  1.00  0.00    -0.075 N 
HETATM   14  C   UNL     1      60.404   4.719   6.938  1.00  0.00     0.267 C 
HETATM   15  H   UNL     1      60.061   6.699   7.234  1.00  0.00     0.277 HD
HETATM   16  H   UNL     1      61.645   6.217   7.500  1.00  0.00     0.277 HD
ENDBRANCH  12  13
ENDBRANCH   3  12
TORSDOF 3
ENDMDL
