MODEL 1
REMARK VINA RESULT:      -5.0      0.000      0.000
REMARK  3 active torsions:
REMARK  status: ('A' for Active; 'I' for Inactive)
REMARK    1  A    between atoms: C_1  and  C_2 
REMARK    2  A    between atoms: C_5  and  C_10 
REMARK    3  A    between atoms: C_10  and  O_11 
ROOT
HETATM    1  C   UNL     1      62.346   9.663   3.059  1.00  0.00     0.159 A 
HETATM    2  O   UNL     1      62.393  10.735   3.912  1.00  0.00    -0.308 OA
HETATM    3  C   UNL     1      62.851   8.545   3.693  1.00  0.00     0.045 A 
HETATM    4  C   UNL     1      62.925  10.292   5.089  1.00  0.00     0.077 A 
HETATM    5  C   UNL     1      63.220   8.949   4.998  1.00  0.00     0.038 A 
ENDROOT
BRANCH   1   6
HETATM    6  C   UNL     1      61.794   9.882   1.696  1.00  0.00     0.439 C 
HETATM    7  F   UNL     1      62.661   9.545   0.707  1.00  0.00    -0.164 F 
HETATM    8  F   UNL     1      60.664   9.153   1.491  1.00  0.00    -0.164 F 
HETATM    9  F   UNL     1      61.456  11.182   1.496  1.00  0.00    -0.164 F 
ENDBRANCH   1   6
BRANCH   4  10
HETATM   10  C   UNL     1      63.067  11.294   6.171  1.00  0.00     0.229 C 
BRANCH  10  11
HETATM   11  O   UNL     1      64.455  11.462   6.427  1.00  0.00    -0.394 OA
HETATM   12  H   UNL     1      64.799  10.674   6.876  1.00  0.00     0.209 HD
ENDBRANCH  10  11
ENDBRANCH   4  10
TORSDOF 3
ENDMDL
MODEL 2
REMARK VINA RESULT:      -4.9      4.091      4.753
REMARK  3 active torsions:
REMARK  status: ('A' for Active; 'I' for Inactive)
REMARK    1  A    between atoms: C_1  and  C_2 
REMARK    2  A    between atoms: C_5  and  C_10 
REMARK    3  A    between atoms: C_10  and  O_11 
ROOT
HETATM    1  C   UNL     1      65.291   8.272   5.132  1.00  0.00     0.159 A 
HETATM    2  O   UNL     1      64.973   9.466   5.725  1.00  0.00    -0.308 OA
HETATM    3  C   UNL     1      64.244   7.861   4.330  1.00  0.00     0.045 A 
HETATM    4  C   UNL     1      63.724   9.812   5.293  1.00  0.00     0.077 A 
HETATM    5  C   UNL     1      63.239   8.851   4.432  1.00  0.00     0.038 A 
ENDROOT
BRANCH   1   6
HETATM    6  C   UNL     1      66.618   7.674   5.437  1.00  0.00     0.439 C 
HETATM    7  F   UNL     1      67.593   8.072   4.580  1.00  0.00    -0.164 F 
HETATM    8  F   UNL     1      67.037   8.001   6.688  1.00  0.00    -0.164 F 
HETATM    9  F   UNL     1      66.579   6.318   5.385  1.00  0.00    -0.164 F 
ENDBRANCH   1   6
BRANCH   4  10
HETATM   10  C   UNL     1      63.173  11.086   5.811  1.00  0.00     0.229 C 
BRANCH  10  11
HETATM   11  O   UNL     1      64.204  11.741   6.539  1.00  0.00    -0.394 OA
HETATM   12  H   UNL     1      64.433  12.573   6.097  1.00  0.00     0.209 HD
ENDBRANCH  10  11
ENDBRANCH   4  10
TORSDOF 3
ENDMDL
MODEL 3
REMARK VINA RESULT:      -4.4      2.723      3.359
REMARK  3 active torsions:
REMARK  status: ('A' for Active; 'I' for Inactive)
REMARK    1  A    between atoms: C_1  and  C_2 
REMARK    2  A    between atoms: C_5  and  C_10 
REMARK    3  A    between atoms: C_10  and  O_11 
ROOT
HETATM    1  C   UNL     1      63.545   8.456   4.063  1.00  0.00     0.159 A 
HETATM    2  O   UNL     1      63.835   9.327   5.081  1.00  0.00    -0.308 OA
HETATM    3  C   UNL     1      62.473   8.934   3.336  1.00  0.00     0.045 A 
HETATM    4  C   UNL     1      62.946  10.360   4.994  1.00  0.00     0.077 A 
HETATM    5  C   UNL     1      62.090  10.159   3.933  1.00  0.00     0.038 A 
ENDROOT
BRANCH   1   6
HETATM    6  C   UNL     1      64.383   7.234   3.931  1.00  0.00     0.439 C 
HETATM    7  F   UNL     1      64.399   6.729   2.672  1.00  0.00    -0.164 F 
HETATM    8  F   UNL     1      65.676   7.477   4.273  1.00  0.00    -0.164 F 
HETATM    9  F   UNL     1      63.948   6.240   4.748  1.00  0.00    -0.164 F 
ENDBRANCH   1   6
BRANCH   4  10
HETATM   10  C   UNL     1      63.077  11.434   6.006  1.00  0.00     0.229 C 
BRANCH  10  11
HETATM   11  O   UNL     1      64.429  11.455   6.444  1.00  0.00    -0.394 OA
HETATM   12  H   UNL     1      64.455  11.518   7.411  1.00  0.00     0.209 HD
ENDBRANCH  10  11
ENDBRANCH   4  10
TORSDOF 3
ENDMDL
MODEL 4
REMARK VINA RESULT:      -4.3      1.517      2.330
REMARK  3 active torsions:
REMARK  status: ('A' for Active; 'I' for Inactive)
REMARK    1  A    between atoms: C_1  and  C_2 
REMARK    2  A    between atoms: C_5  and  C_10 
REMARK    3  A    between atoms: C_10  and  O_11 
ROOT
HETATM    1  C   UNL     1      62.325   9.883   3.197  1.00  0.00     0.159 A 
HETATM    2  O   UNL     1      62.958   8.731   3.586  1.00  0.00    -0.308 OA
HETATM    3  C   UNL     1      62.275  10.765   4.259  1.00  0.00     0.045 A 
HETATM    4  C   UNL     1      63.313   8.887   4.895  1.00  0.00     0.077 A 
HETATM    5  C   UNL     1      62.913  10.126   5.349  1.00  0.00     0.038 A 
ENDROOT
BRANCH   1   6
HETATM    6  C   UNL     1      61.839   9.971   1.794  1.00  0.00     0.439 C 
HETATM    7  F   UNL     1      60.657   9.334   1.596  1.00  0.00    -0.164 F 
HETATM    8  F   UNL     1      61.658  11.262   1.409  1.00  0.00    -0.164 F 
HETATM    9  F   UNL     1      62.728   9.429   0.922  1.00  0.00    -0.164 F 
ENDBRANCH   1   6
BRANCH   4  10
HETATM   10  C   UNL     1      64.023   7.752   5.530  1.00  0.00     0.229 C 
BRANCH  10  11
HETATM   11  O   UNL     1      63.431   7.527   6.802  1.00  0.00    -0.394 OA
HETATM   12  H   UNL     1      62.656   6.953   6.702  1.00  0.00     0.209 HD
ENDBRANCH  10  11
ENDBRANCH   4  10
TORSDOF 3
ENDMDL
MODEL 5
REMARK VINA RESULT:      -4.2      6.451      7.326
REMARK  3 active torsions:
REMARK  status: ('A' for Active; 'I' for Inactive)
REMARK    1  A    between atoms: C_1  and  C_2 
REMARK    2  A    between atoms: C_5  and  C_10 
REMARK    3  A    between atoms: C_10  and  O_11 
ROOT
HETATM    1  C   UNL     1      66.743   6.480   7.365  1.00  0.00     0.159 A 
HETATM    2  O   UNL     1      65.750   7.379   7.077  1.00  0.00    -0.308 OA
HETATM    3  C   UNL     1      67.438   6.173   6.211  1.00  0.00     0.045 A 
HETATM    4  C   UNL     1      65.819   7.643   5.739  1.00  0.00     0.077 A 
HETATM    5  C   UNL     1      66.845   6.922   5.168  1.00  0.00     0.038 A 
ENDROOT
BRANCH   1   6
HETATM    6  C   UNL     1      66.888   6.028   8.774  1.00  0.00     0.439 C 
HETATM    7  F   UNL     1      66.828   4.679   8.913  1.00  0.00    -0.164 F 
HETATM    8  F   UNL     1      68.073   6.425   9.307  1.00  0.00    -0.164 F 
HETATM    9  F   UNL     1      65.915   6.547   9.568  1.00  0.00    -0.164 F 
ENDBRANCH   1   6
BRANCH   4  10
HETATM   10  C   UNL     1      64.828   8.605   5.202  1.00  0.00     0.229 C 
BRANCH  10  11
HETATM   11  O   UNL     1      64.967   9.821   5.925  1.00  0.00    -0.394 OA
HETATM   12  H   UNL     1      65.311  10.510   5.335  1.00  0.00     0.209 HD
ENDBRANCH  10  11
ENDBRANCH   4  10
TORSDOF 3
ENDMDL
MODEL 6
REMARK VINA RESULT:      -4.0      4.262      4.984
REMARK  3 active torsions:
REMARK  status: ('A' for Active; 'I' for Inactive)
REMARK    1  A    between atoms: C_1  and  C_2 
REMARK    2  A    between atoms: C_5  and  C_10 
REMARK    3  A    between atoms: C_10  and  O_11 
ROOT
HETATM    1  C   UNL     1      65.220   8.126   5.590  1.00  0.00     0.159 A 
HETATM    2  O   UNL     1      65.224   7.624   6.865  1.00  0.00    -0.308 OA
HETATM    3  C   UNL     1      66.436   7.868   4.988  1.00  0.00     0.045 A 
HETATM    4  C   UNL     1      66.443   7.044   7.068  1.00  0.00     0.077 A 
HETATM    5  C   UNL     1      67.220   7.171   5.937  1.00  0.00     0.038 A 
ENDROOT
BRANCH   1   6
HETATM    6  C   UNL     1      63.988   8.811   5.115  1.00  0.00     0.439 C 
HETATM    7  F   UNL     1      64.000  10.149   5.338  1.00  0.00    -0.164 F 
HETATM    8  F   UNL     1      63.805   8.637   3.779  1.00  0.00    -0.164 F 
HETATM    9  F   UNL     1      62.877   8.320   5.723  1.00  0.00    -0.164 F 
ENDBRANCH   1   6
BRANCH   4  10
HETATM   10  C   UNL     1      66.671   6.426   8.395  1.00  0.00     0.229 C 
BRANCH  10  11
HETATM   11  O   UNL     1      68.039   6.615   8.733  1.00  0.00    -0.394 OA
HETATM   12  H   UNL     1      68.600   6.220   8.048  1.00  0.00     0.209 HD
ENDBRANCH  10  11
ENDBRANCH   4  10
TORSDOF 3
ENDMDL
MODEL 7
REMARK VINA RESULT:      -4.0      2.701      3.267
REMARK  3 active torsions:
REMARK  status: ('A' for Active; 'I' for Inactive)
REMARK    1  A    between atoms: C_1  and  C_2 
REMARK    2  A    between atoms: C_5  and  C_10 
REMARK    3  A    between atoms: C_10  and  O_11 
ROOT
HETATM    1  C   UNL     1      63.526   9.051   4.465  1.00  0.00     0.159 A 
HETATM    2  O   UNL     1      64.448   9.304   5.446  1.00  0.00    -0.308 OA
HETATM    3  C   UNL     1      63.831   7.858   3.840  1.00  0.00     0.045 A 
HETATM    4  C   UNL     1      65.336   8.267   5.445  1.00  0.00     0.077 A 
HETATM    5  C   UNL     1      64.993   7.353   4.472  1.00  0.00     0.038 A 
ENDROOT
BRANCH   1   6
HETATM    6  C   UNL     1      62.433  10.039   4.263  1.00  0.00     0.439 C 
HETATM    7  F   UNL     1      61.195   9.485   4.307  1.00  0.00    -0.164 F 
HETATM    8  F   UNL     1      62.461  11.015   5.210  1.00  0.00    -0.164 F 
HETATM    9  F   UNL     1      62.541  10.665   3.062  1.00  0.00    -0.164 F 
ENDBRANCH   1   6
BRANCH   4  10
HETATM   10  C   UNL     1      66.431   8.330   6.441  1.00  0.00     0.229 C 
BRANCH  10  11
HETATM   11  O   UNL     1      67.664   8.287   5.734  1.00  0.00    -0.394 OA
HETATM   12  H   UNL     1      68.038   9.180   5.682  1.00  0.00     0.209 HD
ENDBRANCH  10  11
ENDBRANCH   4  10
TORSDOF 3
ENDMDL
MODEL 8
REMARK VINA RESULT:      -4.0      1.602      1.721
REMARK  3 active torsions:
REMARK  status: ('A' for Active; 'I' for Inactive)
REMARK    1  A    between atoms: C_1  and  C_2 
REMARK    2  A    between atoms: C_5  and  C_10 
REMARK    3  A    between atoms: C_10  and  O_11 
ROOT
HETATM    1  C   UNL     1      62.011   8.785   2.786  1.00  0.00     0.159 A 
HETATM    2  O   UNL     1      63.257   8.954   3.329  1.00  0.00    -0.308 OA
HETATM    3  C   UNL     1      61.251   7.981   3.613  1.00  0.00     0.045 A 
HETATM    4  C   UNL     1      63.285   8.258   4.504  1.00  0.00     0.077 A 
HETATM    5  C   UNL     1      62.070   7.644   4.717  1.00  0.00     0.038 A 
ENDROOT
BRANCH   1   6
HETATM    6  C   UNL     1      61.717   9.455   1.491  1.00  0.00     0.439 C 
HETATM    7  F   UNL     1      62.609   9.148   0.515  1.00  0.00    -0.164 F 
HETATM    8  F   UNL     1      60.488   9.116   1.021  1.00  0.00    -0.164 F 
HETATM    9  F   UNL     1      61.723  10.808   1.616  1.00  0.00    -0.164 F 
ENDBRANCH   1   6
BRANCH   4  10
HETATM   10  C   UNL     1      64.552   8.303   5.271  1.00  0.00     0.229 C 
BRANCH  10  11
HETATM   11  O   UNL     1      64.736   9.638   5.726  1.00  0.00    -0.394 OA
HETATM   12  H   UNL     1      65.439  10.061   5.210  1.00  0.00     0.209 HD
ENDBRANCH  10  11
ENDBRANCH   4  10
TORSDOF 3
ENDMDL
MODEL 9
REMARK VINA RESULT:      -3.9      2.935      3.964
REMARK  3 active torsions:
REMARK  status: ('A' for Active; 'I' for Inactive)
REMARK    1  A    between atoms: C_1  and  C_2 
REMARK    2  A    between atoms: C_5  and  C_10 
REMARK    3  A    between atoms: C_10  and  O_11 
ROOT
HETATM    1  C   UNL     1      63.482   8.796   4.271  1.00  0.00     0.159 A 
HETATM    2  O   UNL     1      62.889   9.148   3.088  1.00  0.00    -0.308 OA
HETATM    3  C   UNL     1      63.218   9.759   5.225  1.00  0.00     0.045 A 
HETATM    4  C   UNL     1      62.245  10.334   3.294  1.00  0.00     0.077 A 
HETATM    5  C   UNL     1      62.422  10.746   4.598  1.00  0.00     0.038 A 
ENDROOT
BRANCH   1   6
HETATM    6  C   UNL     1      64.250   7.523   4.315  1.00  0.00     0.439 C 
HETATM    7  F   UNL     1      63.621   6.542   5.010  1.00  0.00    -0.164 F 
HETATM    8  F   UNL     1      64.480   7.035   3.067  1.00  0.00    -0.164 F 
HETATM    9  F   UNL     1      65.468   7.694   4.891  1.00  0.00    -0.164 F 
ENDBRANCH   1   6
BRANCH   4  10
HETATM   10  C   UNL     1      61.523  10.908   2.135  1.00  0.00     0.229 C 
BRANCH  10  11
HETATM   11  O   UNL     1      62.128  12.155   1.820  1.00  0.00    -0.394 OA
HETATM   12  H   UNL     1      61.651  12.569   1.084  1.00  0.00     0.209 HD
ENDBRANCH  10  11
ENDBRANCH   4  10
TORSDOF 3
ENDMDL
