MODEL 1
REMARK VINA RESULT:      -6.0      0.000      0.000
REMARK  2 active torsions:
REMARK  status: ('A' for Active; 'I' for Inactive)
REMARK    1  A    between atoms: C_1  and  C_5 
REMARK    2  A    between atoms: C_2  and  C_7 
ROOT
HETATM    1  C   UNL     1      63.870   7.699   5.477  1.00  0.00     0.077 A 
HETATM    2  C   UNL     1      62.723   8.138   4.831  1.00  0.00     0.103 A 
HETATM    3  O   UNL     1      61.653   7.372   5.213  1.00  0.00    -0.314 OA
HETATM    4  C   UNL     1      63.470   6.572   6.255  1.00  0.00     0.053 A 
HETATM    5  C   UNL     1      62.116   6.420   6.068  1.00  0.00     0.051 A 
HETATM    6  C   UNL     1      61.123   5.458   6.590  1.00  0.00     0.077 C 
ENDROOT
BRANCH   2   7
HETATM    7  C   UNL     1      62.443   9.162   3.827  1.00  0.00    -0.001 A 
HETATM    8  C   UNL     1      62.223  10.491   4.216  1.00  0.00     0.014 A 
HETATM    9  C   UNL     1      61.884  11.471   3.284  1.00  0.00     0.001 A 
HETATM   10  C   UNL     1      61.787  11.138   1.938  1.00  0.00     0.000 A 
HETATM   11  C   UNL     1      62.044   9.836   1.525  1.00  0.00     0.001 A 
HETATM   12  C   UNL     1      62.372   8.849   2.463  1.00  0.00     0.014 A 
ENDBRANCH   2   7
BRANCH   1  13
HETATM   13  C   UNL     1      65.188   8.274   5.360  1.00  0.00     0.212 C 
HETATM   14  O   UNL     1      66.160   7.773   4.813  1.00  0.00    -0.644 OA
HETATM   15  O   UNL     1      65.317   9.480   5.955  1.00  0.00    -0.644 OA
ENDBRANCH   1  13
TORSDOF 2
ENDMDL
MODEL 2
REMARK VINA RESULT:      -5.7      1.858      4.844
REMARK  2 active torsions:
REMARK  status: ('A' for Active; 'I' for Inactive)
REMARK    1  A    between atoms: C_1  and  C_5 
REMARK    2  A    between atoms: C_2  and  C_7 
ROOT
HETATM    1  C   UNL     1      62.559   9.958   3.790  1.00  0.00     0.077 A 
HETATM    2  C   UNL     1      63.242   8.750   3.824  1.00  0.00     0.103 A 
HETATM    3  O   UNL     1      63.088   8.096   2.630  1.00  0.00    -0.314 OA
HETATM    4  C   UNL     1      61.919  10.006   2.517  1.00  0.00     0.053 A 
HETATM    5  C   UNL     1      62.278   8.859   1.847  1.00  0.00     0.051 A 
HETATM    6  C   UNL     1      61.955   8.325   0.507  1.00  0.00     0.077 C 
ENDROOT
BRANCH   2   7
HETATM    7  C   UNL     1      64.006   8.035   4.844  1.00  0.00    -0.001 A 
HETATM    8  C   UNL     1      63.406   7.006   5.584  1.00  0.00     0.014 A 
HETATM    9  C   UNL     1      64.093   6.359   6.610  1.00  0.00     0.001 A 
HETATM   10  C   UNL     1      65.406   6.715   6.894  1.00  0.00     0.000 A 
HETATM   11  C   UNL     1      66.034   7.703   6.144  1.00  0.00     0.001 A 
HETATM   12  C   UNL     1      65.340   8.363   5.122  1.00  0.00     0.014 A 
ENDBRANCH   2   7
BRANCH   1  13
HETATM   13  C   UNL     1      62.513  10.940   4.846  1.00  0.00     0.212 C 
HETATM   14  O   UNL     1      62.957  10.819   5.979  1.00  0.00    -0.644 OA
HETATM   15  O   UNL     1      61.878  12.083   4.507  1.00  0.00    -0.644 OA
ENDBRANCH   1  13
TORSDOF 2
ENDMDL
MODEL 3
REMARK VINA RESULT:      -5.6      1.057      3.222
REMARK  2 active torsions:
REMARK  status: ('A' for Active; 'I' for Inactive)
REMARK    1  A    between atoms: C_1  and  C_5 
REMARK    2  A    between atoms: C_2  and  C_7 
ROOT
HETATM    1  C   UNL     1      63.514   7.249   5.723  1.00  0.00     0.077 A 
HETATM    2  C   UNL     1      63.810   8.347   4.927  1.00  0.00     0.103 A 
HETATM    3  O   UNL     1      65.127   8.691   5.082  1.00  0.00    -0.314 OA
HETATM    4  C   UNL     1      64.714   6.950   6.433  1.00  0.00     0.053 A 
HETATM    5  C   UNL     1      65.665   7.847   6.002  1.00  0.00     0.051 A 
HETATM    6  C   UNL     1      67.088   8.058   6.345  1.00  0.00     0.077 C 
ENDROOT
BRANCH   2   7
HETATM    7  C   UNL     1      63.029   9.209   4.044  1.00  0.00    -0.001 A 
HETATM    8  C   UNL     1      62.724   8.795   2.739  1.00  0.00     0.014 A 
HETATM    9  C   UNL     1      62.042   9.630   1.856  1.00  0.00     0.001 A 
HETATM   10  C   UNL     1      61.629  10.889   2.276  1.00  0.00     0.000 A 
HETATM   11  C   UNL     1      61.882  11.303   3.579  1.00  0.00     0.001 A 
HETATM   12  C   UNL     1      62.579  10.469   4.463  1.00  0.00     0.014 A 
ENDBRANCH   2   7
BRANCH   1  13
HETATM   13  C   UNL     1      62.242   6.575   5.806  1.00  0.00     0.212 C 
HETATM   14  O   UNL     1      61.749   5.834   4.967  1.00  0.00    -0.644 OA
HETATM   15  O   UNL     1      61.549   6.844   6.934  1.00  0.00    -0.644 OA
ENDBRANCH   1  13
TORSDOF 2
ENDMDL
MODEL 4
REMARK VINA RESULT:      -5.3      2.231      3.274
REMARK  2 active torsions:
REMARK  status: ('A' for Active; 'I' for Inactive)
REMARK    1  A    between atoms: C_1  and  C_5 
REMARK    2  A    between atoms: C_2  and  C_7 
ROOT
HETATM    1  C   UNL     1      63.530   9.310   4.723  1.00  0.00     0.077 A 
HETATM    2  C   UNL     1      63.165   8.373   3.767  1.00  0.00     0.103 A 
HETATM    3  O   UNL     1      64.081   7.354   3.743  1.00  0.00    -0.314 OA
HETATM    4  C   UNL     1      64.764   8.849   5.268  1.00  0.00     0.053 A 
HETATM    5  C   UNL     1      65.052   7.655   4.648  1.00  0.00     0.051 A 
HETATM    6  C   UNL     1      66.167   6.692   4.770  1.00  0.00     0.077 C 
ENDROOT
BRANCH   2   7
HETATM    7  C   UNL     1      62.088   8.280   2.784  1.00  0.00    -0.001 A 
HETATM    8  C   UNL     1      60.823   7.812   3.165  1.00  0.00     0.014 A 
HETATM    9  C   UNL     1      59.801   7.647   2.230  1.00  0.00     0.001 A 
HETATM   10  C   UNL     1      60.025   7.976   0.899  1.00  0.00     0.000 A 
HETATM   11  C   UNL     1      61.259   8.482   0.507  1.00  0.00     0.001 A 
HETATM   12  C   UNL     1      62.289   8.636   1.443  1.00  0.00     0.014 A 
ENDBRANCH   2   7
BRANCH   1  13
HETATM   13  C   UNL     1      62.799  10.506   5.066  1.00  0.00     0.212 C 
HETATM   14  O   UNL     1      61.955  11.069   4.384  1.00  0.00    -0.644 OA
HETATM   15  O   UNL     1      63.138  11.034   6.261  1.00  0.00    -0.644 OA
ENDBRANCH   1  13
TORSDOF 2
ENDMDL
MODEL 5
REMARK VINA RESULT:      -5.0      2.077      5.110
REMARK  2 active torsions:
REMARK  status: ('A' for Active; 'I' for Inactive)
REMARK    1  A    between atoms: C_1  and  C_5 
REMARK    2  A    between atoms: C_2  and  C_7 
ROOT
HETATM    1  C   UNL     1      62.417   8.220   1.981  1.00  0.00     0.077 A 
HETATM    2  C   UNL     1      62.747   8.667   3.252  1.00  0.00     0.103 A 
HETATM    3  O   UNL     1      62.482  10.007   3.357  1.00  0.00    -0.314 OA
HETATM    4  C   UNL     1      61.973   9.373   1.268  1.00  0.00     0.053 A 
HETATM    5  C   UNL     1      62.023  10.429   2.148  1.00  0.00     0.051 A 
HETATM    6  C   UNL     1      61.695  11.865   2.028  1.00  0.00     0.077 C 
ENDROOT
BRANCH   2   7
HETATM    7  C   UNL     1      63.349   8.045   4.430  1.00  0.00    -0.001 A 
HETATM    8  C   UNL     1      64.682   8.315   4.768  1.00  0.00     0.014 A 
HETATM    9  C   UNL     1      65.298   7.679   5.845  1.00  0.00     0.001 A 
HETATM   10  C   UNL     1      64.576   6.780   6.620  1.00  0.00     0.000 A 
HETATM   11  C   UNL     1      63.240   6.530   6.329  1.00  0.00     0.001 A 
HETATM   12  C   UNL     1      62.624   7.159   5.239  1.00  0.00     0.014 A 
ENDBRANCH   2   7
BRANCH   1  13
HETATM   13  C   UNL     1      62.522   6.864   1.499  1.00  0.00     0.212 C 
HETATM   14  O   UNL     1      63.552   6.251   1.258  1.00  0.00    -0.644 OA
HETATM   15  O   UNL     1      61.332   6.264   1.282  1.00  0.00    -0.644 OA
ENDBRANCH   1  13
TORSDOF 2
ENDMDL
MODEL 6
REMARK VINA RESULT:      -4.9      2.240      4.987
REMARK  2 active torsions:
REMARK  status: ('A' for Active; 'I' for Inactive)
REMARK    1  A    between atoms: C_1  and  C_5 
REMARK    2  A    between atoms: C_2  and  C_7 
ROOT
HETATM    1  C   UNL     1      63.477   9.000   4.232  1.00  0.00     0.077 A 
HETATM    2  C   UNL     1      64.320   7.900   4.303  1.00  0.00     0.103 A 
HETATM    3  O   UNL     1      64.042   7.035   3.278  1.00  0.00    -0.314 OA
HETATM    4  C   UNL     1      62.610   8.754   3.127  1.00  0.00     0.053 A 
HETATM    5  C   UNL     1      62.999   7.554   2.576  1.00  0.00     0.051 A 
HETATM    6  C   UNL     1      62.512   6.762   1.427  1.00  0.00     0.077 C 
ENDROOT
BRANCH   2   7
HETATM    7  C   UNL     1      65.356   7.464   5.236  1.00  0.00    -0.001 A 
HETATM    8  C   UNL     1      66.708   7.520   4.868  1.00  0.00     0.014 A 
HETATM    9  C   UNL     1      67.708   7.043   5.714  1.00  0.00     0.001 A 
HETATM   10  C   UNL     1      67.370   6.526   6.959  1.00  0.00     0.000 A 
HETATM   11  C   UNL     1      66.040   6.501   7.362  1.00  0.00     0.001 A 
HETATM   12  C   UNL     1      65.034   6.968   6.507  1.00  0.00     0.014 A 
ENDBRANCH   2   7
BRANCH   1  13
HETATM   13  C   UNL     1      63.488  10.140   5.116  1.00  0.00     0.212 C 
HETATM   14  O   UNL     1      64.351  10.424   5.934  1.00  0.00    -0.644 OA
HETATM   15  O   UNL     1      62.397  10.929   5.009  1.00  0.00    -0.644 OA
ENDBRANCH   1  13
TORSDOF 2
ENDMDL
MODEL 7
REMARK VINA RESULT:      -4.9      2.179      5.286
REMARK  2 active torsions:
REMARK  status: ('A' for Active; 'I' for Inactive)
REMARK    1  A    between atoms: C_1  and  C_5 
REMARK    2  A    between atoms: C_2  and  C_7 
ROOT
HETATM    1  C   UNL     1      63.475   7.939   4.104  1.00  0.00     0.077 A 
HETATM    2  C   UNL     1      64.377   8.253   5.110  1.00  0.00     0.103 A 
HETATM    3  O   UNL     1      64.095   9.494   5.616  1.00  0.00    -0.314 OA
HETATM    4  C   UNL     1      62.633   9.082   3.967  1.00  0.00     0.053 A 
HETATM    5  C   UNL     1      63.043   9.994   4.912  1.00  0.00     0.051 A 
HETATM    6  C   UNL     1      62.582  11.350   5.279  1.00  0.00     0.077 C 
ENDROOT
BRANCH   2   7
HETATM    7  C   UNL     1      65.550   7.590   5.676  1.00  0.00    -0.001 A 
HETATM    8  C   UNL     1      66.779   7.633   5.003  1.00  0.00     0.014 A 
HETATM    9  C   UNL     1      67.893   6.949   5.487  1.00  0.00     0.001 A 
HETATM   10  C   UNL     1      67.799   6.229   6.673  1.00  0.00     0.000 A 
HETATM   11  C   UNL     1      66.601   6.209   7.378  1.00  0.00     0.001 A 
HETATM   12  C   UNL     1      65.479   6.886   6.886  1.00  0.00     0.014 A 
ENDBRANCH   2   7
BRANCH   1  13
HETATM   13  C   UNL     1      63.428   6.707   3.355  1.00  0.00     0.212 C 
HETATM   14  O   UNL     1      64.225   6.336   2.505  1.00  0.00    -0.644 OA
HETATM   15  O   UNL     1      62.360   5.931   3.640  1.00  0.00    -0.644 OA
ENDBRANCH   1  13
TORSDOF 2
ENDMDL
MODEL 8
REMARK VINA RESULT:      -4.9      2.017      4.804
REMARK  2 active torsions:
REMARK  status: ('A' for Active; 'I' for Inactive)
REMARK    1  A    between atoms: C_1  and  C_5 
REMARK    2  A    between atoms: C_2  and  C_7 
ROOT
HETATM    1  C   UNL     1      62.281   7.545   4.716  1.00  0.00     0.077 A 
HETATM    2  C   UNL     1      63.473   7.749   4.035  1.00  0.00     0.103 A 
HETATM    3  O   UNL     1      63.220   8.330   2.821  1.00  0.00    -0.314 OA
HETATM    4  C   UNL     1      61.250   7.986   3.835  1.00  0.00     0.053 A 
HETATM    5  C   UNL     1      61.871   8.461   2.703  1.00  0.00     0.051 A 
HETATM    6  C   UNL     1      61.369   9.049   1.443  1.00  0.00     0.077 C 
ENDROOT
BRANCH   2   7
HETATM    7  C   UNL     1      64.873   7.432   4.307  1.00  0.00    -0.001 A 
HETATM    8  C   UNL     1      65.493   6.356   3.657  1.00  0.00     0.014 A 
HETATM    9  C   UNL     1      66.806   5.991   3.953  1.00  0.00     0.001 A 
HETATM   10  C   UNL     1      67.530   6.720   4.889  1.00  0.00     0.000 A 
HETATM   11  C   UNL     1      66.949   7.817   5.514  1.00  0.00     0.001 A 
HETATM   12  C   UNL     1      65.626   8.176   5.226  1.00  0.00     0.014 A 
ENDBRANCH   2   7
BRANCH   1  13
HETATM   13  C   UNL     1      62.141   6.987   6.039  1.00  0.00     0.212 C 
HETATM   14  O   UNL     1      61.633   5.914   6.331  1.00  0.00    -0.644 OA
HETATM   15  O   UNL     1      62.609   7.783   7.024  1.00  0.00    -0.644 OA
ENDBRANCH   1  13
TORSDOF 2
ENDMDL
MODEL 9
REMARK VINA RESULT:      -4.9      2.955      3.957
REMARK  2 active torsions:
REMARK  status: ('A' for Active; 'I' for Inactive)
REMARK    1  A    between atoms: C_1  and  C_5 
REMARK    2  A    between atoms: C_2  and  C_7 
ROOT
HETATM    1  C   UNL     1      62.371   9.410   3.722  1.00  0.00     0.077 A 
HETATM    2  C   UNL     1      61.622   8.253   3.558  1.00  0.00     0.103 A 
HETATM    3  O   UNL     1      62.266   7.196   4.147  1.00  0.00    -0.314 OA
HETATM    4  C   UNL     1      63.556   9.011   4.409  1.00  0.00     0.053 A 
HETATM    5  C   UNL     1      63.440   7.662   4.652  1.00  0.00     0.051 A 
HETATM    6  C   UNL     1      64.315   6.674   5.317  1.00  0.00     0.077 C 
ENDROOT
BRANCH   2   7
HETATM    7  C   UNL     1      60.377   7.930   2.866  1.00  0.00    -0.001 A 
HETATM    8  C   UNL     1      60.306   8.001   1.468  1.00  0.00     0.014 A 
HETATM    9  C   UNL     1      59.109   7.767   0.791  1.00  0.00     0.001 A 
HETATM   10  C   UNL     1      57.967   7.430   1.507  1.00  0.00     0.000 A 
HETATM   11  C   UNL     1      58.025   7.312   2.891  1.00  0.00     0.001 A 
HETATM   12  C   UNL     1      59.223   7.559   3.572  1.00  0.00     0.014 A 
ENDBRANCH   2   7
BRANCH   1  13
HETATM   13  C   UNL     1      62.007  10.731   3.270  1.00  0.00     0.212 C 
HETATM   14  O   UNL     1      61.850  11.091   2.113  1.00  0.00    -0.644 OA
HETATM   15  O   UNL     1      61.866  11.633   4.265  1.00  0.00    -0.644 OA
ENDBRANCH   1  13
TORSDOF 2
ENDMDL
