MODEL 1
REMARK VINA RESULT:      -5.0      0.000      0.000
REMARK  4 active torsions:
REMARK  status: ('A' for Active; 'I' for Inactive)
REMARK    1  A    between atoms: C_1  and  O_2 
REMARK    2  A    between atoms: O_2  and  C_4 
REMARK    3  A    between atoms: C_3  and  C_6 
REMARK    4  A    between atoms: N_5  and  C_6 
ROOT
HETATM    1  C   UNL     1      63.697   8.034   5.506  1.00  0.00     0.084 A 
HETATM    2  C   UNL     1      63.602   6.717   5.983  1.00  0.00     0.001 A 
HETATM    3  C   UNL     1      64.966   8.583   5.239  1.00  0.00     0.038 A 
HETATM    4  C   UNL     1      64.796   6.019   6.279  1.00  0.00     0.012 A 
HETATM    5  C   UNL     1      66.044   6.622   6.117  1.00  0.00     0.001 A 
HETATM    6  C   UNL     1      66.129   7.899   5.581  1.00  0.00     0.003 A 
ENDROOT
BRANCH   1   7
HETATM    7  O   UNL     1      62.532   8.770   5.321  1.00  0.00    -0.310 OA
BRANCH   7   8
HETATM    8  C   UNL     1      62.389   9.429   4.112  1.00  0.00     0.076 A 
HETATM    9  C   UNL     1      62.169  10.807   4.147  1.00  0.00     0.037 A 
HETATM   10  C   UNL     1      61.881  11.492   2.963  1.00  0.00     0.003 A 
HETATM   11  C   UNL     1      61.811  10.802   1.753  1.00  0.00     0.000 A 
HETATM   12  C   UNL     1      62.091   9.439   1.710  1.00  0.00     0.003 A 
HETATM   13  C   UNL     1      62.416   8.759   2.883  1.00  0.00     0.037 A 
ENDBRANCH   7   8
ENDBRANCH   1   7
BRANCH   2  14
HETATM   14  C   UNL     1      62.288   6.002   6.189  1.00  0.00     0.273 C 
BRANCH  14  15
HETATM   15  N   UNL     1      61.514   5.839   4.949  1.00  0.00    -0.075 N 
HETATM   16  C   UNL     1      60.124   6.240   5.126  1.00  0.00     0.267 C 
HETATM   17  H   UNL     1      61.542   4.858   4.669  1.00  0.00     0.277 HD
HETATM   18  H   UNL     1      61.929   6.435   4.233  1.00  0.00     0.277 HD
ENDBRANCH  14  15
ENDBRANCH   2  14
TORSDOF 4
ENDMDL
MODEL 2
REMARK VINA RESULT:      -5.0      1.842      5.004
REMARK  4 active torsions:
REMARK  status: ('A' for Active; 'I' for Inactive)
REMARK    1  A    between atoms: C_1  and  O_2 
REMARK    2  A    between atoms: O_2  and  C_4 
REMARK    3  A    between atoms: C_3  and  C_6 
REMARK    4  A    between atoms: N_5  and  C_6 
ROOT
HETATM    1  C   UNL     1      62.487   8.955   3.554  1.00  0.00     0.084 A 
HETATM    2  C   UNL     1      62.261   8.950   2.168  1.00  0.00     0.001 A 
HETATM    3  C   UNL     1      62.272  10.139   4.286  1.00  0.00     0.038 A 
HETATM    4  C   UNL     1      61.924  10.169   1.536  1.00  0.00     0.012 A 
HETATM    5  C   UNL     1      61.829  11.357   2.261  1.00  0.00     0.001 A 
HETATM    6  C   UNL     1      61.987  11.339   3.639  1.00  0.00     0.003 A 
ENDROOT
BRANCH   1   7
HETATM    7  O   UNL     1      62.931   7.791   4.170  1.00  0.00    -0.310 OA
BRANCH   7   8
HETATM    8  C   UNL     1      64.298   7.629   4.300  1.00  0.00     0.076 A 
HETATM    9  C   UNL     1      64.906   6.620   3.550  1.00  0.00     0.037 A 
HETATM   10  C   UNL     1      66.258   6.328   3.751  1.00  0.00     0.003 A 
HETATM   11  C   UNL     1      66.996   7.037   4.698  1.00  0.00     0.000 A 
HETATM   12  C   UNL     1      66.405   8.083   5.402  1.00  0.00     0.003 A 
HETATM   13  C   UNL     1      65.067   8.403   5.178  1.00  0.00     0.037 A 
ENDBRANCH   7   8
ENDBRANCH   1   7
BRANCH   2  14
HETATM   14  C   UNL     1      62.352   7.706   1.318  1.00  0.00     0.273 C 
BRANCH  14  15
HETATM   15  N   UNL     1      61.577   6.577   1.855  1.00  0.00    -0.075 N 
HETATM   16  C   UNL     1      60.150   6.735   1.601  1.00  0.00     0.267 C 
HETATM   17  H   UNL     1      61.729   6.521   2.862  1.00  0.00     0.277 HD
HETATM   18  H   UNL     1      61.891   5.725   1.391  1.00  0.00     0.277 HD
ENDBRANCH  14  15
ENDBRANCH   2  14
TORSDOF 4
ENDMDL
MODEL 3
REMARK VINA RESULT:      -4.9      1.316      3.408
REMARK  4 active torsions:
REMARK  status: ('A' for Active; 'I' for Inactive)
REMARK    1  A    between atoms: C_1  and  O_2 
REMARK    2  A    between atoms: O_2  and  C_4 
REMARK    3  A    between atoms: C_3  and  C_6 
REMARK    4  A    between atoms: N_5  and  C_6 
ROOT
HETATM    1  C   UNL     1      61.872   6.882   4.627  1.00  0.00     0.084 A 
HETATM    2  C   UNL     1      62.296   6.200   5.780  1.00  0.00     0.001 A 
HETATM    3  C   UNL     1      60.498   6.938   4.324  1.00  0.00     0.038 A 
HETATM    4  C   UNL     1      61.332   5.501   6.542  1.00  0.00     0.012 A 
HETATM    5  C   UNL     1      59.990   5.472   6.160  1.00  0.00     0.001 A 
HETATM    6  C   UNL     1      59.571   6.205   5.059  1.00  0.00     0.003 A 
ENDROOT
BRANCH   1   7
HETATM    7  O   UNL     1      62.823   7.476   3.806  1.00  0.00    -0.310 OA
BRANCH   7   8
HETATM    8  C   UNL     1      62.576   8.773   3.393  1.00  0.00     0.076 A 
HETATM    9  C   UNL     1      62.566   9.773   4.366  1.00  0.00     0.037 A 
HETATM   10  C   UNL     1      62.185  11.073   4.019  1.00  0.00     0.003 A 
HETATM   11  C   UNL     1      61.815  11.368   2.707  1.00  0.00     0.000 A 
HETATM   12  C   UNL     1      61.883  10.384   1.724  1.00  0.00     0.003 A 
HETATM   13  C   UNL     1      62.299   9.096   2.059  1.00  0.00     0.037 A 
ENDBRANCH   7   8
ENDBRANCH   1   7
BRANCH   2  14
HETATM   14  C   UNL     1      63.730   6.181   6.251  1.00  0.00     0.273 C 
BRANCH  14  15
HETATM   15  N   UNL     1      64.256   7.518   6.567  1.00  0.00    -0.075 N 
HETATM   16  C   UNL     1      65.580   7.723   5.994  1.00  0.00     0.267 C 
HETATM   17  H   UNL     1      64.315   7.619   7.581  1.00  0.00     0.277 HD
HETATM   18  H   UNL     1      63.624   8.212   6.168  1.00  0.00     0.277 HD
ENDBRANCH  14  15
ENDBRANCH   2  14
TORSDOF 4
ENDMDL
MODEL 4
REMARK VINA RESULT:      -4.7      1.836      1.953
REMARK  4 active torsions:
REMARK  status: ('A' for Active; 'I' for Inactive)
REMARK    1  A    between atoms: C_1  and  O_2 
REMARK    2  A    between atoms: O_2  and  C_4 
REMARK    3  A    between atoms: C_3  and  C_6 
REMARK    4  A    between atoms: N_5  and  C_6 
ROOT
HETATM    1  C   UNL     1      64.345   7.578   4.318  1.00  0.00     0.084 A 
HETATM    2  C   UNL     1      64.765   6.467   3.570  1.00  0.00     0.001 A 
HETATM    3  C   UNL     1      65.290   8.303   5.070  1.00  0.00     0.038 A 
HETATM    4  C   UNL     1      66.111   6.048   3.682  1.00  0.00     0.012 A 
HETATM    5  C   UNL     1      67.006   6.710   4.523  1.00  0.00     0.001 A 
HETATM    6  C   UNL     1      66.599   7.848   5.205  1.00  0.00     0.003 A 
ENDROOT
BRANCH   1   7
HETATM    7  O   UNL     1      63.001   7.930   4.307  1.00  0.00    -0.310 OA
BRANCH   7   8
HETATM    8  C   UNL     1      62.650   9.056   3.583  1.00  0.00     0.076 A 
HETATM    9  C   UNL     1      62.400  10.232   4.293  1.00  0.00     0.037 A 
HETATM   10  C   UNL     1      61.909  11.355   3.621  1.00  0.00     0.003 A 
HETATM   11  C   UNL     1      61.668  11.301   2.249  1.00  0.00     0.000 A 
HETATM   12  C   UNL     1      61.974  10.147   1.531  1.00  0.00     0.003 A 
HETATM   13  C   UNL     1      62.499   9.037   2.191  1.00  0.00     0.037 A 
ENDBRANCH   7   8
ENDBRANCH   1   7
BRANCH   2  14
HETATM   14  C   UNL     1      63.853   5.698   2.645  1.00  0.00     0.273 C 
BRANCH  14  15
HETATM   15  N   UNL     1      62.606   5.258   3.290  1.00  0.00    -0.075 N 
HETATM   16  C   UNL     1      62.423   3.816   3.179  1.00  0.00     0.267 C 
HETATM   17  H   UNL     1      61.819   5.727   2.841  1.00  0.00     0.277 HD
HETATM   18  H   UNL     1      62.657   5.498   4.280  1.00  0.00     0.277 HD
ENDBRANCH  14  15
ENDBRANCH   2  14
TORSDOF 4
ENDMDL
MODEL 5
REMARK VINA RESULT:      -4.7      2.181      3.914
REMARK  4 active torsions:
REMARK  status: ('A' for Active; 'I' for Inactive)
REMARK    1  A    between atoms: C_1  and  O_2 
REMARK    2  A    between atoms: O_2  and  C_4 
REMARK    3  A    between atoms: C_3  and  C_6 
REMARK    4  A    between atoms: N_5  and  C_6 
ROOT
HETATM    1  C   UNL     1      62.549   9.207   3.270  1.00  0.00     0.084 A 
HETATM    2  C   UNL     1      63.379   8.918   4.366  1.00  0.00     0.001 A 
HETATM    3  C   UNL     1      61.953  10.479   3.170  1.00  0.00     0.038 A 
HETATM    4  C   UNL     1      63.503   9.885   5.391  1.00  0.00     0.012 A 
HETATM    5  C   UNL     1      62.811  11.095   5.330  1.00  0.00     0.001 A 
HETATM    6  C   UNL     1      62.049  11.398   4.211  1.00  0.00     0.003 A 
ENDROOT
BRANCH   1   7
HETATM    7  O   UNL     1      62.327   8.222   2.315  1.00  0.00    -0.310 OA
BRANCH   7   8
HETATM    8  C   UNL     1      61.012   7.882   2.055  1.00  0.00     0.076 A 
HETATM    9  C   UNL     1      60.541   8.058   0.753  1.00  0.00     0.037 A 
HETATM   10  C   UNL     1      59.185   7.861   0.474  1.00  0.00     0.003 A 
HETATM   11  C   UNL     1      58.306   7.492   1.492  1.00  0.00     0.000 A 
HETATM   12  C   UNL     1      58.787   7.257   2.778  1.00  0.00     0.003 A 
HETATM   13  C   UNL     1      60.145   7.417   3.052  1.00  0.00     0.037 A 
ENDBRANCH   7   8
ENDBRANCH   1   7
BRANCH   2  14
HETATM   14  C   UNL     1      64.152   7.629   4.504  1.00  0.00     0.273 C 
BRANCH  14  15
HETATM   15  N   UNL     1      63.291   6.438   4.576  1.00  0.00    -0.075 N 
HETATM   16  C   UNL     1      62.791   6.219   5.928  1.00  0.00     0.267 C 
HETATM   17  H   UNL     1      63.830   5.623   4.286  1.00  0.00     0.277 HD
HETATM   18  H   UNL     1      62.492   6.585   3.960  1.00  0.00     0.277 HD
ENDBRANCH  14  15
ENDBRANCH   2  14
TORSDOF 4
ENDMDL
MODEL 6
REMARK VINA RESULT:      -4.6      1.375      2.038
REMARK  4 active torsions:
REMARK  status: ('A' for Active; 'I' for Inactive)
REMARK    1  A    between atoms: C_1  and  O_2 
REMARK    2  A    between atoms: O_2  and  C_4 
REMARK    3  A    between atoms: C_3  and  C_6 
REMARK    4  A    between atoms: N_5  and  C_6 
ROOT
HETATM    1  C   UNL     1      64.716   7.289   4.983  1.00  0.00     0.084 A 
HETATM    2  C   UNL     1      64.377   6.512   6.102  1.00  0.00     0.001 A 
HETATM    3  C   UNL     1      65.952   7.963   4.957  1.00  0.00     0.038 A 
HETATM    4  C   UNL     1      65.249   6.517   7.215  1.00  0.00     0.012 A 
HETATM    5  C   UNL     1      66.414   7.285   7.217  1.00  0.00     0.001 A 
HETATM    6  C   UNL     1      66.774   7.996   6.080  1.00  0.00     0.003 A 
ENDROOT
BRANCH   1   7
HETATM    7  O   UNL     1      63.814   7.384   3.929  1.00  0.00    -0.310 OA
BRANCH   7   8
HETATM    8  C   UNL     1      63.112   8.570   3.806  1.00  0.00     0.076 A 
HETATM    9  C   UNL     1      62.519   8.847   2.573  1.00  0.00     0.037 A 
HETATM   10  C   UNL     1      61.919  10.091   2.357  1.00  0.00     0.003 A 
HETATM   11  C   UNL     1      61.916  11.053   3.367  1.00  0.00     0.000 A 
HETATM   12  C   UNL     1      62.455  10.754   4.616  1.00  0.00     0.003 A 
HETATM   13  C   UNL     1      63.020   9.500   4.848  1.00  0.00     0.037 A 
ENDBRANCH   7   8
ENDBRANCH   1   7
BRANCH   2  14
HETATM   14  C   UNL     1      63.131   5.662   6.175  1.00  0.00     0.273 C 
BRANCH  14  15
HETATM   15  N   UNL     1      62.981   4.751   5.030  1.00  0.00    -0.075 N 
HETATM   16  C   UNL     1      63.905   3.627   5.112  1.00  0.00     0.267 C 
HETATM   17  H   UNL     1      63.164   5.269   4.170  1.00  0.00     0.277 HD
HETATM   18  H   UNL     1      62.030   4.383   5.038  1.00  0.00     0.277 HD
ENDBRANCH  14  15
ENDBRANCH   2  14
TORSDOF 4
ENDMDL
MODEL 7
REMARK VINA RESULT:      -4.6      1.178      4.640
REMARK  4 active torsions:
REMARK  status: ('A' for Active; 'I' for Inactive)
REMARK    1  A    between atoms: C_1  and  O_2 
REMARK    2  A    between atoms: O_2  and  C_4 
REMARK    3  A    between atoms: C_3  and  C_6 
REMARK    4  A    between atoms: N_5  and  C_6 
ROOT
HETATM    1  C   UNL     1      62.907   8.810   5.303  1.00  0.00     0.084 A 
HETATM    2  C   UNL     1      62.248   8.279   4.182  1.00  0.00     0.001 A 
HETATM    3  C   UNL     1      62.950  10.206   5.482  1.00  0.00     0.038 A 
HETATM    4  C   UNL     1      61.739   9.173   3.213  1.00  0.00     0.012 A 
HETATM    5  C   UNL     1      61.895  10.553   3.350  1.00  0.00     0.001 A 
HETATM    6  C   UNL     1      62.486  11.070   4.494  1.00  0.00     0.003 A 
ENDROOT
BRANCH   1   7
HETATM    7  O   UNL     1      63.512   7.942   6.204  1.00  0.00    -0.310 OA
BRANCH   7   8
HETATM    8  C   UNL     1      64.772   7.473   5.878  1.00  0.00     0.076 A 
HETATM    9  C   UNL     1      65.175   6.257   6.434  1.00  0.00     0.037 A 
HETATM   10  C   UNL     1      66.487   5.812   6.246  1.00  0.00     0.003 A 
HETATM   11  C   UNL     1      67.389   6.579   5.509  1.00  0.00     0.000 A 
HETATM   12  C   UNL     1      66.970   7.761   4.905  1.00  0.00     0.003 A 
HETATM   13  C   UNL     1      65.652   8.190   5.058  1.00  0.00     0.037 A 
ENDBRANCH   7   8
ENDBRANCH   1   7
BRANCH   2  14
HETATM   14  C   UNL     1      62.049   6.798   3.963  1.00  0.00     0.273 C 
BRANCH  14  15
HETATM   15  N   UNL     1      61.436   6.117   5.114  1.00  0.00    -0.075 N 
HETATM   16  C   UNL     1      59.980   6.173   5.058  1.00  0.00     0.267 C 
HETATM   17  H   UNL     1      61.752   6.569   5.972  1.00  0.00     0.277 HD
HETATM   18  H   UNL     1      61.719   5.138   5.092  1.00  0.00     0.277 HD
ENDBRANCH  14  15
ENDBRANCH   2  14
TORSDOF 4
ENDMDL
MODEL 8
REMARK VINA RESULT:      -4.5      2.076      5.186
REMARK  4 active torsions:
REMARK  status: ('A' for Active; 'I' for Inactive)
REMARK    1  A    between atoms: C_1  and  O_2 
REMARK    2  A    between atoms: O_2  and  C_4 
REMARK    3  A    between atoms: C_3  and  C_6 
REMARK    4  A    between atoms: N_5  and  C_6 
ROOT
HETATM    1  C   UNL     1      62.478   9.072   3.087  1.00  0.00     0.084 A 
HETATM    2  C   UNL     1      62.126   9.560   1.819  1.00  0.00     0.001 A 
HETATM    3  C   UNL     1      62.382   9.921   4.206  1.00  0.00     0.038 A 
HETATM    4  C   UNL     1      61.786  10.927   1.693  1.00  0.00     0.012 A 
HETATM    5  C   UNL     1      61.809  11.782   2.795  1.00  0.00     0.001 A 
HETATM    6  C   UNL     1      62.091  11.275   4.056  1.00  0.00     0.003 A 
ENDROOT
BRANCH   1   7
HETATM    7  O   UNL     1      62.925   7.761   3.206  1.00  0.00    -0.310 OA
BRANCH   7   8
HETATM    8  C   UNL     1      62.309   6.970   4.159  1.00  0.00     0.076 A 
HETATM    9  C   UNL     1      60.924   6.814   4.076  1.00  0.00     0.037 A 
HETATM   10  C   UNL     1      60.241   6.140   5.092  1.00  0.00     0.003 A 
HETATM   11  C   UNL     1      60.939   5.627   6.186  1.00  0.00     0.000 A 
HETATM   12  C   UNL     1      62.327   5.730   6.238  1.00  0.00     0.003 A 
HETATM   13  C   UNL     1      63.016   6.369   5.208  1.00  0.00     0.037 A 
ENDBRANCH   7   8
ENDBRANCH   1   7
BRANCH   2  14
HETATM   14  C   UNL     1      62.085   8.697   0.580  1.00  0.00     0.273 C 
BRANCH  14  15
HETATM   15  N   UNL     1      61.003   7.701   0.601  1.00  0.00    -0.075 N 
HETATM   16  C   UNL     1      61.491   6.371   0.260  1.00  0.00     0.267 C 
HETATM   17  H   UNL     1      60.289   7.976  -0.075  1.00  0.00     0.277 HD
HETATM   18  H   UNL     1      60.618   7.668   1.544  1.00  0.00     0.277 HD
ENDBRANCH  14  15
ENDBRANCH   2  14
TORSDOF 4
ENDMDL
MODEL 9
REMARK VINA RESULT:      -4.3      1.716      5.195
REMARK  4 active torsions:
REMARK  status: ('A' for Active; 'I' for Inactive)
REMARK    1  A    between atoms: C_1  and  O_2 
REMARK    2  A    between atoms: O_2  and  C_4 
REMARK    3  A    between atoms: C_3  and  C_6 
REMARK    4  A    between atoms: N_5  and  C_6 
ROOT
HETATM    1  C   UNL     1      62.789   7.298   5.657  1.00  0.00     0.084 A 
HETATM    2  C   UNL     1      62.148   7.859   4.541  1.00  0.00     0.001 A 
HETATM    3  C   UNL     1      62.297   6.098   6.206  1.00  0.00     0.038 A 
HETATM    4  C   UNL     1      60.962   7.251   4.068  1.00  0.00     0.012 A 
HETATM    5  C   UNL     1      60.425   6.128   4.698  1.00  0.00     0.001 A 
HETATM    6  C   UNL     1      61.103   5.541   5.758  1.00  0.00     0.003 A 
ENDROOT
BRANCH   1   7
HETATM    7  O   UNL     1      63.889   7.949   6.202  1.00  0.00    -0.310 OA
BRANCH   7   8
HETATM    8  C   UNL     1      65.121   7.337   6.053  1.00  0.00     0.076 A 
HETATM    9  C   UNL     1      65.762   6.881   7.207  1.00  0.00     0.037 A 
HETATM   10  C   UNL     1      67.065   6.383   7.123  1.00  0.00     0.003 A 
HETATM   11  C   UNL     1      67.724   6.344   5.894  1.00  0.00     0.000 A 
HETATM   12  C   UNL     1      67.062   6.743   4.735  1.00  0.00     0.003 A 
HETATM   13  C   UNL     1      65.749   7.205   4.809  1.00  0.00     0.037 A 
ENDBRANCH   7   8
ENDBRANCH   1   7
BRANCH   2  14
HETATM   14  C   UNL     1      62.666   9.076   3.812  1.00  0.00     0.273 C 
BRANCH  14  15
HETATM   15  N   UNL     1      62.676  10.290   4.642  1.00  0.00    -0.075 N 
HETATM   16  C   UNL     1      61.973  11.390   3.994  1.00  0.00     0.267 C 
HETATM   17  H   UNL     1      63.644  10.568   4.809  1.00  0.00     0.277 HD
HETATM   18  H   UNL     1      62.201  10.080   5.520  1.00  0.00     0.277 HD
ENDBRANCH  14  15
ENDBRANCH   2  14
TORSDOF 4
ENDMDL
