MODEL 1
REMARK VINA RESULT:      -5.7      0.000      0.000
REMARK  3 active torsions:
REMARK  status: ('A' for Active; 'I' for Inactive)
REMARK    1  A    between atoms: C_1  and  C_6 
REMARK    2  A    between atoms: C_2  and  C_7 
REMARK    3  A    between atoms: C_7  and  O_8 
ROOT
HETATM    1  C   UNL     1      63.378   9.097   4.489  1.00  0.00     0.094 A 
HETATM    2  C   UNL     1      62.811  10.339   4.743  1.00  0.00     0.002 A 
HETATM    3  O   UNL     1      62.974   8.655   3.257  1.00  0.00    -0.314 OA
HETATM    4  C   UNL     1      62.022  10.651   3.595  1.00  0.00     0.044 A 
HETATM    5  C   UNL     1      62.159   9.598   2.721  1.00  0.00     0.050 A 
HETATM    6  C   UNL     1      61.612   9.313   1.382  1.00  0.00     0.076 C 
ENDROOT
BRANCH   1   7
HETATM    7  C   UNL     1      64.255   8.179   5.225  1.00  0.00    -0.002 A 
HETATM    8  C   UNL     1      63.713   7.173   6.041  1.00  0.00     0.014 A 
HETATM    9  C   UNL     1      64.538   6.331   6.794  1.00  0.00     0.001 A 
HETATM   10  C   UNL     1      65.921   6.477   6.736  1.00  0.00     0.000 A 
HETATM   11  C   UNL     1      66.477   7.454   5.918  1.00  0.00     0.001 A 
HETATM   12  C   UNL     1      65.650   8.294   5.166  1.00  0.00     0.014 A 
ENDBRANCH   1   7
BRANCH   2  13
HETATM   13  C   UNL     1      62.939  11.197   5.951  1.00  0.00     0.205 C 
BRANCH  13  14
HETATM   14  O   UNL     1      64.294  11.480   6.274  1.00  0.00    -0.396 OA
HETATM   15  H   UNL     1      64.326  12.187   6.939  1.00  0.00     0.209 HD
ENDBRANCH  13  14
ENDBRANCH   2  13
TORSDOF 3
ENDMDL
MODEL 2
REMARK VINA RESULT:      -5.6      1.599      4.822
REMARK  3 active torsions:
REMARK  status: ('A' for Active; 'I' for Inactive)
REMARK    1  A    between atoms: C_1  and  C_6 
REMARK    2  A    between atoms: C_2  and  C_7 
REMARK    3  A    between atoms: C_7  and  O_8 
ROOT
HETATM    1  C   UNL     1      62.791   8.155   4.765  1.00  0.00     0.094 A 
HETATM    2  C   UNL     1      63.976   7.724   5.349  1.00  0.00     0.002 A 
HETATM    3  O   UNL     1      61.757   7.370   5.201  1.00  0.00    -0.314 OA
HETATM    4  C   UNL     1      63.623   6.618   6.179  1.00  0.00     0.044 A 
HETATM    5  C   UNL     1      62.264   6.447   6.057  1.00  0.00     0.050 A 
HETATM    6  C   UNL     1      61.303   5.496   6.646  1.00  0.00     0.076 C 
ENDROOT
BRANCH   1   7
HETATM    7  C   UNL     1      62.420   9.200   3.805  1.00  0.00    -0.002 A 
HETATM    8  C   UNL     1      62.322   8.910   2.434  1.00  0.00     0.014 A 
HETATM    9  C   UNL     1      62.028   9.912   1.504  1.00  0.00     0.001 A 
HETATM   10  C   UNL     1      61.819  11.220   1.930  1.00  0.00     0.000 A 
HETATM   11  C   UNL     1      61.892  11.523   3.286  1.00  0.00     0.001 A 
HETATM   12  C   UNL     1      62.186  10.520   4.214  1.00  0.00     0.014 A 
ENDBRANCH   1   7
BRANCH   2  13
HETATM   13  C   UNL     1      65.355   8.249   5.164  1.00  0.00     0.205 C 
BRANCH  13  14
HETATM   14  O   UNL     1      65.796   9.022   6.273  1.00  0.00    -0.396 OA
HETATM   15  H   UNL     1      65.347   8.717   7.077  1.00  0.00     0.209 HD
ENDBRANCH  13  14
ENDBRANCH   2  13
TORSDOF 3
ENDMDL
MODEL 3
REMARK VINA RESULT:      -5.3      1.576      4.965
REMARK  3 active torsions:
REMARK  status: ('A' for Active; 'I' for Inactive)
REMARK    1  A    between atoms: C_1  and  C_6 
REMARK    2  A    between atoms: C_2  and  C_7 
REMARK    3  A    between atoms: C_7  and  O_8 
ROOT
HETATM    1  C   UNL     1      64.362   8.186   5.091  1.00  0.00     0.094 A 
HETATM    2  C   UNL     1      64.220   6.997   5.795  1.00  0.00     0.002 A 
HETATM    3  O   UNL     1      65.693   8.476   4.949  1.00  0.00    -0.314 OA
HETATM    4  C   UNL     1      65.547   6.557   6.088  1.00  0.00     0.044 A 
HETATM    5  C   UNL     1      66.403   7.488   5.549  1.00  0.00     0.050 A 
HETATM    6  C   UNL     1      67.872   7.611   5.506  1.00  0.00     0.076 C 
ENDROOT
BRANCH   1   7
HETATM    7  C   UNL     1      63.442   9.174   4.515  1.00  0.00    -0.002 A 
HETATM    8  C   UNL     1      62.872   8.965   3.249  1.00  0.00     0.014 A 
HETATM    9  C   UNL     1      62.042   9.927   2.664  1.00  0.00     0.001 A 
HETATM   10  C   UNL     1      61.762  11.111   3.339  1.00  0.00     0.000 A 
HETATM   11  C   UNL     1      62.301  11.326   4.604  1.00  0.00     0.001 A 
HETATM   12  C   UNL     1      63.130  10.364   5.187  1.00  0.00     0.014 A 
ENDBRANCH   1   7
BRANCH   2  13
HETATM   13  C   UNL     1      62.976   6.296   6.209  1.00  0.00     0.205 C 
BRANCH  13  14
HETATM   14  O   UNL     1      62.101   7.135   6.952  1.00  0.00    -0.396 OA
HETATM   15  H   UNL     1      61.182   6.875   6.782  1.00  0.00     0.209 HD
ENDBRANCH  13  14
ENDBRANCH   2  13
TORSDOF 3
ENDMDL
MODEL 4
REMARK VINA RESULT:      -5.1      1.541      4.564
REMARK  3 active torsions:
REMARK  status: ('A' for Active; 'I' for Inactive)
REMARK    1  A    between atoms: C_1  and  C_6 
REMARK    2  A    between atoms: C_2  and  C_7 
REMARK    3  A    between atoms: C_7  and  O_8 
ROOT
HETATM    1  C   UNL     1      63.486   8.364   3.938  1.00  0.00     0.094 A 
HETATM    2  C   UNL     1      63.936   9.217   4.939  1.00  0.00     0.002 A 
HETATM    3  O   UNL     1      64.371   7.329   3.789  1.00  0.00    -0.314 OA
HETATM    4  C   UNL     1      65.161   8.655   5.409  1.00  0.00     0.044 A 
HETATM    5  C   UNL     1      65.378   7.509   4.681  1.00  0.00     0.050 A 
HETATM    6  C   UNL     1      66.446   6.492   4.684  1.00  0.00     0.076 C 
ENDROOT
BRANCH   1   7
HETATM    7  C   UNL     1      62.338   8.339   3.026  1.00  0.00    -0.002 A 
HETATM    8  C   UNL     1      61.132   7.729   3.411  1.00  0.00     0.014 A 
HETATM    9  C   UNL     1      60.051   7.647   2.527  1.00  0.00     0.001 A 
HETATM   10  C   UNL     1      60.154   8.180   1.246  1.00  0.00     0.000 A 
HETATM   11  C   UNL     1      61.333   8.806   0.854  1.00  0.00     0.001 A 
HETATM   12  C   UNL     1      62.413   8.887   1.739  1.00  0.00     0.014 A 
ENDBRANCH   1   7
BRANCH   2  13
HETATM   13  C   UNL     1      63.326  10.478   5.437  1.00  0.00     0.205 C 
BRANCH  13  14
HETATM   14  O   UNL     1      64.243  11.268   6.181  1.00  0.00    -0.396 OA
HETATM   15  H   UNL     1      64.649  11.928   5.596  1.00  0.00     0.209 HD
ENDBRANCH  13  14
ENDBRANCH   2  13
TORSDOF 3
ENDMDL
MODEL 5
REMARK VINA RESULT:      -5.0      1.446      5.090
REMARK  3 active torsions:
REMARK  status: ('A' for Active; 'I' for Inactive)
REMARK    1  A    between atoms: C_1  and  C_6 
REMARK    2  A    between atoms: C_2  and  C_7 
REMARK    3  A    between atoms: C_7  and  O_8 
ROOT
HETATM    1  C   UNL     1      63.835   8.410   5.167  1.00  0.00     0.094 A 
HETATM    2  C   UNL     1      63.483   7.352   5.997  1.00  0.00     0.002 A 
HETATM    3  O   UNL     1      65.190   8.600   5.221  1.00  0.00    -0.314 OA
HETATM    4  C   UNL     1      64.701   6.890   6.578  1.00  0.00     0.044 A 
HETATM    5  C   UNL     1      65.708   7.677   6.072  1.00  0.00     0.050 A 
HETATM    6  C   UNL     1      67.169   7.711   6.272  1.00  0.00     0.076 C 
ENDROOT
BRANCH   1   7
HETATM    7  C   UNL     1      63.108   9.346   4.302  1.00  0.00    -0.002 A 
HETATM    8  C   UNL     1      62.729  10.611   4.779  1.00  0.00     0.014 A 
HETATM    9  C   UNL     1      61.983  11.488   3.984  1.00  0.00     0.001 A 
HETATM   10  C   UNL     1      61.611  11.117   2.695  1.00  0.00     0.000 A 
HETATM   11  C   UNL     1      61.995   9.875   2.199  1.00  0.00     0.001 A 
HETATM   12  C   UNL     1      62.740   9.000   2.995  1.00  0.00     0.014 A 
ENDBRANCH   1   7
BRANCH   2  13
HETATM   13  C   UNL     1      62.134   6.794   6.279  1.00  0.00     0.205 C 
BRANCH  13  14
HETATM   14  O   UNL     1      61.609   6.059   5.182  1.00  0.00    -0.396 OA
HETATM   15  H   UNL     1      61.208   6.672   4.545  1.00  0.00     0.209 HD
ENDBRANCH  13  14
ENDBRANCH   2  13
TORSDOF 3
ENDMDL
MODEL 6
REMARK VINA RESULT:      -4.9      1.698      4.790
REMARK  3 active torsions:
REMARK  status: ('A' for Active; 'I' for Inactive)
REMARK    1  A    between atoms: C_1  and  C_6 
REMARK    2  A    between atoms: C_2  and  C_7 
REMARK    3  A    between atoms: C_7  and  O_8 
ROOT
HETATM    1  C   UNL     1      63.793   7.680   5.323  1.00  0.00     0.094 A 
HETATM    2  C   UNL     1      65.042   7.406   5.866  1.00  0.00     0.002 A 
HETATM    3  O   UNL     1      62.971   6.598   5.502  1.00  0.00    -0.314 OA
HETATM    4  C   UNL     1      64.956   6.084   6.397  1.00  0.00     0.044 A 
HETATM    5  C   UNL     1      63.677   5.640   6.154  1.00  0.00     0.050 A 
HETATM    6  C   UNL     1      62.966   4.382   6.448  1.00  0.00     0.076 C 
ENDROOT
BRANCH   1   7
HETATM    7  C   UNL     1      63.190   8.809   4.607  1.00  0.00    -0.002 A 
HETATM    8  C   UNL     1      63.017  10.049   5.244  1.00  0.00     0.014 A 
HETATM    9  C   UNL     1      62.389  11.115   4.591  1.00  0.00     0.001 A 
HETATM   10  C   UNL     1      61.932  10.961   3.285  1.00  0.00     0.000 A 
HETATM   11  C   UNL     1      62.114   9.747   2.630  1.00  0.00     0.001 A 
HETATM   12  C   UNL     1      62.742   8.683   3.285  1.00  0.00     0.014 A 
ENDBRANCH   1   7
BRANCH   2  13
HETATM   13  C   UNL     1      66.258   8.261   5.893  1.00  0.00     0.205 C 
BRANCH  13  14
HETATM   14  O   UNL     1      66.815   8.374   7.197  1.00  0.00    -0.396 OA
HETATM   15  H   UNL     1      66.202   8.864   7.767  1.00  0.00     0.209 HD
ENDBRANCH  13  14
ENDBRANCH   2  13
TORSDOF 3
ENDMDL
MODEL 7
REMARK VINA RESULT:      -4.7      1.409      3.037
REMARK  3 active torsions:
REMARK  status: ('A' for Active; 'I' for Inactive)
REMARK    1  A    between atoms: C_1  and  C_6 
REMARK    2  A    between atoms: C_2  and  C_7 
REMARK    3  A    between atoms: C_7  and  O_8 
ROOT
HETATM    1  C   UNL     1      64.419   8.354   4.914  1.00  0.00     0.094 A 
HETATM    2  C   UNL     1      63.536   8.134   3.864  1.00  0.00     0.002 A 
HETATM    3  O   UNL     1      64.125   9.550   5.514  1.00  0.00    -0.314 OA
HETATM    4  C   UNL     1      62.669   9.267   3.839  1.00  0.00     0.044 A 
HETATM    5  C   UNL     1      63.066  10.095   4.862  1.00  0.00     0.050 A 
HETATM    6  C   UNL     1      62.586  11.398   5.358  1.00  0.00     0.076 C 
ENDROOT
BRANCH   1   7
HETATM    7  C   UNL     1      65.564   7.636   5.484  1.00  0.00    -0.002 A 
HETATM    8  C   UNL     1      65.422   6.882   6.660  1.00  0.00     0.014 A 
HETATM    9  C   UNL     1      66.520   6.242   7.245  1.00  0.00     0.001 A 
HETATM   10  C   UNL     1      67.778   6.339   6.658  1.00  0.00     0.000 A 
HETATM   11  C   UNL     1      67.934   7.064   5.481  1.00  0.00     0.001 A 
HETATM   12  C   UNL     1      66.836   7.702   4.898  1.00  0.00     0.014 A 
ENDBRANCH   1   7
BRANCH   2  13
HETATM   13  C   UNL     1      63.478   6.990   2.915  1.00  0.00     0.205 C 
BRANCH  13  14
HETATM   14  O   UNL     1      62.923   7.355   1.658  1.00  0.00    -0.396 OA
HETATM   15  H   UNL     1      62.253   8.044   1.789  1.00  0.00     0.209 HD
ENDBRANCH  13  14
ENDBRANCH   2  13
TORSDOF 3
ENDMDL
MODEL 8
REMARK VINA RESULT:      -4.6      2.171      4.781
REMARK  3 active torsions:
REMARK  status: ('A' for Active; 'I' for Inactive)
REMARK    1  A    between atoms: C_1  and  C_6 
REMARK    2  A    between atoms: C_2  and  C_7 
REMARK    3  A    between atoms: C_7  and  O_8 
ROOT
HETATM    1  C   UNL     1      65.310   7.163   4.512  1.00  0.00     0.094 A 
HETATM    2  C   UNL     1      66.196   6.903   5.551  1.00  0.00     0.002 A 
HETATM    3  O   UNL     1      65.630   6.382   3.433  1.00  0.00    -0.314 OA
HETATM    4  C   UNL     1      67.095   5.910   5.057  1.00  0.00     0.044 A 
HETATM    5  C   UNL     1      66.706   5.626   3.769  1.00  0.00     0.050 A 
HETATM    6  C   UNL     1      67.213   4.705   2.735  1.00  0.00     0.076 C 
ENDROOT
BRANCH   1   7
HETATM    7  C   UNL     1      64.174   8.068   4.312  1.00  0.00    -0.002 A 
HETATM    8  C   UNL     1      63.301   7.891   3.225  1.00  0.00     0.014 A 
HETATM    9  C   UNL     1      62.250   8.784   2.991  1.00  0.00     0.001 A 
HETATM   10  C   UNL     1      62.049   9.864   3.844  1.00  0.00     0.000 A 
HETATM   11  C   UNL     1      62.890  10.044   4.938  1.00  0.00     0.001 A 
HETATM   12  C   UNL     1      63.940   9.151   5.170  1.00  0.00     0.014 A 
ENDBRANCH   1   7
BRANCH   2  13
HETATM   13  C   UNL     1      66.260   7.518   6.903  1.00  0.00     0.205 C 
BRANCH  13  14
HETATM   14  O   UNL     1      66.892   8.792   6.891  1.00  0.00    -0.396 OA
HETATM   15  H   UNL     1      67.411   8.886   6.077  1.00  0.00     0.209 HD
ENDBRANCH  13  14
ENDBRANCH   2  13
TORSDOF 3
ENDMDL
MODEL 9
REMARK VINA RESULT:      -4.6      2.190      2.546
REMARK  3 active torsions:
REMARK  status: ('A' for Active; 'I' for Inactive)
REMARK    1  A    between atoms: C_1  and  C_6 
REMARK    2  A    between atoms: C_2  and  C_7 
REMARK    3  A    between atoms: C_7  and  O_8 
ROOT
HETATM    1  C   UNL     1      63.425   7.729   4.003  1.00  0.00     0.094 A 
HETATM    2  C   UNL     1      62.205   7.567   4.649  1.00  0.00     0.002 A 
HETATM    3  O   UNL     1      63.219   8.308   2.779  1.00  0.00    -0.314 OA
HETATM    4  C   UNL     1      61.218   8.079   3.754  1.00  0.00     0.044 A 
HETATM    5  C   UNL     1      61.886   8.520   2.636  1.00  0.00     0.050 A 
HETATM    6  C   UNL     1      61.449   9.144   1.373  1.00  0.00     0.076 C 
ENDROOT
BRANCH   1   7
HETATM    7  C   UNL     1      64.822   7.407   4.314  1.00  0.00    -0.002 A 
HETATM    8  C   UNL     1      65.536   8.162   5.258  1.00  0.00     0.014 A 
HETATM    9  C   UNL     1      66.886   7.902   5.518  1.00  0.00     0.001 A 
HETATM   10  C   UNL     1      67.541   6.876   4.844  1.00  0.00     0.000 A 
HETATM   11  C   UNL     1      66.844   6.103   3.921  1.00  0.00     0.001 A 
HETATM   12  C   UNL     1      65.495   6.365   3.662  1.00  0.00     0.014 A 
ENDBRANCH   1   7
BRANCH   2  13
HETATM   13  C   UNL     1      61.924   6.968   5.981  1.00  0.00     0.205 C 
BRANCH  13  14
HETATM   14  O   UNL     1      62.551   7.679   7.040  1.00  0.00    -0.396 OA
HETATM   15  H   UNL     1      63.112   7.072   7.548  1.00  0.00     0.209 HD
ENDBRANCH  13  14
ENDBRANCH   2  13
TORSDOF 3
ENDMDL
