MODEL 1
REMARK VINA RESULT:      -5.8      0.000      0.000
REMARK  4 active torsions:
REMARK  status: ('A' for Active; 'I' for Inactive)
REMARK    1  A    between atoms: C_1  and  O_2 
REMARK    2  A    between atoms: O_2  and  C_4 
REMARK    3  A    between atoms: C_3  and  C_5 
REMARK    4  A    between atoms: C_5  and  O_6 
ROOT
HETATM    1  C   UNL     1      63.251   9.009   4.683  1.00  0.00     0.084 C 
HETATM    2  C   UNL     1      62.795  10.335   4.755  1.00  0.00    -0.001 C 
HETATM    3  C   UNL     1      63.131   8.298   3.476  1.00  0.00     0.038 C 
HETATM    4  C   UNL     1      62.093  10.860   3.654  1.00  0.00     0.012 C 
HETATM    5  C   UNL     1      61.879  10.102   2.501  1.00  0.00     0.001 C 
HETATM    6  C   UNL     1      62.418   8.827   2.404  1.00  0.00     0.003 C 
ENDROOT
BRANCH   1   7
HETATM    7  O   UNL     1      63.810   8.427   5.814  1.00  0.00    -0.310 OA
BRANCH   7   8
HETATM    8  C   UNL     1      64.949   7.664   5.630  1.00  0.00     0.076 A 
HETATM    9  C   UNL     1      66.127   8.336   5.287  1.00  0.00     0.037 A 
HETATM   10  C   UNL     1      67.264   7.603   4.951  1.00  0.00     0.003 A 
HETATM   11  C   UNL     1      67.235   6.207   4.964  1.00  0.00     0.000 A 
HETATM   12  C   UNL     1      66.080   5.539   5.367  1.00  0.00     0.003 A 
HETATM   13  C   UNL     1      64.948   6.267   5.736  1.00  0.00     0.037 A 
ENDBRANCH   7   8
ENDBRANCH   1   7
BRANCH   2  14
HETATM   14  C   UNL     1      62.996  11.215   5.960  1.00  0.00     0.205 C 
BRANCH  14  15
HETATM   15  O   UNL     1      64.387  11.325   6.259  1.00  0.00    -0.396 OA
HETATM   16  H   UNL     1      64.603  10.750   7.010  1.00  0.00     0.209 HD
ENDBRANCH  14  15
ENDBRANCH   2  14
TORSDOF 4
ENDMDL
MODEL 2
REMARK VINA RESULT:      -5.2      1.634      2.216
REMARK  4 active torsions:
REMARK  status: ('A' for Active; 'I' for Inactive)
REMARK    1  A    between atoms: C_1  and  O_2 
REMARK    2  A    between atoms: O_2  and  C_4 
REMARK    3  A    between atoms: C_3  and  C_5 
REMARK    4  A    between atoms: C_5  and  O_6 
ROOT
HETATM    1  C   UNL     1      62.529   8.431   3.718  1.00  0.00     0.084 C 
HETATM    2  C   UNL     1      62.254   9.749   3.322  1.00  0.00    -0.001 C 
HETATM    3  C   UNL     1      62.705   7.435   2.741  1.00  0.00     0.038 C 
HETATM    4  C   UNL     1      62.016  10.001   1.957  1.00  0.00     0.012 C 
HETATM    5  C   UNL     1      62.082   8.978   1.009  1.00  0.00     0.001 C 
HETATM    6  C   UNL     1      62.448   7.698   1.399  1.00  0.00     0.003 C 
ENDROOT
BRANCH   1   7
HETATM    7  O   UNL     1      62.615   8.140   5.073  1.00  0.00    -0.310 OA
BRANCH   7   8
HETATM    8  C   UNL     1      63.855   7.763   5.557  1.00  0.00     0.076 A 
HETATM    9  C   UNL     1      63.916   6.613   6.351  1.00  0.00     0.037 A 
HETATM   10  C   UNL     1      65.113   6.273   6.979  1.00  0.00     0.003 A 
HETATM   11  C   UNL     1      66.250   7.066   6.811  1.00  0.00     0.000 A 
HETATM   12  C   UNL     1      66.205   8.176   5.969  1.00  0.00     0.003 A 
HETATM   13  C   UNL     1      65.019   8.503   5.311  1.00  0.00     0.037 A 
ENDBRANCH   7   8
ENDBRANCH   1   7
BRANCH   2  14
HETATM   14  C   UNL     1      62.176  10.904   4.285  1.00  0.00     0.205 C 
BRANCH  14  15
HETATM   15  O   UNL     1      61.836  12.101   3.585  1.00  0.00    -0.396 OA
HETATM   16  H   UNL     1      61.535  12.772   4.218  1.00  0.00     0.209 HD
ENDBRANCH  14  15
ENDBRANCH   2  14
TORSDOF 4
ENDMDL
MODEL 3
REMARK VINA RESULT:      -5.0      1.446      5.195
REMARK  4 active torsions:
REMARK  status: ('A' for Active; 'I' for Inactive)
REMARK    1  A    between atoms: C_1  and  O_2 
REMARK    2  A    between atoms: O_2  and  C_4 
REMARK    3  A    between atoms: C_3  and  C_5 
REMARK    4  A    between atoms: C_5  and  O_6 
ROOT
HETATM    1  C   UNL     1      63.697   8.023   5.442  1.00  0.00     0.084 C 
HETATM    2  C   UNL     1      63.692   6.689   5.880  1.00  0.00    -0.001 C 
HETATM    3  C   UNL     1      64.918   8.645   5.123  1.00  0.00     0.038 C 
HETATM    4  C   UNL     1      64.929   6.063   6.129  1.00  0.00     0.012 C 
HETATM    5  C   UNL     1      66.136   6.732   5.916  1.00  0.00     0.001 C 
HETATM    6  C   UNL     1      66.130   8.016   5.392  1.00  0.00     0.003 C 
ENDROOT
BRANCH   1   7
HETATM    7  O   UNL     1      62.490   8.702   5.339  1.00  0.00    -0.310 OA
BRANCH   7   8
HETATM    8  C   UNL     1      62.213   9.309   4.127  1.00  0.00     0.076 A 
HETATM    9  C   UNL     1      62.177   8.493   2.991  1.00  0.00     0.037 A 
HETATM   10  C   UNL     1      62.045   9.075   1.730  1.00  0.00     0.003 A 
HETATM   11  C   UNL     1      61.938  10.460   1.599  1.00  0.00     0.000 A 
HETATM   12  C   UNL     1      61.909  11.267   2.735  1.00  0.00     0.003 A 
HETATM   13  C   UNL     1      62.008  10.689   4.001  1.00  0.00     0.037 A 
ENDBRANCH   7   8
ENDBRANCH   1   7
BRANCH   2  14
HETATM   14  C   UNL     1      62.432   5.902   6.123  1.00  0.00     0.205 C 
BRANCH  14  15
HETATM   15  O   UNL     1      61.534   6.657   6.936  1.00  0.00    -0.396 OA
HETATM   16  H   UNL     1      62.040   7.258   7.505  1.00  0.00     0.209 HD
ENDBRANCH  14  15
ENDBRANCH   2  14
TORSDOF 4
ENDMDL
MODEL 4
REMARK VINA RESULT:      -5.0      1.728      3.101
REMARK  4 active torsions:
REMARK  status: ('A' for Active; 'I' for Inactive)
REMARK    1  A    between atoms: C_1  and  O_2 
REMARK    2  A    between atoms: O_2  and  C_4 
REMARK    3  A    between atoms: C_3  and  C_5 
REMARK    4  A    between atoms: C_5  and  O_6 
ROOT
HETATM    1  C   UNL     1      62.466   8.943   3.526  1.00  0.00     0.084 C 
HETATM    2  C   UNL     1      62.247   8.887   2.141  1.00  0.00    -0.001 C 
HETATM    3  C   UNL     1      62.237  10.146   4.218  1.00  0.00     0.038 C 
HETATM    4  C   UNL     1      61.946  10.085   1.464  1.00  0.00     0.012 C 
HETATM    5  C   UNL     1      61.833  11.296   2.148  1.00  0.00     0.001 C 
HETATM    6  C   UNL     1      61.957  11.322   3.530  1.00  0.00     0.003 C 
ENDROOT
BRANCH   1   7
HETATM    7  O   UNL     1      62.912   7.803   4.184  1.00  0.00    -0.310 OA
BRANCH   7   8
HETATM    8  C   UNL     1      64.280   7.651   4.318  1.00  0.00     0.076 A 
HETATM    9  C   UNL     1      64.890   6.629   3.582  1.00  0.00     0.037 A 
HETATM   10  C   UNL     1      66.239   6.341   3.791  1.00  0.00     0.003 A 
HETATM   11  C   UNL     1      66.982   7.073   4.719  1.00  0.00     0.000 A 
HETATM   12  C   UNL     1      66.390   8.132   5.405  1.00  0.00     0.003 A 
HETATM   13  C   UNL     1      65.049   8.446   5.177  1.00  0.00     0.037 A 
ENDBRANCH   7   8
ENDBRANCH   1   7
BRANCH   2  14
HETATM   14  C   UNL     1      62.342   7.617   1.338  1.00  0.00     0.205 C 
BRANCH  14  15
HETATM   15  O   UNL     1      61.581   6.585   1.965  1.00  0.00    -0.396 OA
HETATM   16  H   UNL     1      61.097   6.085   1.290  1.00  0.00     0.209 HD
ENDBRANCH  14  15
ENDBRANCH   2  14
TORSDOF 4
ENDMDL
MODEL 5
REMARK VINA RESULT:      -4.7      2.810      3.828
REMARK  4 active torsions:
REMARK  status: ('A' for Active; 'I' for Inactive)
REMARK    1  A    between atoms: C_1  and  O_2 
REMARK    2  A    between atoms: O_2  and  C_4 
REMARK    3  A    between atoms: C_3  and  C_5 
REMARK    4  A    between atoms: C_5  and  O_6 
ROOT
HETATM    1  C   UNL     1      62.534   8.845   3.492  1.00  0.00     0.084 C 
HETATM    2  C   UNL     1      62.524  10.048   4.215  1.00  0.00    -0.001 C 
HETATM    3  C   UNL     1      62.284   8.864   2.108  1.00  0.00     0.038 C 
HETATM    4  C   UNL     1      62.114  11.221   3.554  1.00  0.00     0.012 C 
HETATM    5  C   UNL     1      61.757  11.206   2.204  1.00  0.00     0.001 C 
HETATM    6  C   UNL     1      61.863  10.030   1.475  1.00  0.00     0.003 C 
ENDROOT
BRANCH   1   7
HETATM    7  O   UNL     1      62.788   7.657   4.165  1.00  0.00    -0.310 OA
BRANCH   7   8
HETATM    8  C   UNL     1      61.722   7.064   4.816  1.00  0.00     0.076 A 
HETATM    9  C   UNL     1      61.942   6.588   6.113  1.00  0.00     0.037 A 
HETATM   10  C   UNL     1      60.944   5.856   6.756  1.00  0.00     0.003 A 
HETATM   11  C   UNL     1      59.728   5.606   6.118  1.00  0.00     0.000 A 
HETATM   12  C   UNL     1      59.486   6.135   4.851  1.00  0.00     0.003 A 
HETATM   13  C   UNL     1      60.468   6.896   4.215  1.00  0.00     0.037 A 
ENDBRANCH   7   8
ENDBRANCH   1   7
BRANCH   2  14
HETATM   14  C   UNL     1      62.903  10.143   5.669  1.00  0.00     0.205 C 
BRANCH  14  15
HETATM   15  O   UNL     1      63.493  11.416   5.937  1.00  0.00    -0.396 OA
HETATM   16  H   UNL     1      64.345  11.481   5.478  1.00  0.00     0.209 HD
ENDBRANCH  14  15
ENDBRANCH   2  14
TORSDOF 4
ENDMDL
MODEL 6
REMARK VINA RESULT:      -4.6      1.759      5.271
REMARK  4 active torsions:
REMARK  status: ('A' for Active; 'I' for Inactive)
REMARK    1  A    between atoms: C_1  and  O_2 
REMARK    2  A    between atoms: O_2  and  C_4 
REMARK    3  A    between atoms: C_3  and  C_5 
REMARK    4  A    between atoms: C_5  and  O_6 
ROOT
HETATM    1  C   UNL     1      65.853   7.222   6.442  1.00  0.00     0.084 C 
HETATM    2  C   UNL     1      67.131   6.873   5.978  1.00  0.00    -0.001 C 
HETATM    3  C   UNL     1      65.103   6.288   7.179  1.00  0.00     0.038 C 
HETATM    4  C   UNL     1      67.560   5.541   6.139  1.00  0.00     0.012 C 
HETATM    5  C   UNL     1      66.756   4.592   6.773  1.00  0.00     0.001 C 
HETATM    6  C   UNL     1      65.535   4.972   7.313  1.00  0.00     0.003 C 
ENDROOT
BRANCH   1   7
HETATM    7  O   UNL     1      65.355   8.487   6.156  1.00  0.00    -0.310 OA
BRANCH   7   8
HETATM    8  C   UNL     1      64.442   8.583   5.122  1.00  0.00     0.076 A 
HETATM    9  C   UNL     1      63.534   9.647   5.160  1.00  0.00     0.037 A 
HETATM   10  C   UNL     1      62.504   9.707   4.222  1.00  0.00     0.003 A 
HETATM   11  C   UNL     1      62.381   8.720   3.243  1.00  0.00     0.000 A 
HETATM   12  C   UNL     1      63.323   7.695   3.166  1.00  0.00     0.003 A 
HETATM   13  C   UNL     1      64.375   7.647   4.082  1.00  0.00     0.037 A 
ENDBRANCH   7   8
ENDBRANCH   1   7
BRANCH   2  14
HETATM   14  C   UNL     1      68.057   7.843   5.293  1.00  0.00     0.205 C 
BRANCH  14  15
HETATM   15  O   UNL     1      67.988   7.667   3.878  1.00  0.00    -0.396 OA
HETATM   16  H   UNL     1      68.653   7.019   3.599  1.00  0.00     0.209 HD
ENDBRANCH  14  15
ENDBRANCH   2  14
TORSDOF 4
ENDMDL
MODEL 7
REMARK VINA RESULT:      -4.5      3.723      5.535
REMARK  4 active torsions:
REMARK  status: ('A' for Active; 'I' for Inactive)
REMARK    1  A    between atoms: C_1  and  O_2 
REMARK    2  A    between atoms: O_2  and  C_4 
REMARK    3  A    between atoms: C_3  and  C_5 
REMARK    4  A    between atoms: C_5  and  O_6 
ROOT
HETATM    1  C   UNL     1      60.008   6.895   4.317  1.00  0.00     0.084 C 
HETATM    2  C   UNL     1      59.846   6.270   5.563  1.00  0.00    -0.001 C 
HETATM    3  C   UNL     1      58.887   7.427   3.656  1.00  0.00     0.038 C 
HETATM    4  C   UNL     1      58.537   6.064   6.042  1.00  0.00     0.012 C 
HETATM    5  C   UNL     1      57.424   6.496   5.319  1.00  0.00     0.001 C 
HETATM    6  C   UNL     1      57.601   7.198   4.135  1.00  0.00     0.003 C 
ENDROOT
BRANCH   1   7
HETATM    7  O   UNL     1      61.279   6.969   3.762  1.00  0.00    -0.310 OA
BRANCH   7   8
HETATM    8  C   UNL     1      61.616   8.147   3.120  1.00  0.00     0.076 A 
HETATM    9  C   UNL     1      61.716   9.302   3.904  1.00  0.00     0.037 A 
HETATM   10  C   UNL     1      61.911  10.537   3.287  1.00  0.00     0.003 A 
HETATM   11  C   UNL     1      62.017  10.625   1.898  1.00  0.00     0.000 A 
HETATM   12  C   UNL     1      61.981   9.467   1.123  1.00  0.00     0.003 A 
HETATM   13  C   UNL     1      61.819   8.224   1.737  1.00  0.00     0.037 A 
ENDBRANCH   7   8
ENDBRANCH   1   7
BRANCH   2  14
HETATM   14  C   UNL     1      60.998   5.785   6.403  1.00  0.00     0.205 C 
BRANCH  14  15
HETATM   15  O   UNL     1      61.860   6.876   6.725  1.00  0.00    -0.396 OA
HETATM   16  H   UNL     1      61.778   7.086   7.668  1.00  0.00     0.209 HD
ENDBRANCH  14  15
ENDBRANCH   2  14
TORSDOF 4
ENDMDL
MODEL 8
REMARK VINA RESULT:      -4.5      2.568      5.481
REMARK  4 active torsions:
REMARK  status: ('A' for Active; 'I' for Inactive)
REMARK    1  A    between atoms: C_1  and  O_2 
REMARK    2  A    between atoms: O_2  and  C_4 
REMARK    3  A    between atoms: C_3  and  C_5 
REMARK    4  A    between atoms: C_5  and  O_6 
ROOT
HETATM    1  C   UNL     1      62.504   9.026   3.189  1.00  0.00     0.084 C 
HETATM    2  C   UNL     1      63.237   8.796   4.364  1.00  0.00    -0.001 C 
HETATM    3  C   UNL     1      61.972  10.304   2.941  1.00  0.00     0.038 C 
HETATM    4  C   UNL     1      63.286   9.819   5.331  1.00  0.00     0.012 C 
HETATM    5  C   UNL     1      62.655  11.047   5.121  1.00  0.00     0.001 C 
HETATM    6  C   UNL     1      62.016  11.296   3.915  1.00  0.00     0.003 C 
ENDROOT
BRANCH   1   7
HETATM    7  O   UNL     1      62.318   7.978   2.296  1.00  0.00    -0.310 OA
BRANCH   7   8
HETATM    8  C   UNL     1      61.015   7.683   1.937  1.00  0.00     0.076 A 
HETATM    9  C   UNL     1      60.663   7.852   0.594  1.00  0.00     0.037 A 
HETATM   10  C   UNL     1      59.330   7.708   0.208  1.00  0.00     0.003 A 
HETATM   11  C   UNL     1      58.353   7.387   1.152  1.00  0.00     0.000 A 
HETATM   12  C   UNL     1      58.715   7.156   2.478  1.00  0.00     0.003 A 
HETATM   13  C   UNL     1      60.051   7.267   2.864  1.00  0.00     0.037 A 
ENDBRANCH   7   8
ENDBRANCH   1   7
BRANCH   2  14
HETATM   14  C   UNL     1      63.950   7.503   4.656  1.00  0.00     0.205 C 
BRANCH  14  15
HETATM   15  O   UNL     1      64.620   7.039   3.484  1.00  0.00    -0.396 OA
HETATM   16  H   UNL     1      64.403   6.105   3.335  1.00  0.00     0.209 HD
ENDBRANCH  14  15
ENDBRANCH   2  14
TORSDOF 4
ENDMDL
MODEL 9
REMARK VINA RESULT:      -4.4      2.041      2.942
REMARK  4 active torsions:
REMARK  status: ('A' for Active; 'I' for Inactive)
REMARK    1  A    between atoms: C_1  and  O_2 
REMARK    2  A    between atoms: O_2  and  C_4 
REMARK    3  A    between atoms: C_3  and  C_5 
REMARK    4  A    between atoms: C_5  and  O_6 
ROOT
HETATM    1  C   UNL     1      63.063   7.672   5.781  1.00  0.00     0.084 C 
HETATM    2  C   UNL     1      61.905   7.001   5.359  1.00  0.00    -0.001 C 
HETATM    3  C   UNL     1      63.510   8.801   5.071  1.00  0.00     0.038 C 
HETATM    4  C   UNL     1      61.310   7.394   4.144  1.00  0.00     0.012 C 
HETATM    5  C   UNL     1      61.832   8.446   3.388  1.00  0.00     0.001 C 
HETATM    6  C   UNL     1      62.920   9.163   3.864  1.00  0.00     0.003 C 
ENDROOT
BRANCH   1   7
HETATM    7  O   UNL     1      63.747   7.199   6.894  1.00  0.00    -0.310 OA
BRANCH   7   8
HETATM    8  C   UNL     1      64.956   6.567   6.666  1.00  0.00     0.076 A 
HETATM    9  C   UNL     1      66.000   6.832   7.559  1.00  0.00     0.037 A 
HETATM   10  C   UNL     1      67.275   6.335   7.293  1.00  0.00     0.003 A 
HETATM   11  C   UNL     1      67.511   5.569   6.150  1.00  0.00     0.000 A 
HETATM   12  C   UNL     1      66.457   5.252   5.295  1.00  0.00     0.003 A 
HETATM   13  C   UNL     1      65.172   5.719   5.573  1.00  0.00     0.037 A 
ENDBRANCH   7   8
ENDBRANCH   1   7
BRANCH   2  14
HETATM   14  C   UNL     1      61.280   5.865   6.124  1.00  0.00     0.205 C 
BRANCH  14  15
HETATM   15  O   UNL     1      60.783   6.336   7.377  1.00  0.00    -0.396 OA
HETATM   16  H   UNL     1      60.281   5.629   7.812  1.00  0.00     0.209 HD
ENDBRANCH  14  15
ENDBRANCH   2  14
TORSDOF 4
ENDMDL
