MODEL 1
REMARK VINA RESULT:      -5.3      0.000      0.000
REMARK  3 active torsions:
REMARK  status: ('A' for Active; 'I' for Inactive)
REMARK    1  A    between atoms: C_1  and  N_2 
REMARK    2  A    between atoms: C_6  and  C_11 
REMARK    3  A    between atoms: O_10  and  C_11 
ROOT
HETATM    1  C   UNL     1      64.236   8.066   4.300  1.00  0.00     0.103 A 
HETATM    2  N   UNL     1      63.361   7.915   3.288  1.00  0.00    -0.352 N 
ATOM      3  HN  UNL     1      63.429   7.125   2.647  1.00  0.00     0.166 HD
HETATM    4  C   UNL     1      64.156   9.166   5.158  1.00  0.00     0.057 A 
HETATM    5  C   UNL     1      63.151  10.125   5.003  1.00  0.00    -0.030 A 
HETATM    6  C   UNL     1      62.385   8.846   3.146  1.00  0.00     0.090 A 
HETATM    7  C   UNL     1      62.241   9.951   3.965  1.00  0.00     0.026 A 
ENDROOT
BRANCH   1   8
HETATM    8  N   UNL     1      65.296   7.176   4.463  1.00  0.00    -0.367 N 
HETATM    9  C   UNL     1      65.353   6.043   3.538  1.00  0.00     0.124 C 
HETATM   10  C   UNL     1      66.814   5.582   3.480  1.00  0.00     0.020 C 
HETATM   11  C   UNL     1      67.364   5.260   4.872  1.00  0.00     0.003 C 
HETATM   12  C   UNL     1      67.095   6.388   5.871  1.00  0.00     0.020 C 
HETATM   13  C   UNL     1      65.628   6.819   5.844  1.00  0.00     0.124 C 
ENDBRANCH   1   8
BRANCH   5  14
HETATM   14  C   UNL     1      63.075  11.306   5.924  1.00  0.00     0.203 C 
BRANCH  14  15
HETATM   15  O   UNL     1      64.349  11.570   6.496  1.00  0.00    -0.396 OA
HETATM   16  H   UNL     1      64.249  12.187   7.237  1.00  0.00     0.209 HD
ENDBRANCH  14  15
ENDBRANCH   5  14
TORSDOF 3
ENDMDL
MODEL 2
REMARK VINA RESULT:      -5.1      2.237      2.828
REMARK  3 active torsions:
REMARK  status: ('A' for Active; 'I' for Inactive)
REMARK    1  A    between atoms: C_1  and  N_2 
REMARK    2  A    between atoms: C_6  and  C_11 
REMARK    3  A    between atoms: O_10  and  C_11 
ROOT
HETATM    1  C   UNL     1      64.277   8.876   5.132  1.00  0.00     0.103 A 
HETATM    2  N   UNL     1      63.890  10.006   5.756  1.00  0.00    -0.352 N 
ATOM      3  HN  UNL     1      64.360  10.325   6.603  1.00  0.00     0.166 HD
HETATM    4  C   UNL     1      63.612   8.427   3.988  1.00  0.00     0.057 A 
HETATM    5  C   UNL     1      62.545   9.150   3.448  1.00  0.00    -0.030 A 
HETATM    6  C   UNL     1      62.858  10.705   5.224  1.00  0.00     0.090 A 
HETATM    7  C   UNL     1      62.165  10.325   4.090  1.00  0.00     0.026 A 
ENDROOT
BRANCH   1   8
HETATM    8  N   UNL     1      65.292   8.082   5.663  1.00  0.00    -0.367 N 
HETATM    9  C   UNL     1      66.391   7.730   4.763  1.00  0.00     0.124 C 
HETATM   10  C   UNL     1      67.608   7.417   5.640  1.00  0.00     0.020 C 
HETATM   11  C   UNL     1      67.299   6.333   6.676  1.00  0.00     0.003 C 
HETATM   12  C   UNL     1      66.017   6.633   7.456  1.00  0.00     0.020 C 
HETATM   13  C   UNL     1      64.860   6.974   6.517  1.00  0.00     0.124 C 
ENDBRANCH   1   8
BRANCH   5  14
HETATM   14  C   UNL     1      61.833   8.659   2.223  1.00  0.00     0.203 C 
BRANCH  14  15
HETATM   15  O   UNL     1      60.953   9.658   1.729  1.00  0.00    -0.396 OA
HETATM   16  H   UNL     1      61.169   9.848   0.802  1.00  0.00     0.209 HD
ENDBRANCH  14  15
ENDBRANCH   5  14
TORSDOF 3
ENDMDL
MODEL 3
REMARK VINA RESULT:      -5.1      2.185      4.949
REMARK  3 active torsions:
REMARK  status: ('A' for Active; 'I' for Inactive)
REMARK    1  A    between atoms: C_1  and  N_2 
REMARK    2  A    between atoms: C_6  and  C_11 
REMARK    3  A    between atoms: O_10  and  C_11 
ROOT
HETATM    1  C   UNL     1      63.450   8.273   4.600  1.00  0.00     0.103 A 
HETATM    2  N   UNL     1      62.712   7.379   5.285  1.00  0.00    -0.352 N 
ATOM      3  HN  UNL     1      61.720   7.253   5.084  1.00  0.00     0.166 HD
HETATM    4  C   UNL     1      64.802   8.463   4.898  1.00  0.00     0.057 A 
HETATM    5  C   UNL     1      65.429   7.713   5.898  1.00  0.00    -0.030 A 
HETATM    6  C   UNL     1      63.326   6.651   6.249  1.00  0.00     0.090 A 
HETATM    7  C   UNL     1      64.661   6.779   6.587  1.00  0.00     0.026 A 
ENDROOT
BRANCH   1   8
HETATM    8  N   UNL     1      62.864   9.094   3.637  1.00  0.00    -0.367 N 
HETATM    9  C   UNL     1      61.995  10.164   4.126  1.00  0.00     0.124 C 
HETATM   10  C   UNL     1      61.964  11.249   3.044  1.00  0.00     0.020 C 
HETATM   11  C   UNL     1      61.532  10.685   1.686  1.00  0.00     0.003 C 
HETATM   12  C   UNL     1      62.325   9.432   1.306  1.00  0.00     0.020 C 
HETATM   13  C   UNL     1      62.343   8.416   2.448  1.00  0.00     0.124 C 
ENDBRANCH   1   8
BRANCH   5  14
HETATM   14  C   UNL     1      66.879   7.926   6.215  1.00  0.00     0.203 C 
BRANCH  14  15
HETATM   15  O   UNL     1      67.026   8.950   7.189  1.00  0.00    -0.396 OA
HETATM   16  H   UNL     1      67.861   8.824   7.666  1.00  0.00     0.209 HD
ENDBRANCH  14  15
ENDBRANCH   5  14
TORSDOF 3
ENDMDL
MODEL 4
REMARK VINA RESULT:      -4.9      1.534      1.809
REMARK  3 active torsions:
REMARK  status: ('A' for Active; 'I' for Inactive)
REMARK    1  A    between atoms: C_1  and  N_2 
REMARK    2  A    between atoms: C_6  and  C_11 
REMARK    3  A    between atoms: O_10  and  C_11 
ROOT
HETATM    1  C   UNL     1      64.439   7.954   4.708  1.00  0.00     0.103 A 
HETATM    2  N   UNL     1      64.031   7.307   3.600  1.00  0.00    -0.352 N 
ATOM      3  HN  UNL     1      64.440   6.411   3.334  1.00  0.00     0.166 HD
HETATM    4  C   UNL     1      63.897   9.196   5.052  1.00  0.00     0.057 A 
HETATM    5  C   UNL     1      62.901   9.785   4.269  1.00  0.00    -0.030 A 
HETATM    6  C   UNL     1      63.061   7.881   2.848  1.00  0.00     0.090 A 
HETATM    7  C   UNL     1      62.473   9.099   3.136  1.00  0.00     0.026 A 
ENDROOT
BRANCH   1   8
HETATM    8  N   UNL     1      65.475   7.445   5.490  1.00  0.00    -0.367 N 
HETATM    9  C   UNL     1      66.596   6.829   4.778  1.00  0.00     0.124 C 
HETATM   10  C   UNL     1      67.813   6.902   5.707  1.00  0.00     0.020 C 
HETATM   11  C   UNL     1      67.528   6.259   7.068  1.00  0.00     0.003 C 
HETATM   12  C   UNL     1      66.227   6.776   7.687  1.00  0.00     0.020 C 
HETATM   13  C   UNL     1      65.070   6.709   6.689  1.00  0.00     0.124 C 
ENDBRANCH   1   8
BRANCH   5  14
HETATM   14  C   UNL     1      62.327  11.120   4.643  1.00  0.00     0.203 C 
BRANCH  14  15
HETATM   15  O   UNL     1      61.917  11.824   3.479  1.00  0.00    -0.396 OA
HETATM   16  H   UNL     1      62.450  12.629   3.384  1.00  0.00     0.209 HD
ENDBRANCH  14  15
ENDBRANCH   5  14
TORSDOF 3
ENDMDL
MODEL 5
REMARK VINA RESULT:      -4.7      1.687      2.073
REMARK  3 active torsions:
REMARK  status: ('A' for Active; 'I' for Inactive)
REMARK    1  A    between atoms: C_1  and  N_2 
REMARK    2  A    between atoms: C_6  and  C_11 
REMARK    3  A    between atoms: O_10  and  C_11 
ROOT
HETATM    1  C   UNL     1      64.363   7.628   4.473  1.00  0.00     0.103 A 
HETATM    2  N   UNL     1      63.937   7.001   3.360  1.00  0.00    -0.352 N 
ATOM      3  HN  UNL     1      64.330   6.103   3.079  1.00  0.00     0.166 HD
HETATM    4  C   UNL     1      63.842   8.872   4.837  1.00  0.00     0.057 A 
HETATM    5  C   UNL     1      62.849   9.487   4.070  1.00  0.00    -0.030 A 
HETATM    6  C   UNL     1      62.969   7.600   2.623  1.00  0.00     0.090 A 
HETATM    7  C   UNL     1      62.402   8.823   2.931  1.00  0.00     0.026 A 
ENDROOT
BRANCH   1   8
HETATM    8  N   UNL     1      65.396   7.092   5.240  1.00  0.00    -0.367 N 
HETATM    9  C   UNL     1      65.069   6.717   6.616  1.00  0.00     0.124 C 
HETATM   10  C   UNL     1      66.084   5.653   7.047  1.00  0.00     0.020 C 
HETATM   11  C   UNL     1      67.526   6.141   6.875  1.00  0.00     0.003 C 
HETATM   12  C   UNL     1      67.772   6.725   5.482  1.00  0.00     0.020 C 
HETATM   13  C   UNL     1      66.699   7.748   5.108  1.00  0.00     0.124 C 
ENDBRANCH   1   8
BRANCH   5  14
HETATM   14  C   UNL     1      62.299  10.825   4.465  1.00  0.00     0.203 C 
BRANCH  14  15
HETATM   15  O   UNL     1      61.501  11.361   3.418  1.00  0.00    -0.396 OA
HETATM   16  H   UNL     1      60.566  11.317   3.671  1.00  0.00     0.209 HD
ENDBRANCH  14  15
ENDBRANCH   5  14
TORSDOF 3
ENDMDL
MODEL 6
REMARK VINA RESULT:      -4.6      2.582      5.090
REMARK  3 active torsions:
REMARK  status: ('A' for Active; 'I' for Inactive)
REMARK    1  A    between atoms: C_1  and  N_2 
REMARK    2  A    between atoms: C_6  and  C_11 
REMARK    3  A    between atoms: O_10  and  C_11 
ROOT
HETATM    1  C   UNL     1      61.764   8.757   3.291  1.00  0.00     0.103 A 
HETATM    2  N   UNL     1      61.425  10.022   3.603  1.00  0.00    -0.352 N 
ATOM      3  HN  UNL     1      60.590  10.455   3.210  1.00  0.00     0.166 HD
HETATM    4  C   UNL     1      62.926   8.178   3.809  1.00  0.00     0.057 A 
HETATM    5  C   UNL     1      63.753   8.888   4.684  1.00  0.00    -0.030 A 
HETATM    6  C   UNL     1      62.229  10.704   4.457  1.00  0.00     0.090 A 
HETATM    7  C   UNL     1      63.384  10.189   5.015  1.00  0.00     0.026 A 
ENDROOT
BRANCH   1   8
HETATM    8  N   UNL     1      61.012   8.024   2.373  1.00  0.00    -0.367 N 
HETATM    9  C   UNL     1      61.196   6.573   2.381  1.00  0.00     0.124 C 
HETATM   10  C   UNL     1      59.923   5.955   1.793  1.00  0.00     0.020 C 
HETATM   11  C   UNL     1      59.603   6.521   0.406  1.00  0.00     0.003 C 
HETATM   12  C   UNL     1      59.631   8.051   0.391  1.00  0.00     0.020 C 
HETATM   13  C   UNL     1      60.911   8.593   1.028  1.00  0.00     0.124 C 
ENDBRANCH   1   8
BRANCH   5  14
HETATM   14  C   UNL     1      65.000   8.261   5.231  1.00  0.00     0.203 C 
BRANCH  14  15
HETATM   15  O   UNL     1      65.647   9.151   6.131  1.00  0.00    -0.396 OA
HETATM   16  H   UNL     1      66.583   9.230   5.889  1.00  0.00     0.209 HD
ENDBRANCH  14  15
ENDBRANCH   5  14
TORSDOF 3
ENDMDL
MODEL 7
REMARK VINA RESULT:      -4.5      2.732      5.312
REMARK  3 active torsions:
REMARK  status: ('A' for Active; 'I' for Inactive)
REMARK    1  A    between atoms: C_1  and  N_2 
REMARK    2  A    between atoms: C_6  and  C_11 
REMARK    3  A    between atoms: O_10  and  C_11 
ROOT
HETATM    1  C   UNL     1      64.685   8.015   5.529  1.00  0.00     0.103 A 
HETATM    2  N   UNL     1      65.768   8.719   5.911  1.00  0.00    -0.352 N 
ATOM      3  HN  UNL     1      65.911   9.677   5.592  1.00  0.00     0.166 HD
HETATM    4  C   UNL     1      64.507   6.693   5.945  1.00  0.00     0.057 A 
HETATM    5  C   UNL     1      65.435   6.075   6.788  1.00  0.00    -0.030 A 
HETATM    6  C   UNL     1      66.661   8.116   6.733  1.00  0.00     0.090 A 
HETATM    7  C   UNL     1      66.541   6.817   7.192  1.00  0.00     0.026 A 
ENDROOT
BRANCH   1   8
HETATM    8  N   UNL     1      63.761   8.558   4.637  1.00  0.00    -0.367 N 
HETATM    9  C   UNL     1      62.798   9.513   5.187  1.00  0.00     0.124 C 
HETATM   10  C   UNL     1      62.327  10.396   4.027  1.00  0.00     0.020 C 
HETATM   11  C   UNL     1      61.766   9.564   2.870  1.00  0.00     0.003 C 
HETATM   12  C   UNL     1      62.715   8.435   2.462  1.00  0.00     0.020 C 
HETATM   13  C   UNL     1      63.172   7.624   3.676  1.00  0.00     0.124 C 
ENDBRANCH   1   8
BRANCH   5  14
HETATM   14  C   UNL     1      65.240   4.655   7.226  1.00  0.00     0.203 C 
BRANCH  14  15
HETATM   15  O   UNL     1      66.000   4.389   8.397  1.00  0.00    -0.396 OA
HETATM   16  H   UNL     1      66.940   4.330   8.164  1.00  0.00     0.209 HD
ENDBRANCH  14  15
ENDBRANCH   5  14
TORSDOF 3
ENDMDL
MODEL 8
REMARK VINA RESULT:      -4.3      2.433      5.549
REMARK  3 active torsions:
REMARK  status: ('A' for Active; 'I' for Inactive)
REMARK    1  A    between atoms: C_1  and  N_2 
REMARK    2  A    between atoms: C_6  and  C_11 
REMARK    3  A    between atoms: O_10  and  C_11 
ROOT
HETATM    1  C   UNL     1      64.214   8.052   4.323  1.00  0.00     0.103 A 
HETATM    2  N   UNL     1      64.651   8.415   5.544  1.00  0.00    -0.352 N 
ATOM      3  HN  UNL     1      64.312   9.266   5.993  1.00  0.00     0.166 HD
HETATM    4  C   UNL     1      64.703   6.901   3.701  1.00  0.00     0.057 A 
HETATM    5  C   UNL     1      65.640   6.083   4.339  1.00  0.00    -0.030 A 
HETATM    6  C   UNL     1      65.556   7.615   6.160  1.00  0.00     0.090 A 
HETATM    7  C   UNL     1      66.072   6.457   5.608  1.00  0.00     0.026 A 
ENDROOT
BRANCH   1   8
HETATM    8  N   UNL     1      63.329   8.863   3.614  1.00  0.00    -0.367 N 
HETATM    9  C   UNL     1      62.452   9.728   4.403  1.00  0.00     0.124 C 
HETATM   10  C   UNL     1      62.044  10.898   3.501  1.00  0.00     0.020 C 
HETATM   11  C   UNL     1      61.407  10.414   2.195  1.00  0.00     0.003 C 
HETATM   12  C   UNL     1      62.258   9.347   1.503  1.00  0.00     0.020 C 
HETATM   13  C   UNL     1      62.658   8.235   2.474  1.00  0.00     0.124 C 
ENDBRANCH   1   8
BRANCH   5  14
HETATM   14  C   UNL     1      66.164   4.852   3.662  1.00  0.00     0.203 C 
BRANCH  14  15
HETATM   15  O   UNL     1      67.528   5.026   3.306  1.00  0.00    -0.396 OA
HETATM   16  H   UNL     1      67.886   4.186   2.978  1.00  0.00     0.209 HD
ENDBRANCH  14  15
ENDBRANCH   5  14
TORSDOF 3
ENDMDL
MODEL 9
REMARK VINA RESULT:      -4.1      3.927      6.384
REMARK  3 active torsions:
REMARK  status: ('A' for Active; 'I' for Inactive)
REMARK    1  A    between atoms: C_1  and  N_2 
REMARK    2  A    between atoms: C_6  and  C_11 
REMARK    3  A    between atoms: O_10  and  C_11 
ROOT
HETATM    1  C   UNL     1      60.270   7.925   3.199  1.00  0.00     0.103 A 
HETATM    2  N   UNL     1      60.807   8.793   2.319  1.00  0.00    -0.352 N 
ATOM      3  HN  UNL     1      60.266   9.142   1.529  1.00  0.00     0.166 HD
HETATM    4  C   UNL     1      61.026   7.426   4.264  1.00  0.00     0.057 A 
HETATM    5  C   UNL     1      62.349   7.833   4.457  1.00  0.00    -0.030 A 
HETATM    6  C   UNL     1      62.089   9.187   2.516  1.00  0.00     0.090 A 
HETATM    7  C   UNL     1      62.888   8.743   3.553  1.00  0.00     0.026 A 
ENDROOT
BRANCH   1   8
HETATM    8  N   UNL     1      58.977   7.436   3.018  1.00  0.00    -0.367 N 
HETATM    9  C   UNL     1      58.411   7.555   1.674  1.00  0.00     0.124 C 
HETATM   10  C   UNL     1      57.328   6.477   1.546  1.00  0.00     0.020 C 
HETATM   11  C   UNL     1      56.282   6.586   2.660  1.00  0.00     0.003 C 
HETATM   12  C   UNL     1      56.927   6.676   4.046  1.00  0.00     0.020 C 
HETATM   13  C   UNL     1      58.021   7.743   4.084  1.00  0.00     0.124 C 
ENDBRANCH   1   8
BRANCH   5  14
HETATM   14  C   UNL     1      63.154   7.288   5.599  1.00  0.00     0.203 C 
BRANCH  14  15
HETATM   15  O   UNL     1      62.607   7.717   6.838  1.00  0.00    -0.396 OA
HETATM   16  H   UNL     1      62.316   6.944   7.347  1.00  0.00     0.209 HD
ENDBRANCH  14  15
ENDBRANCH   5  14
TORSDOF 3
ENDMDL
