MODEL 1
REMARK VINA RESULT:      -5.1      0.000      0.000
REMARK  3 active torsions:
REMARK  status: ('A' for Active; 'I' for Inactive)
REMARK    1  A    between atoms: C_1  and  N_2 
REMARK    2  A    between atoms: C_6  and  C_11 
REMARK    3  A    between atoms: N_8  and  C_11 
ROOT
HETATM    1  C   UNL     1      64.070   8.682   5.070  1.00  0.00     0.103 A 
HETATM    2  N   UNL     1      63.698   9.817   5.692  1.00  0.00    -0.352 N 
ATOM      3  HN  UNL     1      64.106  10.080   6.589  1.00  0.00     0.166 HD
HETATM    4  C   UNL     1      63.513   8.323   3.840  1.00  0.00     0.057 A 
HETATM    5  C   UNL     1      62.577   9.150   3.212  1.00  0.00    -0.028 A 
HETATM    6  C   UNL     1      62.768  10.598   5.094  1.00  0.00     0.090 A 
HETATM    7  C   UNL     1      62.193  10.319   3.869  1.00  0.00     0.026 A 
ENDROOT
BRANCH   1   8
HETATM    8  N   UNL     1      65.112   7.923   5.580  1.00  0.00    -0.367 N 
HETATM    9  C   UNL     1      64.795   6.890   6.557  1.00  0.00     0.124 C 
HETATM   10  C   UNL     1      65.984   6.802   7.521  1.00  0.00     0.020 C 
HETATM   11  C   UNL     1      67.308   6.587   6.781  1.00  0.00     0.003 C 
HETATM   12  C   UNL     1      67.496   7.589   5.637  1.00  0.00     0.020 C 
HETATM   13  C   UNL     1      66.265   7.631   4.732  1.00  0.00     0.124 C 
ENDBRANCH   1   8
BRANCH   5  14
HETATM   14  C   UNL     1      62.060   8.814   1.842  1.00  0.00     0.268 C 
BRANCH  14  15
HETATM   15  N   UNL     1      60.646   9.135   1.709  1.00  0.00    -0.075 N 
HETATM   16  H   UNL     1      60.506  10.132   1.877  1.00  0.00     0.274 HD
HETATM   17  H   UNL     1      60.109   8.597   2.389  1.00  0.00     0.274 HD
HETATM   18  H   UNL     1      60.330   8.901   0.767  1.00  0.00     0.274 HD
ENDBRANCH  14  15
ENDBRANCH   5  14
TORSDOF 3
ENDMDL
MODEL 2
REMARK VINA RESULT:      -5.1      1.797      2.866
REMARK  3 active torsions:
REMARK  status: ('A' for Active; 'I' for Inactive)
REMARK    1  A    between atoms: C_1  and  N_2 
REMARK    2  A    between atoms: C_6  and  C_11 
REMARK    3  A    between atoms: N_8  and  C_11 
ROOT
HETATM    1  C   UNL     1      65.125   7.630   4.833  1.00  0.00     0.103 A 
HETATM    2  N   UNL     1      64.621   6.945   3.787  1.00  0.00    -0.352 N 
ATOM      3  HN  UNL     1      65.038   6.063   3.489  1.00  0.00     0.166 HD
HETATM    4  C   UNL     1      64.552   8.836   5.243  1.00  0.00     0.057 A 
HETATM    5  C   UNL     1      63.423   9.346   4.595  1.00  0.00    -0.028 A 
HETATM    6  C   UNL     1      63.548   7.460   3.144  1.00  0.00     0.090 A 
HETATM    7  C   UNL     1      62.915   8.634   3.509  1.00  0.00     0.026 A 
ENDROOT
BRANCH   1   8
HETATM    8  N   UNL     1      66.137   7.074   5.600  1.00  0.00    -0.367 N 
HETATM    9  C   UNL     1      67.148   6.270   4.926  1.00  0.00     0.124 C 
HETATM   10  C   UNL     1      67.577   5.172   5.905  1.00  0.00     0.020 C 
HETATM   11  C   UNL     1      68.025   5.749   7.252  1.00  0.00     0.003 C 
HETATM   12  C   UNL     1      67.003   6.738   7.822  1.00  0.00     0.020 C 
HETATM   13  C   UNL     1      66.612   7.788   6.783  1.00  0.00     0.124 C 
ENDBRANCH   1   8
BRANCH   5  14
HETATM   14  C   UNL     1      62.747  10.587   5.105  1.00  0.00     0.268 C 
BRANCH  14  15
HETATM   15  N   UNL     1      63.572  11.285   6.082  1.00  0.00    -0.075 N 
HETATM   16  H   UNL     1      63.835  12.200   5.714  1.00  0.00     0.274 HD
HETATM   17  H   UNL     1      64.413  10.739   6.269  1.00  0.00     0.274 HD
HETATM   18  H   UNL     1      63.046  11.405   6.948  1.00  0.00     0.274 HD
ENDBRANCH  14  15
ENDBRANCH   5  14
TORSDOF 3
ENDMDL
MODEL 3
REMARK VINA RESULT:      -4.8      1.727      5.222
REMARK  3 active torsions:
REMARK  status: ('A' for Active; 'I' for Inactive)
REMARK    1  A    between atoms: C_1  and  N_2 
REMARK    2  A    between atoms: C_6  and  C_11 
REMARK    3  A    between atoms: N_8  and  C_11 
ROOT
HETATM    1  C   UNL     1      65.104   8.129   4.980  1.00  0.00     0.103 A 
HETATM    2  N   UNL     1      65.594   8.625   6.133  1.00  0.00    -0.352 N 
ATOM      3  HN  UNL     1      65.172   9.443   6.572  1.00  0.00     0.166 HD
HETATM    4  C   UNL     1      65.680   7.007   4.381  1.00  0.00     0.057 A 
HETATM    5  C   UNL     1      66.762   6.354   4.979  1.00  0.00    -0.028 A 
HETATM    6  C   UNL     1      66.661   8.008   6.692  1.00  0.00     0.090 A 
HETATM    7  C   UNL     1      67.266   6.881   6.167  1.00  0.00     0.026 A 
ENDROOT
BRANCH   1   8
HETATM    8  N   UNL     1      63.934   8.647   4.446  1.00  0.00    -0.367 N 
HETATM    9  C   UNL     1      63.234   7.863   3.437  1.00  0.00     0.124 C 
HETATM   10  C   UNL     1      62.579   8.856   2.469  1.00  0.00     0.020 C 
HETATM   11  C   UNL     1      61.699   9.873   3.203  1.00  0.00     0.003 C 
HETATM   12  C   UNL     1      62.433  10.527   4.377  1.00  0.00     0.020 C 
HETATM   13  C   UNL     1      63.072   9.476   5.283  1.00  0.00     0.124 C 
ENDBRANCH   1   8
BRANCH   5  14
HETATM   14  C   UNL     1      67.312   5.087   4.387  1.00  0.00     0.268 C 
BRANCH  14  15
HETATM   15  N   UNL     1      67.347   5.146   2.932  1.00  0.00    -0.075 N 
HETATM   16  H   UNL     1      66.792   5.940   2.610  1.00  0.00     0.274 HD
HETATM   17  H   UNL     1      66.963   4.284   2.547  1.00  0.00     0.274 HD
HETATM   18  H   UNL     1      68.312   5.256   2.619  1.00  0.00     0.274 HD
ENDBRANCH  14  15
ENDBRANCH   5  14
TORSDOF 3
ENDMDL
MODEL 4
REMARK VINA RESULT:      -4.5      2.151      5.959
REMARK  3 active torsions:
REMARK  status: ('A' for Active; 'I' for Inactive)
REMARK    1  A    between atoms: C_1  and  N_2 
REMARK    2  A    between atoms: C_6  and  C_11 
REMARK    3  A    between atoms: N_8  and  C_11 
ROOT
HETATM    1  C   UNL     1      61.617   8.962   3.356  1.00  0.00     0.103 A 
HETATM    2  N   UNL     1      61.434  10.257   3.680  1.00  0.00    -0.352 N 
ATOM      3  HN  UNL     1      60.649  10.786   3.300  1.00  0.00     0.166 HD
HETATM    4  C   UNL     1      62.689   8.237   3.880  1.00  0.00     0.057 A 
HETATM    5  C   UNL     1      63.582   8.831   4.777  1.00  0.00    -0.028 A 
HETATM    6  C   UNL     1      62.319  10.836   4.524  1.00  0.00     0.090 A 
HETATM    7  C   UNL     1      63.388  10.174   5.099  1.00  0.00     0.026 A 
ENDROOT
BRANCH   1   8
HETATM    8  N   UNL     1      60.662   8.295   2.604  1.00  0.00    -0.367 N 
HETATM    9  C   UNL     1      60.961   8.016   1.206  1.00  0.00     0.124 C 
HETATM   10  C   UNL     1      59.636   8.085   0.439  1.00  0.00     0.020 C 
HETATM   11  C   UNL     1      58.571   7.170   1.052  1.00  0.00     0.003 C 
HETATM   12  C   UNL     1      58.437   7.377   2.564  1.00  0.00     0.020 C 
HETATM   13  C   UNL     1      59.799   7.312   3.253  1.00  0.00     0.124 C 
ENDBRANCH   1   8
BRANCH   5  14
HETATM   14  C   UNL     1      64.672   8.020   5.420  1.00  0.00     0.268 C 
BRANCH  14  15
HETATM   15  N   UNL     1      64.208   7.367   6.636  1.00  0.00    -0.075 N 
HETATM   16  H   UNL     1      65.011   7.045   7.177  1.00  0.00     0.274 HD
HETATM   17  H   UNL     1      63.620   6.569   6.392  1.00  0.00     0.274 HD
HETATM   18  H   UNL     1      63.666   8.029   7.193  1.00  0.00     0.274 HD
ENDBRANCH  14  15
ENDBRANCH   5  14
TORSDOF 3
ENDMDL
MODEL 5
REMARK VINA RESULT:      -4.4      1.590      5.795
REMARK  3 active torsions:
REMARK  status: ('A' for Active; 'I' for Inactive)
REMARK    1  A    between atoms: C_1  and  N_2 
REMARK    2  A    between atoms: C_6  and  C_11 
REMARK    3  A    between atoms: N_8  and  C_11 
ROOT
HETATM    1  C   UNL     1      65.256   7.589   5.070  1.00  0.00     0.103 A 
HETATM    2  N   UNL     1      66.379   7.548   4.326  1.00  0.00    -0.352 N 
ATOM      3  HN  UNL     1      66.368   7.829   3.345  1.00  0.00     0.166 HD
HETATM    4  C   UNL     1      65.271   7.208   6.413  1.00  0.00     0.057 A 
HETATM    5  C   UNL     1      66.460   6.803   7.026  1.00  0.00    -0.028 A 
HETATM    6  C   UNL     1      67.521   7.125   4.917  1.00  0.00     0.090 A 
HETATM    7  C   UNL     1      67.615   6.756   6.246  1.00  0.00     0.026 A 
ENDROOT
BRANCH   1   8
HETATM    8  N   UNL     1      64.098   8.141   4.543  1.00  0.00    -0.367 N 
HETATM    9  C   UNL     1      63.394   7.399   3.505  1.00  0.00     0.124 C 
HETATM   10  C   UNL     1      62.762   8.431   2.564  1.00  0.00     0.020 C 
HETATM   11  C   UNL     1      61.890   9.438   3.322  1.00  0.00     0.003 C 
HETATM   12  C   UNL     1      62.625  10.045   4.522  1.00  0.00     0.020 C 
HETATM   13  C   UNL     1      63.241   8.956   5.399  1.00  0.00     0.124 C 
ENDBRANCH   1   8
BRANCH   5  14
HETATM   14  C   UNL     1      66.495   6.495   8.497  1.00  0.00     0.268 C 
BRANCH  14  15
HETATM   15  N   UNL     1      67.859   6.441   9.002  1.00  0.00    -0.075 N 
HETATM   16  H   UNL     1      68.026   7.236   9.619  1.00  0.00     0.274 HD
HETATM   17  H   UNL     1      68.514   6.475   8.220  1.00  0.00     0.274 HD
HETATM   18  H   UNL     1      67.997   5.572   9.520  1.00  0.00     0.274 HD
ENDBRANCH  14  15
ENDBRANCH   5  14
TORSDOF 3
ENDMDL
MODEL 6
REMARK VINA RESULT:      -4.3      1.883      1.947
REMARK  3 active torsions:
REMARK  status: ('A' for Active; 'I' for Inactive)
REMARK    1  A    between atoms: C_1  and  N_2 
REMARK    2  A    between atoms: C_6  and  C_11 
REMARK    3  A    between atoms: N_8  and  C_11 
ROOT
HETATM    1  C   UNL     1      63.264   8.321   4.587  1.00  0.00     0.103 A 
HETATM    2  N   UNL     1      63.310   9.165   5.636  1.00  0.00    -0.352 N 
ATOM      3  HN  UNL     1      63.741   8.884   6.516  1.00  0.00     0.166 HD
HETATM    4  C   UNL     1      62.676   8.707   3.381  1.00  0.00     0.057 A 
HETATM    5  C   UNL     1      62.146   9.991   3.224  1.00  0.00    -0.028 A 
HETATM    6  C   UNL     1      62.767  10.396   5.489  1.00  0.00     0.090 A 
HETATM    7  C   UNL     1      62.191  10.854   4.318  1.00  0.00     0.026 A 
ENDROOT
BRANCH   1   8
HETATM    8  N   UNL     1      63.924   7.103   4.651  1.00  0.00    -0.367 N 
HETATM    9  C   UNL     1      63.331   6.042   5.454  1.00  0.00     0.124 C 
HETATM   10  C   UNL     1      64.487   5.223   6.042  1.00  0.00     0.020 C 
HETATM   11  C   UNL     1      65.449   4.731   4.956  1.00  0.00     0.003 C 
HETATM   12  C   UNL     1      65.889   5.862   4.022  1.00  0.00     0.020 C 
HETATM   13  C   UNL     1      64.685   6.640   3.493  1.00  0.00     0.124 C 
ENDBRANCH   1   8
BRANCH   5  14
HETATM   14  C   UNL     1      61.610  10.438   1.893  1.00  0.00     0.268 C 
BRANCH  14  15
HETATM   15  N   UNL     1      61.675  11.886   1.748  1.00  0.00    -0.075 N 
HETATM   16  H   UNL     1      61.432  12.143   0.791  1.00  0.00     0.274 HD
HETATM   17  H   UNL     1      62.621  12.207   1.956  1.00  0.00     0.274 HD
HETATM   18  H   UNL     1      61.019  12.323   2.396  1.00  0.00     0.274 HD
ENDBRANCH  14  15
ENDBRANCH   5  14
TORSDOF 3
ENDMDL
MODEL 7
REMARK VINA RESULT:      -4.3      1.667      5.473
REMARK  3 active torsions:
REMARK  status: ('A' for Active; 'I' for Inactive)
REMARK    1  A    between atoms: C_1  and  N_2 
REMARK    2  A    between atoms: C_6  and  C_11 
REMARK    3  A    between atoms: N_8  and  C_11 
ROOT
HETATM    1  C   UNL     1      63.445   7.540   5.315  1.00  0.00     0.103 A 
HETATM    2  N   UNL     1      62.699   6.418   5.312  1.00  0.00    -0.352 N 
ATOM      3  HN  UNL     1      61.791   6.395   4.849  1.00  0.00     0.166 HD
HETATM    4  C   UNL     1      64.690   7.571   5.948  1.00  0.00     0.057 A 
HETATM    5  C   UNL     1      65.204   6.429   6.568  1.00  0.00    -0.028 A 
HETATM    6  C   UNL     1      63.188   5.324   5.941  1.00  0.00     0.090 A 
HETATM    7  C   UNL     1      64.420   5.276   6.566  1.00  0.00     0.026 A 
ENDROOT
BRANCH   1   8
HETATM    8  N   UNL     1      63.044   8.640   4.572  1.00  0.00    -0.367 N 
HETATM    9  C   UNL     1      63.445   9.963   5.031  1.00  0.00     0.124 C 
HETATM   10  C   UNL     1      62.318  10.931   4.654  1.00  0.00     0.020 C 
HETATM   11  C   UNL     1      61.975  10.857   3.163  1.00  0.00     0.003 C 
HETATM   12  C   UNL     1      61.751   9.416   2.695  1.00  0.00     0.020 C 
HETATM   13  C   UNL     1      62.905   8.511   3.124  1.00  0.00     0.124 C 
ENDBRANCH   1   8
BRANCH   5  14
HETATM   14  C   UNL     1      66.588   6.436   7.155  1.00  0.00     0.268 C 
BRANCH  14  15
HETATM   15  N   UNL     1      67.110   7.790   7.281  1.00  0.00    -0.075 N 
HETATM   16  H   UNL     1      67.792   7.962   6.542  1.00  0.00     0.274 HD
HETATM   17  H   UNL     1      67.559   7.898   8.190  1.00  0.00     0.274 HD
HETATM   18  H   UNL     1      66.343   8.459   7.200  1.00  0.00     0.274 HD
ENDBRANCH  14  15
ENDBRANCH   5  14
TORSDOF 3
ENDMDL
MODEL 8
REMARK VINA RESULT:      -4.2     12.987     14.183
REMARK  3 active torsions:
REMARK  status: ('A' for Active; 'I' for Inactive)
REMARK    1  A    between atoms: C_1  and  N_2 
REMARK    2  A    between atoms: C_6  and  C_11 
REMARK    3  A    between atoms: N_8  and  C_11 
ROOT
HETATM    1  C   UNL     1      56.151   0.919  14.027  1.00  0.00     0.103 A 
HETATM    2  N   UNL     1      55.459   0.095  14.838  1.00  0.00    -0.352 N 
ATOM      3  HN  UNL     1      55.869  -0.778  15.169  1.00  0.00     0.166 HD
HETATM    4  C   UNL     1      55.592   2.116  13.575  1.00  0.00     0.057 A 
HETATM    5  C   UNL     1      54.310   2.502  13.978  1.00  0.00    -0.028 A 
HETATM    6  C   UNL     1      54.207   0.459  15.200  1.00  0.00     0.090 A 
HETATM    7  C   UNL     1      53.600   1.638  14.811  1.00  0.00     0.026 A 
ENDROOT
BRANCH   1   8
HETATM    8  N   UNL     1      57.481   0.651  13.740  1.00  0.00    -0.367 N 
HETATM    9  C   UNL     1      58.490   1.578  14.237  1.00  0.00     0.124 C 
HETATM   10  C   UNL     1      59.625   1.603  13.205  1.00  0.00     0.020 C 
HETATM   11  C   UNL     1      60.153   0.197  12.901  1.00  0.00     0.003 C 
HETATM   12  C   UNL     1      59.022  -0.782  12.572  1.00  0.00     0.020 C 
HETATM   13  C   UNL     1      57.925  -0.736  13.634  1.00  0.00     0.124 C 
ENDBRANCH   1   8
BRANCH   5  14
HETATM   14  C   UNL     1      53.753   3.839  13.577  1.00  0.00     0.268 C 
BRANCH  14  15
HETATM   15  N   UNL     1      54.234   4.903  14.447  1.00  0.00    -0.075 N 
HETATM   16  H   UNL     1      55.248   4.978  14.365  1.00  0.00     0.274 HD
HETATM   17  H   UNL     1      53.986   4.692  15.413  1.00  0.00     0.274 HD
HETATM   18  H   UNL     1      53.804   5.787  14.172  1.00  0.00     0.274 HD
ENDBRANCH  14  15
ENDBRANCH   5  14
TORSDOF 3
ENDMDL
MODEL 9
REMARK VINA RESULT:      -4.1      2.964      5.256
REMARK  3 active torsions:
REMARK  status: ('A' for Active; 'I' for Inactive)
REMARK    1  A    between atoms: C_1  and  N_2 
REMARK    2  A    between atoms: C_6  and  C_11 
REMARK    3  A    between atoms: N_8  and  C_11 
ROOT
HETATM    1  C   UNL     1      61.872   7.704   4.475  1.00  0.00     0.103 A 
HETATM    2  N   UNL     1      62.770   7.514   5.462  1.00  0.00    -0.352 N 
ATOM      3  HN  UNL     1      63.597   8.106   5.539  1.00  0.00     0.166 HD
HETATM    4  C   UNL     1      60.739   6.895   4.371  1.00  0.00     0.057 A 
HETATM    5  C   UNL     1      60.494   5.886   5.306  1.00  0.00    -0.028 A 
HETATM    6  C   UNL     1      62.544   6.515   6.346  1.00  0.00     0.090 A 
HETATM    7  C   UNL     1      61.433   5.692   6.318  1.00  0.00     0.026 A 
ENDROOT
BRANCH   1   8
HETATM    8  N   UNL     1      61.996   8.797   3.630  1.00  0.00    -0.367 N 
HETATM    9  C   UNL     1      62.510  10.041   4.186  1.00  0.00     0.124 C 
HETATM   10  C   UNL     1      61.818  11.188   3.442  1.00  0.00     0.020 C 
HETATM   11  C   UNL     1      61.975  11.062   1.923  1.00  0.00     0.003 C 
HETATM   12  C   UNL     1      61.599   9.666   1.420  1.00  0.00     0.020 C 
HETATM   13  C   UNL     1      62.314   8.579   2.221  1.00  0.00     0.124 C 
ENDBRANCH   1   8
BRANCH   5  14
HETATM   14  C   UNL     1      59.222   5.088   5.253  1.00  0.00     0.268 C 
BRANCH  14  15
HETATM   15  N   UNL     1      58.180   5.789   4.516  1.00  0.00    -0.075 N 
HETATM   16  H   UNL     1      58.265   5.577   3.521  1.00  0.00     0.274 HD
HETATM   17  H   UNL     1      58.278   6.794   4.659  1.00  0.00     0.274 HD
HETATM   18  H   UNL     1      57.264   5.487   4.851  1.00  0.00     0.274 HD
ENDBRANCH  14  15
ENDBRANCH   5  14
TORSDOF 3
ENDMDL
