MODEL 1
REMARK VINA RESULT:      -5.3      0.000      0.000
REMARK  3 active torsions:
REMARK  status: ('A' for Active; 'I' for Inactive)
REMARK    1  A    between atoms: C_1  and  N_2 
REMARK    2  A    between atoms: C_6  and  C_11 
REMARK    3  A    between atoms: N_8  and  C_11 
ROOT
HETATM    1  C   UNL     1      64.052   8.730   5.072  1.00  0.00     0.103 A 
HETATM    2  N   UNL     1      63.710   9.860   5.725  1.00  0.00    -0.352 N 
ATOM      3  HN  UNL     1      64.138  10.100   6.619  1.00  0.00     0.166 HD
HETATM    4  C   UNL     1      63.470   8.406   3.845  1.00  0.00     0.057 A 
HETATM    5  C   UNL     1      62.536   9.258   3.252  1.00  0.00    -0.028 A 
HETATM    6  C   UNL     1      62.782  10.663   5.158  1.00  0.00     0.090 A 
HETATM    7  C   UNL     1      62.174  10.414   3.942  1.00  0.00     0.026 A 
ENDROOT
BRANCH   1   8
HETATM    8  N   UNL     1      65.080   7.939   5.554  1.00  0.00    -0.367 N 
HETATM    9  C   UNL     1      64.754   6.893   6.514  1.00  0.00     0.124 C 
HETATM   10  C   UNL     1      65.932   6.800   7.489  1.00  0.00     0.020 C 
HETATM   11  C   UNL     1      67.265   6.602   6.759  1.00  0.00     0.003 C 
HETATM   12  C   UNL     1      67.461   7.616   5.627  1.00  0.00     0.020 C 
HETATM   13  C   UNL     1      66.237   7.669   4.711  1.00  0.00     0.124 C 
ENDBRANCH   1   8
BRANCH   5  14
HETATM   14  C   UNL     1      61.969   8.942   1.888  1.00  0.00     0.270 C 
BRANCH  14  15
HETATM   15  N   UNL     1      60.507   8.887   1.919  1.00  0.00    -0.075 N 
HETATM   16  C   UNL     1      59.979   8.190   0.756  1.00  0.00     0.267 C 
HETATM   17  H   UNL     1      60.138   9.839   1.932  1.00  0.00     0.277 HD
HETATM   18  H   UNL     1      60.221   8.378   2.756  1.00  0.00     0.277 HD
ENDBRANCH  14  15
ENDBRANCH   5  14
TORSDOF 3
ENDMDL
MODEL 2
REMARK VINA RESULT:      -5.0      1.769      2.704
REMARK  3 active torsions:
REMARK  status: ('A' for Active; 'I' for Inactive)
REMARK    1  A    between atoms: C_1  and  N_2 
REMARK    2  A    between atoms: C_6  and  C_11 
REMARK    3  A    between atoms: N_8  and  C_11 
ROOT
HETATM    1  C   UNL     1      65.103   7.331   4.523  1.00  0.00     0.103 A 
HETATM    2  N   UNL     1      64.756   6.494   3.523  1.00  0.00    -0.352 N 
ATOM      3  HN  UNL     1      65.277   5.633   3.354  1.00  0.00     0.166 HD
HETATM    4  C   UNL     1      64.386   8.506   4.755  1.00  0.00     0.057 A 
HETATM    5  C   UNL     1      63.275   8.831   3.973  1.00  0.00    -0.028 A 
HETATM    6  C   UNL     1      63.698   6.832   2.751  1.00  0.00     0.090 A 
HETATM    7  C   UNL     1      62.936   7.970   2.931  1.00  0.00     0.026 A 
ENDROOT
BRANCH   1   8
HETATM    8  N   UNL     1      66.102   6.969   5.409  1.00  0.00    -0.367 N 
HETATM    9  C   UNL     1      67.209   6.165   4.911  1.00  0.00     0.124 C 
HETATM   10  C   UNL     1      67.617   5.218   6.044  1.00  0.00     0.020 C 
HETATM   11  C   UNL     1      67.914   5.975   7.343  1.00  0.00     0.003 C 
HETATM   12  C   UNL     1      66.794   6.953   7.711  1.00  0.00     0.020 C 
HETATM   13  C   UNL     1      66.426   7.847   6.526  1.00  0.00     0.124 C 
ENDBRANCH   1   8
BRANCH   5  14
HETATM   14  C   UNL     1      62.456  10.062   4.281  1.00  0.00     0.270 C 
BRANCH  14  15
HETATM   15  N   UNL     1      61.455  10.307   3.242  1.00  0.00    -0.075 N 
HETATM   16  C   UNL     1      61.789  11.483   2.453  1.00  0.00     0.267 C 
HETATM   17  H   UNL     1      60.546  10.451   3.683  1.00  0.00     0.277 HD
HETATM   18  H   UNL     1      61.430   9.499   2.621  1.00  0.00     0.277 HD
ENDBRANCH  14  15
ENDBRANCH   5  14
TORSDOF 3
ENDMDL
MODEL 3
REMARK VINA RESULT:      -4.9      1.780      6.183
REMARK  3 active torsions:
REMARK  status: ('A' for Active; 'I' for Inactive)
REMARK    1  A    between atoms: C_1  and  N_2 
REMARK    2  A    between atoms: C_6  and  C_11 
REMARK    3  A    between atoms: N_8  and  C_11 
ROOT
HETATM    1  C   UNL     1      64.155   7.767   3.833  1.00  0.00     0.103 A 
HETATM    2  N   UNL     1      64.532   6.620   3.232  1.00  0.00    -0.352 N 
ATOM      3  HN  UNL     1      64.044   6.274   2.406  1.00  0.00     0.166 HD
HETATM    4  C   UNL     1      64.829   8.241   4.960  1.00  0.00     0.057 A 
HETATM    5  C   UNL     1      65.927   7.551   5.478  1.00  0.00    -0.028 A 
HETATM    6  C   UNL     1      65.578   5.942   3.758  1.00  0.00     0.090 A 
HETATM    7  C   UNL     1      66.298   6.357   4.862  1.00  0.00     0.026 A 
ENDROOT
BRANCH   1   8
HETATM    8  N   UNL     1      63.170   8.553   3.262  1.00  0.00    -0.367 N 
HETATM    9  C   UNL     1      62.533   8.081   2.040  1.00  0.00     0.124 C 
HETATM   10  C   UNL     1      62.232   9.317   1.187  1.00  0.00     0.020 C 
HETATM   11  C   UNL     1      61.426  10.364   1.963  1.00  0.00     0.003 C 
HETATM   12  C   UNL     1      62.043  10.675   3.330  1.00  0.00     0.020 C 
HETATM   13  C   UNL     1      62.336   9.393   4.111  1.00  0.00     0.124 C 
ENDBRANCH   1   8
BRANCH   5  14
HETATM   14  C   UNL     1      66.701   8.111   6.648  1.00  0.00     0.270 C 
BRANCH  14  15
HETATM   15  N   UNL     1      67.420   7.056   7.363  1.00  0.00    -0.075 N 
HETATM   16  C   UNL     1      66.724   6.677   8.584  1.00  0.00     0.267 C 
HETATM   17  H   UNL     1      68.353   7.393   7.603  1.00  0.00     0.277 HD
HETATM   18  H   UNL     1      67.477   6.237   6.758  1.00  0.00     0.277 HD
ENDBRANCH  14  15
ENDBRANCH   5  14
TORSDOF 3
ENDMDL
MODEL 4
REMARK VINA RESULT:      -4.7      1.955      5.694
REMARK  3 active torsions:
REMARK  status: ('A' for Active; 'I' for Inactive)
REMARK    1  A    between atoms: C_1  and  N_2 
REMARK    2  A    between atoms: C_6  and  C_11 
REMARK    3  A    between atoms: N_8  and  C_11 
ROOT
HETATM    1  C   UNL     1      65.039   8.174   4.949  1.00  0.00     0.103 A 
HETATM    2  N   UNL     1      65.573   8.644   6.095  1.00  0.00    -0.352 N 
ATOM      3  HN  UNL     1      65.174   9.455   6.568  1.00  0.00     0.166 HD
HETATM    4  C   UNL     1      65.584   7.060   4.307  1.00  0.00     0.057 A 
HETATM    5  C   UNL     1      66.681   6.389   4.851  1.00  0.00    -0.028 A 
HETATM    6  C   UNL     1      66.655   8.007   6.598  1.00  0.00     0.090 A 
HETATM    7  C   UNL     1      67.239   6.893   6.026  1.00  0.00     0.026 A 
ENDROOT
BRANCH   1   8
HETATM    8  N   UNL     1      63.864   8.720   4.462  1.00  0.00    -0.367 N 
HETATM    9  C   UNL     1      63.131   7.982   3.442  1.00  0.00     0.124 C 
HETATM   10  C   UNL     1      62.508   9.020   2.503  1.00  0.00     0.020 C 
HETATM   11  C   UNL     1      61.673  10.053   3.266  1.00  0.00     0.003 C 
HETATM   12  C   UNL     1      62.435  10.653   4.452  1.00  0.00     0.020 C 
HETATM   13  C   UNL     1      63.047   9.558   5.328  1.00  0.00     0.124 C 
ENDBRANCH   1   8
BRANCH   5  14
HETATM   14  C   UNL     1      67.216   5.138   4.195  1.00  0.00     0.270 C 
BRANCH  14  15
HETATM   15  N   UNL     1      67.463   4.085   5.181  1.00  0.00    -0.075 N 
HETATM   16  C   UNL     1      66.345   3.157   5.254  1.00  0.00     0.267 C 
HETATM   17  H   UNL     1      67.601   4.513   6.097  1.00  0.00     0.277 HD
HETATM   18  H   UNL     1      68.294   3.566   4.896  1.00  0.00     0.277 HD
ENDBRANCH  14  15
ENDBRANCH   5  14
TORSDOF 3
ENDMDL
MODEL 5
REMARK VINA RESULT:      -4.7      1.363      5.974
REMARK  3 active torsions:
REMARK  status: ('A' for Active; 'I' for Inactive)
REMARK    1  A    between atoms: C_1  and  N_2 
REMARK    2  A    between atoms: C_6  and  C_11 
REMARK    3  A    between atoms: N_8  and  C_11 
ROOT
HETATM    1  C   UNL     1      61.902   8.843   3.176  1.00  0.00     0.103 A 
HETATM    2  N   UNL     1      61.496  10.082   3.525  1.00  0.00    -0.352 N 
ATOM      3  HN  UNL     1      60.675  10.506   3.094  1.00  0.00     0.166 HD
HETATM    4  C   UNL     1      63.023   8.263   3.772  1.00  0.00     0.057 A 
HETATM    5  C   UNL     1      63.737   8.941   4.763  1.00  0.00    -0.028 A 
HETATM    6  C   UNL     1      62.211  10.743   4.463  1.00  0.00     0.090 A 
HETATM    7  C   UNL     1      63.321  10.227   5.103  1.00  0.00     0.026 A 
ENDROOT
BRANCH   1   8
HETATM    8  N   UNL     1      61.135   8.085   2.310  1.00  0.00    -0.367 N 
HETATM    9  C   UNL     1      60.981   8.549   0.938  1.00  0.00     0.124 C 
HETATM   10  C   UNL     1      59.563   8.173   0.497  1.00  0.00     0.020 C 
HETATM   11  C   UNL     1      59.277   6.681   0.702  1.00  0.00     0.003 C 
HETATM   12  C   UNL     1      59.646   6.209   2.112  1.00  0.00     0.020 C 
HETATM   13  C   UNL     1      61.064   6.641   2.488  1.00  0.00     0.124 C 
ENDBRANCH   1   8
BRANCH   5  14
HETATM   14  C   UNL     1      64.900   8.275   5.459  1.00  0.00     0.270 C 
BRANCH  14  15
HETATM   15  N   UNL     1      64.446   7.434   6.567  1.00  0.00    -0.075 N 
HETATM   16  C   UNL     1      65.557   6.723   7.181  1.00  0.00     0.267 C 
HETATM   17  H   UNL     1      63.771   6.754   6.214  1.00  0.00     0.277 HD
HETATM   18  H   UNL     1      64.018   8.033   7.273  1.00  0.00     0.277 HD
ENDBRANCH  14  15
ENDBRANCH   5  14
TORSDOF 3
ENDMDL
MODEL 6
REMARK VINA RESULT:      -4.5      3.234      7.342
REMARK  3 active torsions:
REMARK  status: ('A' for Active; 'I' for Inactive)
REMARK    1  A    between atoms: C_1  and  N_2 
REMARK    2  A    between atoms: C_6  and  C_11 
REMARK    3  A    between atoms: N_8  and  C_11 
ROOT
HETATM    1  C   UNL     1      66.243   6.289   7.269  1.00  0.00     0.103 A 
HETATM    2  N   UNL     1      66.946   7.062   8.124  1.00  0.00    -0.352 N 
ATOM      3  HN  UNL     1      66.832   8.076   8.129  1.00  0.00     0.166 HD
HETATM    4  C   UNL     1      66.396   4.902   7.267  1.00  0.00     0.057 A 
HETATM    5  C   UNL     1      67.261   4.277   8.168  1.00  0.00    -0.028 A 
HETATM    6  C   UNL     1      67.805   6.452   8.971  1.00  0.00     0.090 A 
HETATM    7  C   UNL     1      67.997   5.085   9.034  1.00  0.00     0.026 A 
ENDROOT
BRANCH   1   8
HETATM    8  N   UNL     1      65.269   6.857   6.468  1.00  0.00    -0.367 N 
HETATM    9  C   UNL     1      65.693   7.643   5.317  1.00  0.00     0.124 C 
HETATM   10  C   UNL     1      64.686   8.787   5.163  1.00  0.00     0.020 C 
HETATM   11  C   UNL     1      63.244   8.273   5.088  1.00  0.00     0.003 C 
HETATM   12  C   UNL     1      62.918   7.294   6.220  1.00  0.00     0.020 C 
HETATM   13  C   UNL     1      63.978   6.197   6.327  1.00  0.00     0.124 C 
ENDBRANCH   1   8
BRANCH   5  14
HETATM   14  C   UNL     1      67.362   2.771   8.215  1.00  0.00     0.270 C 
BRANCH  14  15
HETATM   15  N   UNL     1      67.499   2.290   9.590  1.00  0.00    -0.075 N 
HETATM   16  C   UNL     1      67.704   0.849   9.627  1.00  0.00     0.267 C 
HETATM   17  H   UNL     1      66.651   2.519  10.109  1.00  0.00     0.277 HD
HETATM   18  H   UNL     1      68.312   2.741  10.010  1.00  0.00     0.277 HD
ENDBRANCH  14  15
ENDBRANCH   5  14
TORSDOF 3
ENDMDL
MODEL 7
REMARK VINA RESULT:      -4.4      1.512      2.133
REMARK  3 active torsions:
REMARK  status: ('A' for Active; 'I' for Inactive)
REMARK    1  A    between atoms: C_1  and  N_2 
REMARK    2  A    between atoms: C_6  and  C_11 
REMARK    3  A    between atoms: N_8  and  C_11 
ROOT
HETATM    1  C   UNL     1      65.103   7.483   5.342  1.00  0.00     0.103 A 
HETATM    2  N   UNL     1      64.678   8.692   5.764  1.00  0.00    -0.352 N 
ATOM      3  HN  UNL     1      65.063   9.120   6.606  1.00  0.00     0.166 HD
HETATM    4  C   UNL     1      64.579   6.903   4.185  1.00  0.00     0.057 A 
HETATM    5  C   UNL     1      63.620   7.573   3.422  1.00  0.00    -0.028 A 
HETATM    6  C   UNL     1      63.727   9.320   5.036  1.00  0.00     0.090 A 
HETATM    7  C   UNL     1      63.174   8.814   3.876  1.00  0.00     0.026 A 
ENDROOT
BRANCH   1   8
HETATM    8  N   UNL     1      66.156   6.859   5.986  1.00  0.00    -0.367 N 
HETATM    9  C   UNL     1      67.143   6.157   5.176  1.00  0.00     0.124 C 
HETATM   10  C   UNL     1      67.591   4.933   5.981  1.00  0.00     0.020 C 
HETATM   11  C   UNL     1      68.074   5.317   7.384  1.00  0.00     0.003 C 
HETATM   12  C   UNL     1      67.075   6.221   8.114  1.00  0.00     0.020 C 
HETATM   13  C   UNL     1      66.658   7.405   7.240  1.00  0.00     0.124 C 
ENDBRANCH   1   8
BRANCH   5  14
HETATM   14  C   UNL     1      63.116   6.976   2.130  1.00  0.00     0.270 C 
BRANCH  14  15
HETATM   15  N   UNL     1      62.389   7.966   1.334  1.00  0.00    -0.075 N 
HETATM   16  C   UNL     1      61.348   7.340   0.533  1.00  0.00     0.267 C 
HETATM   17  H   UNL     1      63.045   8.441   0.713  1.00  0.00     0.277 HD
HETATM   18  H   UNL     1      61.949   8.631   1.970  1.00  0.00     0.277 HD
ENDBRANCH  14  15
ENDBRANCH   5  14
TORSDOF 3
ENDMDL
MODEL 8
REMARK VINA RESULT:      -4.3      4.135      6.494
REMARK  3 active torsions:
REMARK  status: ('A' for Active; 'I' for Inactive)
REMARK    1  A    between atoms: C_1  and  N_2 
REMARK    2  A    between atoms: C_6  and  C_11 
REMARK    3  A    between atoms: N_8  and  C_11 
ROOT
HETATM    1  C   UNL     1      59.596   7.532   3.799  1.00  0.00     0.103 A 
HETATM    2  N   UNL     1      58.311   7.930   3.688  1.00  0.00    -0.352 N 
ATOM      3  HN  UNL     1      58.028   8.597   2.970  1.00  0.00     0.166 HD
HETATM    4  C   UNL     1      59.979   6.615   4.779  1.00  0.00     0.057 A 
HETATM    5  C   UNL     1      59.037   6.067   5.652  1.00  0.00    -0.028 A 
HETATM    6  C   UNL     1      57.411   7.418   4.557  1.00  0.00     0.090 A 
HETATM    7  C   UNL     1      57.716   6.498   5.542  1.00  0.00     0.026 A 
ENDROOT
BRANCH   1   8
HETATM    8  N   UNL     1      60.526   7.938   2.860  1.00  0.00    -0.367 N 
HETATM    9  C   UNL     1      61.634   8.775   3.301  1.00  0.00     0.124 C 
HETATM   10  C   UNL     1      61.941   9.747   2.158  1.00  0.00     0.020 C 
HETATM   11  C   UNL     1      62.185   9.014   0.834  1.00  0.00     0.003 C 
HETATM   12  C   UNL     1      61.080   8.001   0.521  1.00  0.00     0.020 C 
HETATM   13  C   UNL     1      60.814   7.083   1.716  1.00  0.00     0.124 C 
ENDBRANCH   1   8
BRANCH   5  14
HETATM   14  C   UNL     1      59.445   5.016   6.657  1.00  0.00     0.270 C 
BRANCH  14  15
HETATM   15  N   UNL     1      59.601   5.590   7.994  1.00  0.00    -0.075 N 
HETATM   16  C   UNL     1      58.881   4.812   8.991  1.00  0.00     0.267 C 
HETATM   17  H   UNL     1      59.238   6.544   7.991  1.00  0.00     0.277 HD
HETATM   18  H   UNL     1      60.592   5.583   8.234  1.00  0.00     0.277 HD
ENDBRANCH  14  15
ENDBRANCH   5  14
TORSDOF 3
ENDMDL
MODEL 9
REMARK VINA RESULT:      -4.2      1.700      5.955
REMARK  3 active torsions:
REMARK  status: ('A' for Active; 'I' for Inactive)
REMARK    1  A    between atoms: C_1  and  N_2 
REMARK    2  A    between atoms: C_6  and  C_11 
REMARK    3  A    between atoms: N_8  and  C_11 
ROOT
HETATM    1  C   UNL     1      62.723   7.740   4.447  1.00  0.00     0.103 A 
HETATM    2  N   UNL     1      62.212   6.834   5.307  1.00  0.00    -0.352 N 
ATOM      3  HN  UNL     1      61.264   6.477   5.192  1.00  0.00     0.166 HD
HETATM    4  C   UNL     1      64.023   8.222   4.602  1.00  0.00     0.057 A 
HETATM    5  C   UNL     1      64.837   7.760   5.639  1.00  0.00    -0.028 A 
HETATM    6  C   UNL     1      62.996   6.414   6.326  1.00  0.00     0.090 A 
HETATM    7  C   UNL     1      64.295   6.838   6.534  1.00  0.00     0.026 A 
ENDROOT
BRANCH   1   8
HETATM    8  N   UNL     1      62.001   8.107   3.325  1.00  0.00    -0.367 N 
HETATM    9  C   UNL     1      60.593   7.741   3.259  1.00  0.00     0.124 C 
HETATM   10  C   UNL     1      60.282   7.427   1.793  1.00  0.00     0.020 C 
HETATM   11  C   UNL     1      60.685   8.578   0.864  1.00  0.00     0.003 C 
HETATM   12  C   UNL     1      62.120   9.050   1.117  1.00  0.00     0.020 C 
HETATM   13  C   UNL     1      62.361   9.320   2.603  1.00  0.00     0.124 C 
ENDBRANCH   1   8
BRANCH   5  14
HETATM   14  C   UNL     1      66.269   8.226   5.754  1.00  0.00     0.270 C 
BRANCH  14  15
HETATM   15  N   UNL     1      66.980   7.502   6.808  1.00  0.00    -0.075 N 
HETATM   16  C   UNL     1      67.844   6.471   6.251  1.00  0.00     0.267 C 
HETATM   17  H   UNL     1      66.299   7.064   7.430  1.00  0.00     0.277 HD
HETATM   18  H   UNL     1      67.561   8.166   7.320  1.00  0.00     0.277 HD
ENDBRANCH  14  15
ENDBRANCH   5  14
TORSDOF 3
ENDMDL
