MODEL 1
REMARK VINA RESULT:      -5.0      0.000      0.000
REMARK  3 active torsions:
REMARK  status: ('A' for Active; 'I' for Inactive)
REMARK    1  A    between atoms: C_1  and  N_2 
REMARK    2  A    between atoms: C_7  and  C_14 
REMARK    3  A    between atoms: N_9  and  C_14 
ROOT
HETATM    1  C   UNL     1      63.972   8.876   5.083  1.00  0.00     0.103 A 
HETATM    2  N   UNL     1      63.699  10.006   5.770  1.00  0.00    -0.352 N 
ATOM      3  HN  UNL     1      64.161  10.199   6.658  1.00  0.00     0.166 HD
HETATM    4  C   UNL     1      63.336   8.625   3.864  1.00  0.00     0.057 A 
HETATM    5  C   UNL     1      62.414   9.535   3.332  1.00  0.00    -0.028 A 
HETATM    6  C   UNL     1      62.801  10.876   5.258  1.00  0.00     0.090 A 
HETATM    7  C   UNL     1      62.144  10.691   4.058  1.00  0.00     0.026 A 
ENDROOT
BRANCH   1   8
HETATM    8  N   UNL     1      64.960   8.022   5.542  1.00  0.00    -0.366 N 
HETATM    9  C   UNL     1      64.556   6.874   6.361  1.00  0.00     0.134 C 
HETATM   10  C   UNL     1      65.578   6.674   7.487  1.00  0.00     0.093 C 
HETATM   11  S   UNL     1      67.265   6.330   6.860  1.00  0.00    -0.166 SA
HETATM   12  C   UNL     1      67.392   7.728   5.685  1.00  0.00     0.093 C 
HETATM   13  C   UNL     1      66.180   7.821   4.752  1.00  0.00     0.134 C 
ENDBRANCH   1   8
BRANCH   5  14
HETATM   14  C   UNL     1      61.754   9.259   2.009  1.00  0.00     0.268 C 
BRANCH  14  15
HETATM   15  N   UNL     1      60.437   8.656   2.182  1.00  0.00    -0.075 N 
HETATM   16  H   UNL     1      60.432   7.726   1.764  1.00  0.00     0.274 HD
HETATM   17  H   UNL     1      59.735   9.238   1.726  1.00  0.00     0.274 HD
HETATM   18  H   UNL     1      60.224   8.584   3.178  1.00  0.00     0.274 HD
ENDBRANCH  14  15
ENDBRANCH   5  14
TORSDOF 3
ENDMDL
MODEL 2
REMARK VINA RESULT:      -4.9      1.707      2.863
REMARK  3 active torsions:
REMARK  status: ('A' for Active; 'I' for Inactive)
REMARK    1  A    between atoms: C_1  and  N_2 
REMARK    2  A    between atoms: C_7  and  C_14 
REMARK    3  A    between atoms: N_9  and  C_14 
ROOT
HETATM    1  C   UNL     1      64.968   7.697   4.779  1.00  0.00     0.103 A 
HETATM    2  N   UNL     1      64.467   7.030   3.719  1.00  0.00    -0.352 N 
ATOM      3  HN  UNL     1      64.882   6.149   3.415  1.00  0.00     0.166 HD
HETATM    4  C   UNL     1      64.389   8.901   5.189  1.00  0.00     0.057 A 
HETATM    5  C   UNL     1      63.282   9.433   4.516  1.00  0.00    -0.028 A 
HETATM    6  C   UNL     1      63.406   7.552   3.067  1.00  0.00     0.090 A 
HETATM    7  C   UNL     1      62.783   8.732   3.422  1.00  0.00     0.026 A 
ENDROOT
BRANCH   1   8
HETATM    8  N   UNL     1      65.991   7.129   5.520  1.00  0.00    -0.366 N 
HETATM    9  C   UNL     1      66.942   6.254   4.827  1.00  0.00     0.134 C 
HETATM   10  C   UNL     1      67.285   5.065   5.734  1.00  0.00     0.093 C 
HETATM   11  S   UNL     1      68.067   5.579   7.310  1.00  0.00    -0.166 SA
HETATM   12  C   UNL     1      66.837   6.842   7.806  1.00  0.00     0.093 C 
HETATM   13  C   UNL     1      66.537   7.840   6.682  1.00  0.00     0.134 C 
ENDBRANCH   1   8
BRANCH   5  14
HETATM   14  C   UNL     1      62.658  10.720   4.982  1.00  0.00     0.268 C 
BRANCH  14  15
HETATM   15  N   UNL     1      63.428  11.330   6.060  1.00  0.00    -0.075 N 
HETATM   16  H   UNL     1      63.608  10.636   6.784  1.00  0.00     0.274 HD
HETATM   17  H   UNL     1      62.898  12.106   6.458  1.00  0.00     0.274 HD
HETATM   18  H   UNL     1      64.314  11.677   5.691  1.00  0.00     0.274 HD
ENDBRANCH  14  15
ENDBRANCH   5  14
TORSDOF 3
ENDMDL
MODEL 3
REMARK VINA RESULT:      -4.6      1.427      2.537
REMARK  3 active torsions:
REMARK  status: ('A' for Active; 'I' for Inactive)
REMARK    1  A    between atoms: C_1  and  N_2 
REMARK    2  A    between atoms: C_7  and  C_14 
REMARK    3  A    between atoms: N_9  and  C_14 
ROOT
HETATM    1  C   UNL     1      64.390   7.742   4.564  1.00  0.00     0.103 A 
HETATM    2  N   UNL     1      64.112   6.972   3.491  1.00  0.00    -0.352 N 
ATOM      3  HN  UNL     1      64.588   6.082   3.352  1.00  0.00     0.166 HD
HETATM    4  C   UNL     1      63.726   8.958   4.747  1.00  0.00     0.057 A 
HETATM    5  C   UNL     1      62.763   9.397   3.830  1.00  0.00    -0.028 A 
HETATM    6  C   UNL     1      63.189   7.405   2.604  1.00  0.00     0.090 A 
HETATM    7  C   UNL     1      62.494   8.591   2.728  1.00  0.00     0.026 A 
ENDROOT
BRANCH   1   8
HETATM    8  N   UNL     1      65.258   7.270   5.534  1.00  0.00    -0.366 N 
HETATM    9  C   UNL     1      66.559   7.934   5.680  1.00  0.00     0.134 C 
HETATM   10  C   UNL     1      67.636   6.876   5.950  1.00  0.00     0.093 C 
HETATM   11  S   UNL     1      67.330   5.932   7.491  1.00  0.00    -0.166 SA
HETATM   12  C   UNL     1      65.589   5.467   7.166  1.00  0.00     0.093 C 
HETATM   13  C   UNL     1      64.728   6.670   6.763  1.00  0.00     0.134 C 
ENDBRANCH   1   8
BRANCH   5  14
HETATM   14  C   UNL     1      62.043  10.699   4.052  1.00  0.00     0.268 C 
BRANCH  14  15
HETATM   15  N   UNL     1      61.664  11.325   2.790  1.00  0.00    -0.075 N 
HETATM   16  H   UNL     1      61.157  10.652   2.216  1.00  0.00     0.274 HD
HETATM   17  H   UNL     1      62.503  11.629   2.296  1.00  0.00     0.274 HD
HETATM   18  H   UNL     1      61.068  12.132   2.976  1.00  0.00     0.274 HD
ENDBRANCH  14  15
ENDBRANCH   5  14
TORSDOF 3
ENDMDL
MODEL 4
REMARK VINA RESULT:      -4.4      1.671      2.494
REMARK  3 active torsions:
REMARK  status: ('A' for Active; 'I' for Inactive)
REMARK    1  A    between atoms: C_1  and  N_2 
REMARK    2  A    between atoms: C_7  and  C_14 
REMARK    3  A    between atoms: N_9  and  C_14 
ROOT
HETATM    1  C   UNL     1      62.961   7.707   4.457  1.00  0.00     0.103 A 
HETATM    2  N   UNL     1      61.828   7.006   4.674  1.00  0.00    -0.352 N 
ATOM      3  HN  UNL     1      61.793   6.282   5.391  1.00  0.00     0.166 HD
HETATM    4  C   UNL     1      62.995   8.701   3.475  1.00  0.00     0.057 A 
HETATM    5  C   UNL     1      61.862   8.991   2.705  1.00  0.00    -0.028 A 
HETATM    6  C   UNL     1      60.741   7.283   3.921  1.00  0.00     0.090 A 
HETATM    7  C   UNL     1      60.705   8.254   2.941  1.00  0.00     0.026 A 
ENDROOT
BRANCH   1   8
HETATM    8  N   UNL     1      64.054   7.507   5.284  1.00  0.00    -0.366 N 
HETATM    9  C   UNL     1      65.105   8.531   5.300  1.00  0.00     0.134 C 
HETATM   10  C   UNL     1      66.474   7.844   5.377  1.00  0.00     0.093 C 
HETATM   11  S   UNL     1      66.675   6.833   6.892  1.00  0.00    -0.166 SA
HETATM   12  C   UNL     1      65.124   5.868   6.764  1.00  0.00     0.093 C 
HETATM   13  C   UNL     1      63.898   6.760   6.537  1.00  0.00     0.134 C 
ENDBRANCH   1   8
BRANCH   5  14
HETATM   14  C   UNL     1      61.910  10.077   1.666  1.00  0.00     0.268 C 
BRANCH  14  15
HETATM   15  N   UNL     1      61.505  11.366   2.217  1.00  0.00    -0.075 N 
HETATM   16  H   UNL     1      60.921  11.856   1.541  1.00  0.00     0.274 HD
HETATM   17  H   UNL     1      62.334  11.924   2.419  1.00  0.00     0.274 HD
HETATM   18  H   UNL     1      60.979  11.217   3.079  1.00  0.00     0.274 HD
ENDBRANCH  14  15
ENDBRANCH   5  14
TORSDOF 3
ENDMDL
MODEL 5
REMARK VINA RESULT:      -4.1      3.064      6.383
REMARK  3 active torsions:
REMARK  status: ('A' for Active; 'I' for Inactive)
REMARK    1  A    between atoms: C_1  and  N_2 
REMARK    2  A    between atoms: C_7  and  C_14 
REMARK    3  A    between atoms: N_9  and  C_14 
ROOT
HETATM    1  C   UNL     1      65.868   6.458   7.230  1.00  0.00     0.103 A 
HETATM    2  N   UNL     1      66.441   7.267   8.146  1.00  0.00    -0.352 N 
ATOM      3  HN  UNL     1      66.211   8.260   8.179  1.00  0.00     0.166 HD
HETATM    4  C   UNL     1      66.187   5.097   7.198  1.00  0.00     0.057 A 
HETATM    5  C   UNL     1      67.097   4.550   8.111  1.00  0.00    -0.028 A 
HETATM    6  C   UNL     1      67.325   6.736   9.017  1.00  0.00     0.090 A 
HETATM    7  C   UNL     1      67.679   5.402   9.044  1.00  0.00     0.026 A 
ENDROOT
BRANCH   1   8
HETATM    8  N   UNL     1      64.886   6.963   6.394  1.00  0.00    -0.366 N 
HETATM    9  C   UNL     1      65.306   7.778   5.249  1.00  0.00     0.134 C 
HETATM   10  C   UNL     1      64.325   8.945   5.075  1.00  0.00     0.093 C 
HETATM   11  S   UNL     1      62.611   8.384   4.746  1.00  0.00    -0.166 SA
HETATM   12  C   UNL     1      62.458   7.199   6.133  1.00  0.00     0.093 C 
HETATM   13  C   UNL     1      63.636   6.221   6.200  1.00  0.00     0.134 C 
ENDBRANCH   1   8
BRANCH   5  14
HETATM   14  C   UNL     1      67.414   3.080   8.075  1.00  0.00     0.268 C 
BRANCH  14  15
HETATM   15  N   UNL     1      66.201   2.269   8.075  1.00  0.00    -0.075 N 
HETATM   16  H   UNL     1      65.430   2.811   8.463  1.00  0.00     0.274 HD
HETATM   17  H   UNL     1      66.351   1.434   8.642  1.00  0.00     0.274 HD
HETATM   18  H   UNL     1      65.977   1.993   7.118  1.00  0.00     0.274 HD
ENDBRANCH  14  15
ENDBRANCH   5  14
TORSDOF 3
ENDMDL
MODEL 6
REMARK VINA RESULT:      -4.0      1.828      2.425
REMARK  3 active torsions:
REMARK  status: ('A' for Active; 'I' for Inactive)
REMARK    1  A    between atoms: C_1  and  N_2 
REMARK    2  A    between atoms: C_7  and  C_14 
REMARK    3  A    between atoms: N_9  and  C_14 
ROOT
HETATM    1  C   UNL     1      62.928   7.950   5.244  1.00  0.00     0.103 A 
HETATM    2  N   UNL     1      63.193   9.133   5.837  1.00  0.00    -0.352 N 
ATOM      3  HN  UNL     1      63.641   9.167   6.752  1.00  0.00     0.166 HD
HETATM    4  C   UNL     1      62.317   7.916   3.987  1.00  0.00     0.057 A 
HETATM    5  C   UNL     1      61.975   9.099   3.321  1.00  0.00    -0.028 A 
HETATM    6  C   UNL     1      62.852  10.271   5.195  1.00  0.00     0.090 A 
HETATM    7  C   UNL     1      62.253  10.308   3.951  1.00  0.00     0.026 A 
ENDROOT
BRANCH   1   8
HETATM    8  N   UNL     1      63.359   6.777   5.840  1.00  0.00    -0.366 N 
HETATM    9  C   UNL     1      64.544   6.836   6.704  1.00  0.00     0.134 C 
HETATM   10  C   UNL     1      65.399   5.584   6.470  1.00  0.00     0.093 C 
HETATM   11  S   UNL     1      64.508   4.033   6.872  1.00  0.00    -0.166 SA
HETATM   12  C   UNL     1      62.988   4.352   5.902  1.00  0.00     0.093 C 
HETATM   13  C   UNL     1      62.389   5.733   6.190  1.00  0.00     0.134 C 
ENDBRANCH   1   8
BRANCH   5  14
HETATM   14  C   UNL     1      61.337   9.046   1.960  1.00  0.00     0.268 C 
BRANCH  14  15
HETATM   15  N   UNL     1      62.316   9.257   0.899  1.00  0.00    -0.075 N 
HETATM   16  H   UNL     1      62.302  10.236   0.614  1.00  0.00     0.274 HD
HETATM   17  H   UNL     1      62.083   8.667   0.100  1.00  0.00     0.274 HD
HETATM   18  H   UNL     1      63.246   9.015   1.242  1.00  0.00     0.274 HD
ENDBRANCH  14  15
ENDBRANCH   5  14
TORSDOF 3
ENDMDL
MODEL 7
REMARK VINA RESULT:      -4.0      2.725      5.652
REMARK  3 active torsions:
REMARK  status: ('A' for Active; 'I' for Inactive)
REMARK    1  A    between atoms: C_1  and  N_2 
REMARK    2  A    between atoms: C_7  and  C_14 
REMARK    3  A    between atoms: N_9  and  C_14 
ROOT
HETATM    1  C   UNL     1      64.876   7.384   5.562  1.00  0.00     0.103 A 
HETATM    2  N   UNL     1      65.989   7.822   4.935  1.00  0.00    -0.352 N 
ATOM      3  HN  UNL     1      65.926   8.288   4.030  1.00  0.00     0.166 HD
HETATM    4  C   UNL     1      64.974   6.751   6.804  1.00  0.00     0.057 A 
HETATM    5  C   UNL     1      66.217   6.563   7.420  1.00  0.00    -0.028 A 
HETATM    6  C   UNL     1      67.186   7.629   5.528  1.00  0.00     0.090 A 
HETATM    7  C   UNL     1      67.352   7.017   6.755  1.00  0.00     0.026 A 
ENDROOT
BRANCH   1   8
HETATM    8  N   UNL     1      63.634   7.661   5.017  1.00  0.00    -0.366 N 
HETATM    9  C   UNL     1      62.442   7.286   5.787  1.00  0.00     0.134 C 
HETATM   10  C   UNL     1      61.375   6.742   4.830  1.00  0.00     0.093 C 
HETATM   11  S   UNL     1      60.850   7.974   3.579  1.00  0.00    -0.166 SA
HETATM   12  C   UNL     1      62.513   8.462   2.986  1.00  0.00     0.093 C 
HETATM   13  C   UNL     1      63.462   8.821   4.135  1.00  0.00     0.134 C 
ENDBRANCH   1   8
BRANCH   5  14
HETATM   14  C   UNL     1      66.303   5.898   8.766  1.00  0.00     0.268 C 
BRANCH  14  15
HETATM   15  N   UNL     1      66.495   4.457   8.642  1.00  0.00    -0.075 N 
HETATM   16  H   UNL     1      66.551   4.040   9.570  1.00  0.00     0.274 HD
HETATM   17  H   UNL     1      67.360   4.273   8.133  1.00  0.00     0.274 HD
HETATM   18  H   UNL     1      65.709   4.052   8.133  1.00  0.00     0.274 HD
ENDBRANCH  14  15
ENDBRANCH   5  14
TORSDOF 3
ENDMDL
MODEL 8
REMARK VINA RESULT:      -3.9      2.743      5.364
REMARK  3 active torsions:
REMARK  status: ('A' for Active; 'I' for Inactive)
REMARK    1  A    between atoms: C_1  and  N_2 
REMARK    2  A    between atoms: C_7  and  C_14 
REMARK    3  A    between atoms: N_9  and  C_14 
ROOT
HETATM    1  C   UNL     1      65.132   7.848   5.120  1.00  0.00     0.103 A 
HETATM    2  N   UNL     1      65.670   8.500   6.172  1.00  0.00    -0.352 N 
ATOM      3  HN  UNL     1      65.269   9.378   6.501  1.00  0.00     0.166 HD
HETATM    4  C   UNL     1      65.688   6.644   4.681  1.00  0.00     0.057 A 
HETATM    5  C   UNL     1      66.803   6.090   5.322  1.00  0.00    -0.028 A 
HETATM    6  C   UNL     1      66.752   7.967   6.780  1.00  0.00     0.090 A 
HETATM    7  C   UNL     1      67.346   6.780   6.402  1.00  0.00     0.026 A 
ENDROOT
BRANCH   1   8
HETATM    8  N   UNL     1      63.965   8.327   4.547  1.00  0.00    -0.366 N 
HETATM    9  C   UNL     1      63.315   7.508   3.519  1.00  0.00     0.134 C 
HETATM   10  C   UNL     1      62.779   8.424   2.411  1.00  0.00     0.093 C 
HETATM   11  S   UNL     1      61.534   9.622   3.023  1.00  0.00    -0.166 SA
HETATM   12  C   UNL     1      62.489  10.284   4.438  1.00  0.00     0.093 C 
HETATM   13  C   UNL     1      63.059   9.175   5.329  1.00  0.00     0.134 C 
ENDBRANCH   1   8
BRANCH   5  14
HETATM   14  C   UNL     1      67.377   4.782   4.850  1.00  0.00     0.268 C 
BRANCH  14  15
HETATM   15  N   UNL     1      66.328   3.816   4.542  1.00  0.00    -0.075 N 
HETATM   16  H   UNL     1      66.735   3.015   4.059  1.00  0.00     0.274 HD
HETATM   17  H   UNL     1      65.628   4.254   3.944  1.00  0.00     0.274 HD
HETATM   18  H   UNL     1      65.888   3.504   5.408  1.00  0.00     0.274 HD
ENDBRANCH  14  15
ENDBRANCH   5  14
TORSDOF 3
ENDMDL
MODEL 9
REMARK VINA RESULT:      -3.9      3.698      5.937
REMARK  3 active torsions:
REMARK  status: ('A' for Active; 'I' for Inactive)
REMARK    1  A    between atoms: C_1  and  N_2 
REMARK    2  A    between atoms: C_7  and  C_14 
REMARK    3  A    between atoms: N_9  and  C_14 
ROOT
HETATM    1  C   UNL     1      61.740   7.692   3.261  1.00  0.00     0.103 A 
HETATM    2  N   UNL     1      62.902   7.023   3.419  1.00  0.00    -0.352 N 
ATOM      3  HN  UNL     1      63.007   6.073   3.063  1.00  0.00     0.166 HD
HETATM    4  C   UNL     1      61.609   8.995   3.750  1.00  0.00     0.057 A 
HETATM    5  C   UNL     1      62.673   9.630   4.402  1.00  0.00    -0.028 A 
HETATM    6  C   UNL     1      63.921   7.636   4.058  1.00  0.00     0.090 A 
HETATM    7  C   UNL     1      63.860   8.921   4.558  1.00  0.00     0.026 A 
ENDROOT
BRANCH   1   8
HETATM    8  N   UNL     1      60.718   7.119   2.523  1.00  0.00    -0.366 N 
HETATM    9  C   UNL     1      60.962   5.809   1.908  1.00  0.00     0.134 C 
HETATM   10  C   UNL     1      60.323   5.782   0.513  1.00  0.00     0.093 C 
HETATM   11  S   UNL     1      58.508   6.034   0.561  1.00  0.00    -0.166 SA
HETATM   12  C   UNL     1      58.486   7.543   1.598  1.00  0.00     0.093 C 
HETATM   13  C   UNL     1      59.320   7.388   2.874  1.00  0.00     0.134 C 
ENDBRANCH   1   8
BRANCH   5  14
HETATM   14  C   UNL     1      62.521  11.040   4.904  1.00  0.00     0.268 C 
BRANCH  14  15
HETATM   15  N   UNL     1      63.365  11.289   6.068  1.00  0.00    -0.075 N 
HETATM   16  H   UNL     1      64.077  11.978   5.830  1.00  0.00     0.274 HD
HETATM   17  H   UNL     1      63.815  10.419   6.353  1.00  0.00     0.274 HD
HETATM   18  H   UNL     1      62.791  11.642   6.835  1.00  0.00     0.274 HD
ENDBRANCH  14  15
ENDBRANCH   5  14
TORSDOF 3
ENDMDL
