MODEL 1
REMARK VINA RESULT:      -5.0      0.000      0.000
REMARK  3 active torsions:
REMARK  status: ('A' for Active; 'I' for Inactive)
REMARK    1  A    between atoms: C_1  and  N_2 
REMARK    2  A    between atoms: C_6  and  C_11 
REMARK    3  A    between atoms: O_10  and  C_11 
ROOT
HETATM    1  C   UNL     1      64.690   7.941   4.607  1.00  0.00     0.103 A 
HETATM    2  N   UNL     1      63.848   7.571   3.617  1.00  0.00    -0.352 N 
ATOM      3  HN  UNL     1      64.015   6.717   3.085  1.00  0.00     0.166 HD
HETATM    4  C   UNL     1      64.444   9.109   5.330  1.00  0.00     0.057 A 
HETATM    5  C   UNL     1      63.342   9.920   5.038  1.00  0.00    -0.030 A 
HETATM    6  C   UNL     1      62.781   8.356   3.346  1.00  0.00     0.090 A 
HETATM    7  C   UNL     1      62.487   9.526   4.018  1.00  0.00     0.026 A 
ENDROOT
BRANCH   1   8
HETATM    8  N   UNL     1      65.750   7.127   4.913  1.00  0.00    -0.367 N 
HETATM    9  C   UNL     1      66.482   6.418   3.878  1.00  0.00     0.124 C 
HETATM   10  C   UNL     1      67.331   5.454   4.701  1.00  0.00     0.021 C 
HETATM   11  C   UNL     1      67.698   6.264   5.940  1.00  0.00     0.021 C 
HETATM   12  C   UNL     1      66.528   7.231   6.137  1.00  0.00     0.124 C 
ENDBRANCH   1   8
BRANCH   5  13
HETATM   13  C   UNL     1      63.119  11.184   5.818  1.00  0.00     0.203 C 
BRANCH  13  14
HETATM   14  O   UNL     1      64.311  11.588   6.480  1.00  0.00    -0.396 OA
HETATM   15  H   UNL     1      64.273  11.317   7.411  1.00  0.00     0.209 HD
ENDBRANCH  13  14
ENDBRANCH   5  13
TORSDOF 3
ENDMDL
MODEL 2
REMARK VINA RESULT:      -4.9      2.147      4.730
REMARK  3 active torsions:
REMARK  status: ('A' for Active; 'I' for Inactive)
REMARK    1  A    between atoms: C_1  and  N_2 
REMARK    2  A    between atoms: C_6  and  C_11 
REMARK    3  A    between atoms: O_10  and  C_11 
ROOT
HETATM    1  C   UNL     1      63.311   8.576   4.672  1.00  0.00     0.103 A 
HETATM    2  N   UNL     1      62.502   7.699   5.307  1.00  0.00    -0.352 N 
ATOM      3  HN  UNL     1      61.504   7.668   5.098  1.00  0.00     0.166 HD
HETATM    4  C   UNL     1      64.675   8.601   4.964  1.00  0.00     0.057 A 
HETATM    5  C   UNL     1      65.226   7.740   5.919  1.00  0.00    -0.030 A 
HETATM    6  C   UNL     1      63.043   6.865   6.223  1.00  0.00     0.090 A 
HETATM    7  C   UNL     1      64.382   6.845   6.562  1.00  0.00     0.026 A 
ENDROOT
BRANCH   1   8
HETATM    8  N   UNL     1      62.775   9.395   3.713  1.00  0.00    -0.367 N 
HETATM    9  C   UNL     1      62.191   8.855   2.498  1.00  0.00     0.124 C 
HETATM   10  C   UNL     1      62.017  10.111   1.649  1.00  0.00     0.021 C 
HETATM   11  C   UNL     1      61.633  11.182   2.665  1.00  0.00     0.021 C 
HETATM   12  C   UNL     1      62.314  10.751   3.966  1.00  0.00     0.124 C 
ENDBRANCH   1   8
BRANCH   5  13
HETATM   13  C   UNL     1      66.694   7.809   6.228  1.00  0.00     0.203 C 
BRANCH  13  14
HETATM   14  O   UNL     1      66.979   8.900   7.095  1.00  0.00    -0.396 OA
HETATM   15  H   UNL     1      66.388   8.867   7.864  1.00  0.00     0.209 HD
ENDBRANCH  13  14
ENDBRANCH   5  13
TORSDOF 3
ENDMDL
MODEL 3
REMARK VINA RESULT:      -4.7      2.347      3.052
REMARK  3 active torsions:
REMARK  status: ('A' for Active; 'I' for Inactive)
REMARK    1  A    between atoms: C_1  and  N_2 
REMARK    2  A    between atoms: C_6  and  C_11 
REMARK    3  A    between atoms: O_10  and  C_11 
ROOT
HETATM    1  C   UNL     1      63.871   8.900   5.046  1.00  0.00     0.103 A 
HETATM    2  N   UNL     1      63.563  10.051   5.684  1.00  0.00    -0.352 N 
ATOM      3  HN  UNL     1      63.980  10.272   6.588  1.00  0.00     0.166 HD
HETATM    4  C   UNL     1      63.298   8.616   3.806  1.00  0.00     0.057 A 
HETATM    5  C   UNL     1      62.390   9.499   3.211  1.00  0.00    -0.030 A 
HETATM    6  C   UNL     1      62.692  10.903   5.099  1.00  0.00     0.090 A 
HETATM    7  C   UNL     1      62.085  10.677   3.878  1.00  0.00     0.026 A 
ENDROOT
BRANCH   1   8
HETATM    8  N   UNL     1      64.785   8.053   5.616  1.00  0.00    -0.367 N 
HETATM    9  C   UNL     1      64.366   6.902   6.396  1.00  0.00     0.124 C 
HETATM   10  C   UNL     1      65.678   6.467   7.042  1.00  0.00     0.021 C 
HETATM   11  C   UNL     1      66.719   6.733   5.958  1.00  0.00     0.021 C 
HETATM   12  C   UNL     1      66.159   7.912   5.158  1.00  0.00     0.124 C 
ENDBRANCH   1   8
BRANCH   5  13
HETATM   13  C   UNL     1      61.771   9.153   1.887  1.00  0.00     0.203 C 
BRANCH  13  14
HETATM   14  O   UNL     1      60.399   8.810   2.043  1.00  0.00    -0.396 OA
HETATM   15  H   UNL     1      59.932   8.953   1.205  1.00  0.00     0.209 HD
ENDBRANCH  13  14
ENDBRANCH   5  13
TORSDOF 3
ENDMDL
MODEL 4
REMARK VINA RESULT:      -4.5      1.779      2.111
REMARK  3 active torsions:
REMARK  status: ('A' for Active; 'I' for Inactive)
REMARK    1  A    between atoms: C_1  and  N_2 
REMARK    2  A    between atoms: C_6  and  C_11 
REMARK    3  A    between atoms: O_10  and  C_11 
ROOT
HETATM    1  C   UNL     1      63.539   7.996   5.056  1.00  0.00     0.103 A 
HETATM    2  N   UNL     1      62.739   7.018   4.580  1.00  0.00    -0.352 N 
ATOM      3  HN  UNL     1      62.923   6.040   4.803  1.00  0.00     0.166 HD
HETATM    4  C   UNL     1      63.269   9.329   4.747  1.00  0.00     0.057 A 
HETATM    5  C   UNL     1      62.185   9.677   3.934  1.00  0.00    -0.030 A 
HETATM    6  C   UNL     1      61.689   7.362   3.801  1.00  0.00     0.090 A 
HETATM    7  C   UNL     1      61.372   8.661   3.452  1.00  0.00     0.026 A 
ENDROOT
BRANCH   1   8
HETATM    8  N   UNL     1      64.581   7.656   5.880  1.00  0.00    -0.367 N 
HETATM    9  C   UNL     1      64.543   6.448   6.686  1.00  0.00     0.124 C 
HETATM   10  C   UNL     1      65.735   6.655   7.616  1.00  0.00     0.021 C 
HETATM   11  C   UNL     1      66.767   7.348   6.731  1.00  0.00     0.021 C 
HETATM   12  C   UNL     1      65.942   8.141   5.714  1.00  0.00     0.124 C 
ENDBRANCH   1   8
BRANCH   5  13
HETATM   13  C   UNL     1      61.936  11.119   3.599  1.00  0.00     0.203 C 
BRANCH  13  14
HETATM   14  O   UNL     1      62.164  11.950   4.732  1.00  0.00    -0.396 OA
HETATM   15  H   UNL     1      61.330  12.081   5.210  1.00  0.00     0.209 HD
ENDBRANCH  13  14
ENDBRANCH   5  13
TORSDOF 3
ENDMDL
MODEL 5
REMARK VINA RESULT:      -4.4      2.415      5.204
REMARK  3 active torsions:
REMARK  status: ('A' for Active; 'I' for Inactive)
REMARK    1  A    between atoms: C_1  and  N_2 
REMARK    2  A    between atoms: C_6  and  C_11 
REMARK    3  A    between atoms: O_10  and  C_11 
ROOT
HETATM    1  C   UNL     1      65.076   8.099   4.979  1.00  0.00     0.103 A 
HETATM    2  N   UNL     1      65.585   8.583   6.133  1.00  0.00    -0.352 N 
ATOM      3  HN  UNL     1      65.195   9.422   6.562  1.00  0.00     0.166 HD
HETATM    4  C   UNL     1      65.618   6.947   4.408  1.00  0.00     0.057 A 
HETATM    5  C   UNL     1      66.697   6.285   5.004  1.00  0.00    -0.030 A 
HETATM    6  C   UNL     1      66.623   7.933   6.706  1.00  0.00     0.090 A 
HETATM    7  C   UNL     1      67.208   6.794   6.189  1.00  0.00     0.026 A 
ENDROOT
BRANCH   1   8
HETATM    8  N   UNL     1      63.998   8.730   4.416  1.00  0.00    -0.367 N 
HETATM    9  C   UNL     1      63.218   8.102   3.364  1.00  0.00     0.124 C 
HETATM   10  C   UNL     1      62.357   9.263   2.875  1.00  0.00     0.021 C 
HETATM   11  C   UNL     1      62.047  10.042   4.150  1.00  0.00     0.021 C 
HETATM   12  C   UNL     1      63.253   9.800   5.062  1.00  0.00     0.124 C 
ENDBRANCH   1   8
BRANCH   5  13
HETATM   13  C   UNL     1      67.273   5.061   4.351  1.00  0.00     0.203 C 
BRANCH  13  14
HETATM   14  O   UNL     1      67.444   5.264   2.953  1.00  0.00    -0.396 OA
HETATM   15  H   UNL     1      66.982   6.074   2.685  1.00  0.00     0.209 HD
ENDBRANCH  13  14
ENDBRANCH   5  13
TORSDOF 3
ENDMDL
MODEL 6
REMARK VINA RESULT:      -4.3      2.706      3.463
REMARK  3 active torsions:
REMARK  status: ('A' for Active; 'I' for Inactive)
REMARK    1  A    between atoms: C_1  and  N_2 
REMARK    2  A    between atoms: C_6  and  C_11 
REMARK    3  A    between atoms: O_10  and  C_11 
ROOT
HETATM    1  C   UNL     1      65.208   7.212   6.547  1.00  0.00     0.103 A 
HETATM    2  N   UNL     1      65.427   8.348   5.849  1.00  0.00    -0.352 N 
ATOM      3  HN  UNL     1      66.344   8.794   5.855  1.00  0.00     0.166 HD
HETATM    4  C   UNL     1      63.949   6.611   6.523  1.00  0.00     0.057 A 
HETATM    5  C   UNL     1      62.894   7.173   5.796  1.00  0.00    -0.030 A 
HETATM    6  C   UNL     1      64.405   8.881   5.143  1.00  0.00     0.090 A 
HETATM    7  C   UNL     1      63.135   8.340   5.084  1.00  0.00     0.026 A 
ENDROOT
BRANCH   1   8
HETATM    8  N   UNL     1      66.252   6.645   7.231  1.00  0.00    -0.367 N 
HETATM    9  C   UNL     1      66.204   6.466   8.672  1.00  0.00     0.124 C 
HETATM   10  C   UNL     1      67.649   6.096   8.990  1.00  0.00     0.021 C 
HETATM   11  C   UNL     1      68.075   5.247   7.796  1.00  0.00     0.021 C 
HETATM   12  C   UNL     1      67.249   5.780   6.622  1.00  0.00     0.124 C 
ENDBRANCH   1   8
BRANCH   5  13
HETATM   13  C   UNL     1      61.545   6.515   5.810  1.00  0.00     0.203 C 
BRANCH  13  14
HETATM   14  O   UNL     1      61.074   6.352   7.143  1.00  0.00    -0.396 OA
HETATM   15  H   UNL     1      60.248   6.849   7.258  1.00  0.00     0.209 HD
ENDBRANCH  13  14
ENDBRANCH   5  13
TORSDOF 3
ENDMDL
MODEL 7
REMARK VINA RESULT:      -4.2      2.648      5.137
REMARK  3 active torsions:
REMARK  status: ('A' for Active; 'I' for Inactive)
REMARK    1  A    between atoms: C_1  and  N_2 
REMARK    2  A    between atoms: C_6  and  C_11 
REMARK    3  A    between atoms: O_10  and  C_11 
ROOT
HETATM    1  C   UNL     1      64.600   8.083   5.481  1.00  0.00     0.103 A 
HETATM    2  N   UNL     1      65.713   8.681   5.958  1.00  0.00    -0.352 N 
ATOM      3  HN  UNL     1      65.914   9.657   5.738  1.00  0.00     0.166 HD
HETATM    4  C   UNL     1      64.336   6.750   5.796  1.00  0.00     0.057 A 
HETATM    5  C   UNL     1      65.216   6.008   6.593  1.00  0.00    -0.030 A 
HETATM    6  C   UNL     1      66.554   7.961   6.733  1.00  0.00     0.090 A 
HETATM    7  C   UNL     1      66.355   6.637   7.076  1.00  0.00     0.026 A 
ENDROOT
BRANCH   1   8
HETATM    8  N   UNL     1      63.723   8.821   4.729  1.00  0.00    -0.367 N 
HETATM    9  C   UNL     1      62.957   8.219   3.652  1.00  0.00     0.124 C 
HETATM   10  C   UNL     1      62.383   9.446   2.951  1.00  0.00     0.021 C 
HETATM   11  C   UNL     1      62.088  10.410   4.097  1.00  0.00     0.021 C 
HETATM   12  C   UNL     1      63.125  10.071   5.171  1.00  0.00     0.124 C 
ENDBRANCH   1   8
BRANCH   5  13
HETATM   13  C   UNL     1      64.916   4.568   6.894  1.00  0.00     0.203 C 
BRANCH  13  14
HETATM   14  O   UNL     1      65.590   4.146   8.074  1.00  0.00    -0.396 OA
HETATM   15  H   UNL     1      66.493   4.502   8.076  1.00  0.00     0.209 HD
ENDBRANCH  13  14
ENDBRANCH   5  13
TORSDOF 3
ENDMDL
MODEL 8
REMARK VINA RESULT:      -4.1     13.258     13.962
REMARK  3 active torsions:
REMARK  status: ('A' for Active; 'I' for Inactive)
REMARK    1  A    between atoms: C_1  and  N_2 
REMARK    2  A    between atoms: C_6  and  C_11 
REMARK    3  A    between atoms: O_10  and  C_11 
ROOT
HETATM    1  C   UNL     1      56.307   2.228  13.494  1.00  0.00     0.103 A 
HETATM    2  N   UNL     1      57.187   1.704  14.374  1.00  0.00    -0.352 N 
ATOM      3  HN  UNL     1      56.880   1.398  15.298  1.00  0.00     0.166 HD
HETATM    4  C   UNL     1      56.741   2.635  12.233  1.00  0.00     0.057 A 
HETATM    5  C   UNL     1      58.086   2.525  11.862  1.00  0.00    -0.030 A 
HETATM    6  C   UNL     1      58.483   1.593  14.006  1.00  0.00     0.090 A 
HETATM    7  C   UNL     1      58.978   1.984  12.777  1.00  0.00     0.026 A 
ENDROOT
BRANCH   1   8
HETATM    8  N   UNL     1      54.984   2.304  13.848  1.00  0.00    -0.367 N 
HETATM    9  C   UNL     1      54.036   3.077  13.066  1.00  0.00     0.124 C 
HETATM   10  C   UNL     1      52.818   3.102  13.985  1.00  0.00     0.021 C 
HETATM   11  C   UNL     1      52.831   1.722  14.637  1.00  0.00     0.021 C 
HETATM   12  C   UNL     1      54.309   1.325  14.685  1.00  0.00     0.124 C 
ENDBRANCH   1   8
BRANCH   5  13
HETATM   13  C   UNL     1      58.527   2.995  10.506  1.00  0.00     0.203 C 
BRANCH  13  14
HETATM   14  O   UNL     1      58.599   4.415  10.460  1.00  0.00    -0.396 OA
HETATM   15  H   UNL     1      57.716   4.790  10.611  1.00  0.00     0.209 HD
ENDBRANCH  13  14
ENDBRANCH   5  13
TORSDOF 3
ENDMDL
MODEL 9
REMARK VINA RESULT:      -4.0      3.793      6.363
REMARK  3 active torsions:
REMARK  status: ('A' for Active; 'I' for Inactive)
REMARK    1  A    between atoms: C_1  and  N_2 
REMARK    2  A    between atoms: C_6  and  C_11 
REMARK    3  A    between atoms: O_10  and  C_11 
ROOT
HETATM    1  C   UNL     1      60.377   7.962   3.294  1.00  0.00     0.103 A 
HETATM    2  N   UNL     1      60.900   8.922   2.501  1.00  0.00    -0.352 N 
ATOM      3  HN  UNL     1      60.381   9.273   1.697  1.00  0.00     0.166 HD
HETATM    4  C   UNL     1      61.098   7.498   4.394  1.00  0.00     0.057 A 
HETATM    5  C   UNL     1      62.370   8.000   4.688  1.00  0.00    -0.030 A 
HETATM    6  C   UNL     1      62.127   9.409   2.796  1.00  0.00     0.090 A 
HETATM    7  C   UNL     1      62.894   8.987   3.865  1.00  0.00     0.026 A 
ENDROOT
BRANCH   1   8
HETATM    8  N   UNL     1      59.117   7.495   3.023  1.00  0.00    -0.367 N 
HETATM    9  C   UNL     1      58.038   7.631   3.985  1.00  0.00     0.124 C 
HETATM   10  C   UNL     1      56.964   6.731   3.381  1.00  0.00     0.021 C 
HETATM   11  C   UNL     1      57.122   6.941   1.878  1.00  0.00     0.021 C 
HETATM   12  C   UNL     1      58.606   7.264   1.681  1.00  0.00     0.124 C 
ENDBRANCH   1   8
BRANCH   5  13
HETATM   13  C   UNL     1      63.131   7.462   5.866  1.00  0.00     0.203 C 
BRANCH  13  14
HETATM   14  O   UNL     1      62.635   8.007   7.083  1.00  0.00    -0.396 OA
HETATM   15  H   UNL     1      62.679   8.976   7.045  1.00  0.00     0.209 HD
ENDBRANCH  13  14
ENDBRANCH   5  13
TORSDOF 3
ENDMDL
