MODEL 1
REMARK VINA RESULT:      -5.3      0.000      0.000
REMARK  3 active torsions:
REMARK  status: ('A' for Active; 'I' for Inactive)
REMARK    1  A    between atoms: C_1  and  O_4 
REMARK    2  A    between atoms: O_4  and  C_6 
REMARK    3  A    between atoms: C_7  and  N_8 
ROOT
HETATM    1  C   UNL     1      62.427   8.795   3.718  1.00  0.00     0.066 A 
HETATM    2  C   UNL     1      62.975   9.054   4.979  1.00  0.00     0.080 A 
HETATM    3  C   UNL     1      61.795   9.806   2.991  1.00  0.00     0.028 A 
HETATM    4  C   UNL     1      62.443  11.391   4.714  1.00  0.00     0.005 A 
HETATM    5  C   UNL     1      62.999  10.359   5.469  1.00  0.00     0.037 A 
HETATM    6  C   UNL     1      61.856  11.114   3.477  1.00  0.00     0.029 A 
ENDROOT
BRANCH   2   7
HETATM    7  O   UNL     1      63.582   8.090   5.755  1.00  0.00    -0.294 OA
BRANCH   7   8
HETATM    8  C   UNL     1      64.935   7.851   5.539  1.00  0.00     0.147 A 
HETATM    9  N   UNL     1      65.849   8.355   6.401  1.00  0.00    -0.347 N 
HETATM   10  C   UNL     1      67.141   8.049   6.166  1.00  0.00     0.090 A 
ATOM     11  HN  UNL     1      65.573   8.938   7.191  1.00  0.00     0.167 HD
HETATM   12  C   UNL     1      67.565   7.282   5.095  1.00  0.00     0.017 A 
HETATM   13  C   UNL     1      66.609   6.811   4.200  1.00  0.00     0.006 A 
HETATM   14  C   UNL     1      65.266   7.106   4.419  1.00  0.00     0.056 A 
ENDBRANCH   7   8
ENDBRANCH   2   7
BRANCH   3  15
HETATM   15  N   UNL     1      61.311   9.545   1.702  1.00  0.00    -0.399 N 
HETATM   16  H   UNL     1      60.836   8.703   1.515  1.00  0.00     0.156 HD
HETATM   17  H   UNL     1      61.445  10.204   0.983  1.00  0.00     0.156 HD
ENDBRANCH   3  15
TORSDOF 3
ENDMDL
MODEL 2
REMARK VINA RESULT:      -5.2      1.522      5.380
REMARK  3 active torsions:
REMARK  status: ('A' for Active; 'I' for Inactive)
REMARK    1  A    between atoms: C_1  and  O_4 
REMARK    2  A    between atoms: O_4  and  C_6 
REMARK    3  A    between atoms: C_7  and  N_8 
ROOT
HETATM    1  C   UNL     1      65.404   7.213   6.759  1.00  0.00     0.066 A 
HETATM    2  C   UNL     1      64.863   7.238   5.468  1.00  0.00     0.080 A 
HETATM    3  C   UNL     1      66.777   7.045   6.955  1.00  0.00     0.028 A 
HETATM    4  C   UNL     1      67.089   7.130   4.548  1.00  0.00     0.005 A 
HETATM    5  C   UNL     1      65.710   7.215   4.361  1.00  0.00     0.037 A 
HETATM    6  C   UNL     1      67.617   7.058   5.839  1.00  0.00     0.029 A 
ENDROOT
BRANCH   2   7
HETATM    7  O   UNL     1      63.514   7.369   5.214  1.00  0.00    -0.294 OA
BRANCH   7   8
HETATM    8  C   UNL     1      63.046   8.633   4.871  1.00  0.00     0.147 A 
HETATM    9  N   UNL     1      63.221   9.667   5.727  1.00  0.00    -0.347 N 
HETATM   10  C   UNL     1      62.789  10.876   5.317  1.00  0.00     0.090 A 
ATOM     11  HN  UNL     1      63.659   9.537   6.639  1.00  0.00     0.167 HD
HETATM   12  C   UNL     1      62.169  11.097   4.099  1.00  0.00     0.017 A 
HETATM   13  C   UNL     1      61.963  10.010   3.255  1.00  0.00     0.006 A 
HETATM   14  C   UNL     1      62.403   8.748   3.649  1.00  0.00     0.056 A 
ENDBRANCH   7   8
ENDBRANCH   2   7
BRANCH   3  15
HETATM   15  N   UNL     1      67.310   7.090   8.251  1.00  0.00    -0.399 N 
HETATM   16  H   UNL     1      67.260   7.921   8.776  1.00  0.00     0.156 HD
HETATM   17  H   UNL     1      67.733   6.289   8.637  1.00  0.00     0.156 HD
ENDBRANCH   3  15
TORSDOF 3
ENDMDL
MODEL 3
REMARK VINA RESULT:      -5.2      2.017      5.515
REMARK  3 active torsions:
REMARK  status: ('A' for Active; 'I' for Inactive)
REMARK    1  A    between atoms: C_1  and  O_4 
REMARK    2  A    between atoms: O_4  and  C_6 
REMARK    3  A    between atoms: C_7  and  N_8 
ROOT
HETATM    1  C   UNL     1      65.569   6.861   7.040  1.00  0.00     0.066 A 
HETATM    2  C   UNL     1      65.993   7.814   6.107  1.00  0.00     0.080 A 
HETATM    3  C   UNL     1      66.141   5.586   7.070  1.00  0.00     0.028 A 
HETATM    4  C   UNL     1      67.706   6.294   5.353  1.00  0.00     0.005 A 
HETATM    5  C   UNL     1      67.076   7.535   5.275  1.00  0.00     0.037 A 
HETATM    6  C   UNL     1      67.246   5.332   6.255  1.00  0.00     0.029 A 
ENDROOT
BRANCH   2   7
HETATM    7  O   UNL     1      65.444   9.075   6.010  1.00  0.00    -0.294 OA
BRANCH   7   8
HETATM    8  C   UNL     1      64.299   9.217   5.235  1.00  0.00     0.147 A 
HETATM    9  N   UNL     1      63.463  10.258   5.459  1.00  0.00    -0.347 N 
HETATM   10  C   UNL     1      62.395  10.369   4.644  1.00  0.00     0.090 A 
ATOM     11  HN  UNL     1      63.634  10.927   6.210  1.00  0.00     0.167 HD
HETATM   12  C   UNL     1      62.110   9.473   3.628  1.00  0.00     0.017 A 
HETATM   13  C   UNL     1      62.962   8.388   3.445  1.00  0.00     0.006 A 
HETATM   14  C   UNL     1      64.076   8.249   4.268  1.00  0.00     0.056 A 
ENDBRANCH   7   8
ENDBRANCH   2   7
BRANCH   3  15
HETATM   15  N   UNL     1      65.752   4.667   8.054  1.00  0.00    -0.399 N 
HETATM   16  H   UNL     1      64.876   4.221   7.993  1.00  0.00     0.156 HD
HETATM   17  H   UNL     1      66.354   4.467   8.806  1.00  0.00     0.156 HD
ENDBRANCH   3  15
TORSDOF 3
ENDMDL
MODEL 4
REMARK VINA RESULT:      -5.1      1.764      2.351
REMARK  3 active torsions:
REMARK  status: ('A' for Active; 'I' for Inactive)
REMARK    1  A    between atoms: C_1  and  O_4 
REMARK    2  A    between atoms: O_4  and  C_6 
REMARK    3  A    between atoms: C_7  and  N_8 
ROOT
HETATM    1  C   UNL     1      63.817   9.277   5.124  1.00  0.00     0.066 A 
HETATM    2  C   UNL     1      63.646   8.372   4.071  1.00  0.00     0.080 A 
HETATM    3  C   UNL     1      63.140  10.499   5.134  1.00  0.00     0.028 A 
HETATM    4  C   UNL     1      61.961   9.814   3.123  1.00  0.00     0.005 A 
HETATM    5  C   UNL     1      62.702   8.634   3.079  1.00  0.00     0.037 A 
HETATM    6  C   UNL     1      62.174  10.734   4.153  1.00  0.00     0.029 A 
ENDROOT
BRANCH   2   7
HETATM    7  O   UNL     1      64.311   7.167   3.992  1.00  0.00    -0.294 OA
BRANCH   7   8
HETATM    8  C   UNL     1      65.350   6.949   4.890  1.00  0.00     0.147 A 
HETATM    9  N   UNL     1      65.078   6.466   6.125  1.00  0.00    -0.347 N 
HETATM   10  C   UNL     1      66.131   6.230   6.932  1.00  0.00     0.090 A 
ATOM     11  HN  UNL     1      64.121   6.289   6.430  1.00  0.00     0.167 HD
HETATM   12  C   UNL     1      67.445   6.477   6.572  1.00  0.00     0.017 A 
HETATM   13  C   UNL     1      67.695   7.012   5.312  1.00  0.00     0.006 A 
HETATM   14  C   UNL     1      66.628   7.262   4.453  1.00  0.00     0.056 A 
ENDBRANCH   7   8
ENDBRANCH   2   7
BRANCH   3  15
HETATM   15  N   UNL     1      63.272  11.365   6.228  1.00  0.00    -0.399 N 
HETATM   16  H   UNL     1      62.873  12.264   6.196  1.00  0.00     0.156 HD
HETATM   17  H   UNL     1      63.764  11.073   7.030  1.00  0.00     0.156 HD
ENDBRANCH   3  15
TORSDOF 3
ENDMDL
MODEL 5
REMARK VINA RESULT:      -5.0      1.631      5.308
REMARK  3 active torsions:
REMARK  status: ('A' for Active; 'I' for Inactive)
REMARK    1  A    between atoms: C_1  and  O_4 
REMARK    2  A    between atoms: O_4  and  C_6 
REMARK    3  A    between atoms: C_7  and  N_8 
ROOT
HETATM    1  C   UNL     1      65.230   6.552   3.703  1.00  0.00     0.066 A 
HETATM    2  C   UNL     1      64.513   7.515   4.422  1.00  0.00     0.080 A 
HETATM    3  C   UNL     1      66.613   6.429   3.855  1.00  0.00     0.028 A 
HETATM    4  C   UNL     1      66.527   8.110   5.606  1.00  0.00     0.005 A 
HETATM    5  C   UNL     1      65.161   8.283   5.388  1.00  0.00     0.037 A 
HETATM    6  C   UNL     1      67.244   7.179   4.850  1.00  0.00     0.029 A 
ENDROOT
BRANCH   2   7
HETATM    7  O   UNL     1      63.154   7.704   4.288  1.00  0.00    -0.294 OA
BRANCH   7   8
HETATM    8  C   UNL     1      62.729   8.740   3.465  1.00  0.00     0.147 A 
HETATM    9  N   UNL     1      62.660   8.548   2.127  1.00  0.00    -0.347 N 
HETATM   10  C   UNL     1      62.195   9.574   1.387  1.00  0.00     0.090 A 
ATOM     11  HN  UNL     1      62.947   7.668   1.699  1.00  0.00     0.167 HD
HETATM   12  C   UNL     1      61.816  10.794   1.920  1.00  0.00     0.017 A 
HETATM   13  C   UNL     1      61.936  10.981   3.293  1.00  0.00     0.006 A 
HETATM   14  C   UNL     1      62.409   9.938   4.085  1.00  0.00     0.056 A 
ENDBRANCH   7   8
ENDBRANCH   2   7
BRANCH   3  15
HETATM   15  N   UNL     1      67.305   5.415   3.178  1.00  0.00    -0.399 N 
HETATM   16  H   UNL     1      67.792   5.621   2.347  1.00  0.00     0.156 HD
HETATM   17  H   UNL     1      67.305   4.497   3.533  1.00  0.00     0.156 HD
ENDBRANCH   3  15
TORSDOF 3
ENDMDL
MODEL 6
REMARK VINA RESULT:      -4.8      1.602      2.531
REMARK  3 active torsions:
REMARK  status: ('A' for Active; 'I' for Inactive)
REMARK    1  A    between atoms: C_1  and  O_4 
REMARK    2  A    between atoms: O_4  and  C_6 
REMARK    3  A    between atoms: C_7  and  N_8 
ROOT
HETATM    1  C   UNL     1      62.579   9.270   3.556  1.00  0.00     0.066 A 
HETATM    2  C   UNL     1      62.968   7.954   3.278  1.00  0.00     0.080 A 
HETATM    3  C   UNL     1      62.107  10.105   2.540  1.00  0.00     0.028 A 
HETATM    4  C   UNL     1      62.226   8.230   1.000  1.00  0.00     0.005 A 
HETATM    5  C   UNL     1      62.773   7.429   2.001  1.00  0.00     0.037 A 
HETATM    6  C   UNL     1      61.884   9.556   1.275  1.00  0.00     0.029 A 
ENDROOT
BRANCH   2   7
HETATM    7  O   UNL     1      63.472   7.096   4.232  1.00  0.00    -0.294 OA
BRANCH   7   8
HETATM    8  C   UNL     1      64.828   7.188   4.524  1.00  0.00     0.147 A 
HETATM    9  N   UNL     1      65.728   6.559   3.733  1.00  0.00    -0.347 N 
HETATM   10  C   UNL     1      67.030   6.726   4.040  1.00  0.00     0.090 A 
ATOM     11  HN  UNL     1      65.435   5.987   2.941  1.00  0.00     0.167 HD
HETATM   12  C   UNL     1      67.475   7.473   5.116  1.00  0.00     0.017 A 
HETATM   13  C   UNL     1      66.528   8.075   5.940  1.00  0.00     0.006 A 
HETATM   14  C   UNL     1      65.175   7.925   5.646  1.00  0.00     0.056 A 
ENDBRANCH   7   8
ENDBRANCH   2   7
BRANCH   3  15
HETATM   15  N   UNL     1      61.659  11.397   2.848  1.00  0.00    -0.399 N 
HETATM   16  H   UNL     1      62.297  12.146   2.877  1.00  0.00     0.156 HD
HETATM   17  H   UNL     1      60.705  11.556   3.034  1.00  0.00     0.156 HD
ENDBRANCH   3  15
TORSDOF 3
ENDMDL
MODEL 7
REMARK VINA RESULT:      -4.8      2.744      6.125
REMARK  3 active torsions:
REMARK  status: ('A' for Active; 'I' for Inactive)
REMARK    1  A    between atoms: C_1  and  O_4 
REMARK    2  A    between atoms: O_4  and  C_6 
REMARK    3  A    between atoms: C_7  and  N_8 
ROOT
HETATM    1  C   UNL     1      67.123   5.879   6.350  1.00  0.00     0.066 A 
HETATM    2  C   UNL     1      66.808   6.978   7.158  1.00  0.00     0.080 A 
HETATM    3  C   UNL     1      67.826   4.789   6.869  1.00  0.00     0.028 A 
HETATM    4  C   UNL     1      67.720   5.820   9.066  1.00  0.00     0.005 A 
HETATM    5  C   UNL     1      67.091   6.939   8.522  1.00  0.00     0.037 A 
HETATM    6  C   UNL     1      68.073   4.747   8.243  1.00  0.00     0.029 A 
ENDROOT
BRANCH   2   7
HETATM    7  O   UNL     1      66.145   8.094   6.693  1.00  0.00    -0.294 OA
BRANCH   7   8
HETATM    8  C   UNL     1      64.931   7.895   6.046  1.00  0.00     0.147 A 
HETATM    9  N   UNL     1      63.913   7.293   6.704  1.00  0.00    -0.347 N 
HETATM   10  C   UNL     1      62.745   7.172   6.041  1.00  0.00     0.090 A 
ATOM     11  HN  UNL     1      64.023   6.947   7.657  1.00  0.00     0.167 HD
HETATM   12  C   UNL     1      62.554   7.604   4.740  1.00  0.00     0.017 A 
HETATM   13  C   UNL     1      63.629   8.181   4.071  1.00  0.00     0.006 A 
HETATM   14  C   UNL     1      64.846   8.325   4.731  1.00  0.00     0.056 A 
ENDBRANCH   7   8
ENDBRANCH   2   7
BRANCH   3  15
HETATM   15  N   UNL     1      68.075   3.669   6.064  1.00  0.00    -0.399 N 
HETATM   16  H   UNL     1      68.913   3.163   6.169  1.00  0.00     0.156 HD
HETATM   17  H   UNL     1      67.411   3.387   5.394  1.00  0.00     0.156 HD
ENDBRANCH   3  15
TORSDOF 3
ENDMDL
MODEL 8
REMARK VINA RESULT:      -4.6      2.829      3.640
REMARK  3 active torsions:
REMARK  status: ('A' for Active; 'I' for Inactive)
REMARK    1  A    between atoms: C_1  and  O_4 
REMARK    2  A    between atoms: O_4  and  C_6 
REMARK    3  A    between atoms: C_7  and  N_8 
ROOT
HETATM    1  C   UNL     1      63.320   9.425   5.078  1.00  0.00     0.066 A 
HETATM    2  C   UNL     1      63.017   8.774   3.877  1.00  0.00     0.080 A 
HETATM    3  C   UNL     1      62.978  10.766   5.269  1.00  0.00     0.028 A 
HETATM    4  C   UNL     1      61.847  10.741   3.120  1.00  0.00     0.005 A 
HETATM    5  C   UNL     1      62.263   9.429   2.904  1.00  0.00     0.037 A 
HETATM    6  C   UNL     1      62.194  11.399   4.303  1.00  0.00     0.029 A 
ENDROOT
BRANCH   2   7
HETATM    7  O   UNL     1      63.358   7.463   3.620  1.00  0.00    -0.294 OA
BRANCH   7   8
HETATM    8  C   UNL     1      62.967   6.505   4.549  1.00  0.00     0.147 A 
HETATM    9  N   UNL     1      63.901   5.892   5.313  1.00  0.00    -0.347 N 
HETATM   10  C   UNL     1      63.456   5.010   6.229  1.00  0.00     0.090 A 
ATOM     11  HN  UNL     1      64.896   6.090   5.200  1.00  0.00     0.167 HD
HETATM   12  C   UNL     1      62.120   4.692   6.403  1.00  0.00     0.017 A 
HETATM   13  C   UNL     1      61.183   5.305   5.576  1.00  0.00     0.006 A 
HETATM   14  C   UNL     1      61.612   6.225   4.624  1.00  0.00     0.056 A 
ENDBRANCH   7   8
ENDBRANCH   2   7
BRANCH   3  15
HETATM   15  N   UNL     1      63.229  11.384   6.502  1.00  0.00    -0.399 N 
HETATM   16  H   UNL     1      63.002  12.332   6.634  1.00  0.00     0.156 HD
HETATM   17  H   UNL     1      63.633  10.868   7.238  1.00  0.00     0.156 HD
ENDBRANCH   3  15
TORSDOF 3
ENDMDL
MODEL 9
REMARK VINA RESULT:      -4.6      3.169      4.726
REMARK  3 active torsions:
REMARK  status: ('A' for Active; 'I' for Inactive)
REMARK    1  A    between atoms: C_1  and  O_4 
REMARK    2  A    between atoms: O_4  and  C_6 
REMARK    3  A    between atoms: C_7  and  N_8 
ROOT
HETATM    1  C   UNL     1      62.858   9.259   5.298  1.00  0.00     0.066 A 
HETATM    2  C   UNL     1      62.269   8.516   4.268  1.00  0.00     0.080 A 
HETATM    3  C   UNL     1      62.952  10.650   5.212  1.00  0.00     0.028 A 
HETATM    4  C   UNL     1      61.679  10.567   3.145  1.00  0.00     0.005 A 
HETATM    5  C   UNL     1      61.663   9.174   3.199  1.00  0.00     0.037 A 
HETATM    6  C   UNL     1      62.311  11.298   4.154  1.00  0.00     0.029 A 
ENDROOT
BRANCH   2   7
HETATM    7  O   UNL     1      62.177   7.141   4.283  1.00  0.00    -0.294 OA
BRANCH   7   8
HETATM    8  C   UNL     1      61.200   6.573   5.092  1.00  0.00     0.147 A 
HETATM    9  N   UNL     1      61.500   6.230   6.366  1.00  0.00    -0.347 N 
HETATM   10  C   UNL     1      60.498   5.730   7.115  1.00  0.00     0.090 A 
ATOM     11  HN  UNL     1      62.441   6.346   6.742  1.00  0.00     0.167 HD
HETATM   12  C   UNL     1      59.212   5.532   6.643  1.00  0.00     0.017 A 
HETATM   13  C   UNL     1      58.938   5.853   5.317  1.00  0.00     0.006 A 
HETATM   14  C   UNL     1      59.953   6.378   4.519  1.00  0.00     0.056 A 
ENDBRANCH   7   8
ENDBRANCH   2   7
BRANCH   3  15
HETATM   15  N   UNL     1      63.484  11.384   6.281  1.00  0.00    -0.399 N 
HETATM   16  H   UNL     1      62.967  12.120   6.680  1.00  0.00     0.156 HD
HETATM   17  H   UNL     1      64.376  11.162   6.635  1.00  0.00     0.156 HD
ENDBRANCH   3  15
TORSDOF 3
ENDMDL
