MODEL 1
REMARK VINA RESULT:      -5.7      0.000      0.000
REMARK  4 active torsions:
REMARK  status: ('A' for Active; 'I' for Inactive)
REMARK    1  A    between atoms: C_1  and  O_4 
REMARK    2  A    between atoms: O_4  and  C_5 
REMARK    3  A    between atoms: C_7  and  C_13 
REMARK    4  A    between atoms: O_8  and  C_13 
ROOT
HETATM    1  C   UNL     1      63.505   8.269   4.108  1.00  0.00     0.078 A 
HETATM    2  C   UNL     1      63.674   9.242   5.099  1.00  0.00     0.046 A 
HETATM    3  C   UNL     1      62.965  10.448   5.045  1.00  0.00    -0.032 A 
HETATM    4  C   UNL     1      62.015   9.756   2.919  1.00  0.00     0.003 A 
HETATM    5  C   UNL     1      62.697   8.539   3.005  1.00  0.00     0.037 A 
HETATM    6  C   UNL     1      62.140  10.700   3.942  1.00  0.00     0.009 A 
ENDROOT
BRANCH   1   7
HETATM    7  O   UNL     1      64.144   7.048   4.126  1.00  0.00    -0.294 OA
BRANCH   7   8
HETATM    8  C   UNL     1      65.210   6.886   5.006  1.00  0.00     0.147 A 
HETATM    9  N   UNL     1      64.977   6.522   6.289  1.00  0.00    -0.347 N 
HETATM   10  C   UNL     1      66.043   6.448   7.108  1.00  0.00     0.090 A 
ATOM     11  HN  UNL     1      64.035   6.313   6.620  1.00  0.00     0.167 HD
HETATM   12  C   UNL     1      67.343   6.692   6.698  1.00  0.00     0.017 A 
HETATM   13  C   UNL     1      67.562   7.020   5.363  1.00  0.00     0.006 A 
HETATM   14  C   UNL     1      66.479   7.115   4.495  1.00  0.00     0.056 A 
ENDBRANCH   7   8
ENDBRANCH   1   7
BRANCH   3  15
HETATM   15  C   UNL     1      63.065  11.435   6.176  1.00  0.00     0.203 C 
BRANCH  15  16
HETATM   16  O   UNL     1      64.420  11.651   6.539  1.00  0.00    -0.396 OA
HETATM   17  H   UNL     1      64.965  10.927   6.195  1.00  0.00     0.209 HD
ENDBRANCH  15  16
ENDBRANCH   3  15
TORSDOF 4
ENDMDL
MODEL 2
REMARK VINA RESULT:      -5.6      1.695      2.064
REMARK  4 active torsions:
REMARK  status: ('A' for Active; 'I' for Inactive)
REMARK    1  A    between atoms: C_1  and  O_4 
REMARK    2  A    between atoms: O_4  and  C_5 
REMARK    3  A    between atoms: C_7  and  C_13 
REMARK    4  A    between atoms: O_8  and  C_13 
ROOT
HETATM    1  C   UNL     1      62.918   8.073   3.526  1.00  0.00     0.078 A 
HETATM    2  C   UNL     1      62.662   9.443   3.653  1.00  0.00     0.046 A 
HETATM    3  C   UNL     1      62.144  10.177   2.580  1.00  0.00    -0.032 A 
HETATM    4  C   UNL     1      62.269   8.183   1.199  1.00  0.00     0.003 A 
HETATM    5  C   UNL     1      62.747   7.452   2.289  1.00  0.00     0.037 A 
HETATM    6  C   UNL     1      61.957   9.537   1.349  1.00  0.00     0.009 A 
ENDROOT
BRANCH   1   7
HETATM    7  O   UNL     1      63.391   7.289   4.555  1.00  0.00    -0.294 OA
BRANCH   7   8
HETATM    8  C   UNL     1      64.737   7.399   4.890  1.00  0.00     0.147 A 
HETATM    9  N   UNL     1      65.102   8.074   6.005  1.00  0.00    -0.347 N 
HETATM   10  C   UNL     1      66.422   8.203   6.238  1.00  0.00     0.090 A 
ATOM     11  HN  UNL     1      64.408   8.468   6.641  1.00  0.00     0.167 HD
HETATM   12  C   UNL     1      67.401   7.662   5.422  1.00  0.00     0.017 A 
HETATM   13  C   UNL     1      67.000   6.932   4.307  1.00  0.00     0.006 A 
HETATM   14  C   UNL     1      65.643   6.791   4.034  1.00  0.00     0.056 A 
ENDBRANCH   7   8
ENDBRANCH   1   7
BRANCH   3  15
HETATM   15  C   UNL     1      61.762  11.621   2.766  1.00  0.00     0.203 C 
BRANCH  15  16
HETATM   16  O   UNL     1      62.069  12.058   4.082  1.00  0.00    -0.396 OA
HETATM   17  H   UNL     1      61.946  11.324   4.703  1.00  0.00     0.209 HD
ENDBRANCH  15  16
ENDBRANCH   3  15
TORSDOF 4
ENDMDL
MODEL 3
REMARK VINA RESULT:      -5.6      1.703      2.930
REMARK  4 active torsions:
REMARK  status: ('A' for Active; 'I' for Inactive)
REMARK    1  A    between atoms: C_1  and  O_4 
REMARK    2  A    between atoms: O_4  and  C_5 
REMARK    3  A    between atoms: C_7  and  C_13 
REMARK    4  A    between atoms: O_8  and  C_13 
ROOT
HETATM    1  C   UNL     1      63.067   9.058   4.888  1.00  0.00     0.078 A 
HETATM    2  C   UNL     1      62.598   8.719   3.614  1.00  0.00     0.046 A 
HETATM    3  C   UNL     1      62.053   9.694   2.769  1.00  0.00    -0.032 A 
HETATM    4  C   UNL     1      62.322  11.333   4.542  1.00  0.00     0.003 A 
HETATM    5  C   UNL     1      62.902  10.360   5.360  1.00  0.00     0.037 A 
HETATM    6  C   UNL     1      61.912  11.002   3.248  1.00  0.00     0.009 A 
ENDROOT
BRANCH   1   7
HETATM    7  O   UNL     1      63.648   8.154   5.749  1.00  0.00    -0.294 OA
BRANCH   7   8
HETATM    8  C   UNL     1      64.996   7.857   5.566  1.00  0.00     0.147 A 
HETATM    9  N   UNL     1      65.915   8.323   6.443  1.00  0.00    -0.347 N 
HETATM   10  C   UNL     1      67.208   8.059   6.174  1.00  0.00     0.090 A 
ATOM     11  HN  UNL     1      65.641   8.852   7.272  1.00  0.00     0.167 HD
HETATM   12  C   UNL     1      67.627   7.322   5.080  1.00  0.00     0.017 A 
HETATM   13  C   UNL     1      66.660   6.814   4.218  1.00  0.00     0.006 A 
HETATM   14  C   UNL     1      65.317   7.079   4.463  1.00  0.00     0.056 A 
ENDBRANCH   7   8
ENDBRANCH   1   7
BRANCH   3  15
HETATM   15  C   UNL     1      61.663   9.340   1.360  1.00  0.00     0.203 C 
BRANCH  15  16
HETATM   16  O   UNL     1      60.307   8.923   1.302  1.00  0.00    -0.396 OA
HETATM   17  H   UNL     1      60.244   7.991   1.561  1.00  0.00     0.209 HD
ENDBRANCH  15  16
ENDBRANCH   3  15
TORSDOF 4
ENDMDL
MODEL 4
REMARK VINA RESULT:      -5.4      1.934      5.313
REMARK  4 active torsions:
REMARK  status: ('A' for Active; 'I' for Inactive)
REMARK    1  A    between atoms: C_1  and  O_4 
REMARK    2  A    between atoms: O_4  and  C_5 
REMARK    3  A    between atoms: C_7  and  C_13 
REMARK    4  A    between atoms: O_8  and  C_13 
ROOT
HETATM    1  C   UNL     1      64.749   7.351   5.517  1.00  0.00     0.078 A 
HETATM    2  C   UNL     1      64.971   6.817   6.791  1.00  0.00     0.046 A 
HETATM    3  C   UNL     1      66.271   6.682   7.294  1.00  0.00    -0.032 A 
HETATM    4  C   UNL     1      67.139   7.493   5.175  1.00  0.00     0.003 A 
HETATM    5  C   UNL     1      65.836   7.662   4.700  1.00  0.00     0.037 A 
HETATM    6  C   UNL     1      67.353   7.016   6.471  1.00  0.00     0.009 A 
ENDROOT
BRANCH   1   7
HETATM    7  O   UNL     1      63.495   7.546   4.983  1.00  0.00    -0.294 OA
BRANCH   7   8
HETATM    8  C   UNL     1      63.081   8.856   4.758  1.00  0.00     0.147 A 
HETATM    9  N   UNL     1      63.309   9.805   5.696  1.00  0.00    -0.347 N 
HETATM   10  C   UNL     1      62.825  11.038   5.450  1.00  0.00     0.090 A 
ATOM     11  HN  UNL     1      63.824   9.596   6.552  1.00  0.00     0.167 HD
HETATM   12  C   UNL     1      62.146  11.377   4.292  1.00  0.00     0.017 A 
HETATM   13  C   UNL     1      61.965  10.396   3.323  1.00  0.00     0.006 A 
HETATM   14  C   UNL     1      62.444   9.110   3.553  1.00  0.00     0.056 A 
ENDBRANCH   7   8
ENDBRANCH   1   7
BRANCH   3  15
HETATM   15  C   UNL     1      66.490   6.218   8.708  1.00  0.00     0.203 C 
BRANCH  15  16
HETATM   16  O   UNL     1      66.251   4.823   8.825  1.00  0.00    -0.396 OA
HETATM   17  H   UNL     1      67.077   4.341   8.668  1.00  0.00     0.209 HD
ENDBRANCH  15  16
ENDBRANCH   3  15
TORSDOF 4
ENDMDL
MODEL 5
REMARK VINA RESULT:      -5.1      2.196      5.202
REMARK  4 active torsions:
REMARK  status: ('A' for Active; 'I' for Inactive)
REMARK    1  A    between atoms: C_1  and  O_4 
REMARK    2  A    between atoms: O_4  and  C_5 
REMARK    3  A    between atoms: C_7  and  C_13 
REMARK    4  A    between atoms: O_8  and  C_13 
ROOT
HETATM    1  C   UNL     1      64.073   7.240   4.147  1.00  0.00     0.078 A 
HETATM    2  C   UNL     1      65.041   7.750   5.020  1.00  0.00     0.046 A 
HETATM    3  C   UNL     1      66.371   7.321   4.943  1.00  0.00    -0.032 A 
HETATM    4  C   UNL     1      65.730   5.759   3.197  1.00  0.00     0.003 A 
HETATM    5  C   UNL     1      64.415   6.225   3.255  1.00  0.00     0.037 A 
HETATM    6  C   UNL     1      66.706   6.315   4.029  1.00  0.00     0.009 A 
ENDROOT
BRANCH   1   7
HETATM    7  O   UNL     1      62.758   7.651   4.147  1.00  0.00    -0.294 OA
BRANCH   7   8
HETATM    8  C   UNL     1      62.429   8.776   3.396  1.00  0.00     0.147 A 
HETATM    9  N   UNL     1      62.333   8.682   2.049  1.00  0.00    -0.347 N 
HETATM   10  C   UNL     1      62.079   9.819   1.374  1.00  0.00     0.090 A 
ATOM     11  HN  UNL     1      62.448   7.791   1.567  1.00  0.00     0.167 HD
HETATM   12  C   UNL     1      61.885  11.047   1.984  1.00  0.00     0.017 A 
HETATM   13  C   UNL     1      61.943  11.108   3.373  1.00  0.00     0.006 A 
HETATM   14  C   UNL     1      62.215   9.952   4.098  1.00  0.00     0.056 A 
ENDBRANCH   7   8
ENDBRANCH   1   7
BRANCH   3  15
HETATM   15  C   UNL     1      67.424   7.963   5.806  1.00  0.00     0.203 C 
BRANCH  15  16
HETATM   16  O   UNL     1      66.828   8.770   6.811  1.00  0.00    -0.396 OA
HETATM   17  H   UNL     1      66.576   9.625   6.430  1.00  0.00     0.209 HD
ENDBRANCH  15  16
ENDBRANCH   3  15
TORSDOF 4
ENDMDL
MODEL 6
REMARK VINA RESULT:      -4.8      2.371      6.215
REMARK  4 active torsions:
REMARK  status: ('A' for Active; 'I' for Inactive)
REMARK    1  A    between atoms: C_1  and  O_4 
REMARK    2  A    between atoms: O_4  and  C_5 
REMARK    3  A    between atoms: C_7  and  C_13 
REMARK    4  A    between atoms: O_8  and  C_13 
ROOT
HETATM    1  C   UNL     1      66.781   6.929   7.232  1.00  0.00     0.078 A 
HETATM    2  C   UNL     1      67.152   5.836   6.442  1.00  0.00     0.046 A 
HETATM    3  C   UNL     1      67.766   4.715   7.014  1.00  0.00    -0.032 A 
HETATM    4  C   UNL     1      67.762   5.850   9.161  1.00  0.00     0.003 A 
HETATM    5  C   UNL     1      67.112   6.945   8.587  1.00  0.00     0.037 A 
HETATM    6  C   UNL     1      68.075   4.735   8.379  1.00  0.00     0.009 A 
ENDROOT
BRANCH   1   7
HETATM    7  O   UNL     1      66.140   8.043   6.736  1.00  0.00    -0.294 OA
BRANCH   7   8
HETATM    8  C   UNL     1      64.935   7.853   6.065  1.00  0.00     0.147 A 
HETATM    9  N   UNL     1      63.888   7.285   6.709  1.00  0.00    -0.347 N 
HETATM   10  C   UNL     1      62.772   7.066   5.987  1.00  0.00     0.090 A 
ATOM     11  HN  UNL     1      63.942   7.033   7.696  1.00  0.00     0.167 HD
HETATM   12  C   UNL     1      62.640   7.417   4.654  1.00  0.00     0.017 A 
HETATM   13  C   UNL     1      63.714   8.041   4.028  1.00  0.00     0.006 A 
HETATM   14  C   UNL     1      64.885   8.271   4.745  1.00  0.00     0.056 A 
ENDBRANCH   7   8
ENDBRANCH   1   7
BRANCH   3  15
HETATM   15  C   UNL     1      68.051   3.499   6.174  1.00  0.00     0.203 C 
BRANCH  15  16
HETATM   16  O   UNL     1      67.604   3.691   4.840  1.00  0.00    -0.396 OA
HETATM   17  H   UNL     1      67.056   4.489   4.795  1.00  0.00     0.209 HD
ENDBRANCH  15  16
ENDBRANCH   3  15
TORSDOF 4
ENDMDL
MODEL 7
REMARK VINA RESULT:      -4.7      2.323      2.946
REMARK  4 active torsions:
REMARK  status: ('A' for Active; 'I' for Inactive)
REMARK    1  A    between atoms: C_1  and  O_4 
REMARK    2  A    between atoms: O_4  and  C_5 
REMARK    3  A    between atoms: C_7  and  C_13 
REMARK    4  A    between atoms: O_8  and  C_13 
ROOT
HETATM    1  C   UNL     1      63.397   8.106   4.249  1.00  0.00     0.078 A 
HETATM    2  C   UNL     1      63.616   9.151   5.153  1.00  0.00     0.046 A 
HETATM    3  C   UNL     1      62.942  10.370   5.014  1.00  0.00    -0.032 A 
HETATM    4  C   UNL     1      61.926   9.537   2.971  1.00  0.00     0.003 A 
HETATM    5  C   UNL     1      62.572   8.311   3.143  1.00  0.00     0.037 A 
HETATM    6  C   UNL     1      62.101  10.557   3.911  1.00  0.00     0.009 A 
ENDROOT
BRANCH   1   7
HETATM    7  O   UNL     1      63.999   6.871   4.354  1.00  0.00    -0.294 OA
BRANCH   7   8
HETATM    8  C   UNL     1      63.218   5.802   4.785  1.00  0.00     0.147 A 
HETATM    9  N   UNL     1      62.605   5.860   5.991  1.00  0.00    -0.347 N 
HETATM   10  C   UNL     1      61.920   4.768   6.381  1.00  0.00     0.090 A 
ATOM     11  HN  UNL     1      62.659   6.692   6.578  1.00  0.00     0.167 HD
HETATM   12  C   UNL     1      61.793   3.626   5.608  1.00  0.00     0.017 A 
HETATM   13  C   UNL     1      62.394   3.609   4.354  1.00  0.00     0.006 A 
HETATM   14  C   UNL     1      63.118   4.718   3.927  1.00  0.00     0.056 A 
ENDBRANCH   7   8
ENDBRANCH   1   7
BRANCH   3  15
HETATM   15  C   UNL     1      63.096  11.442   6.059  1.00  0.00     0.203 C 
BRANCH  15  16
HETATM   16  O   UNL     1      64.456  11.577   6.446  1.00  0.00    -0.396 OA
HETATM   17  H   UNL     1      64.531  11.461   7.406  1.00  0.00     0.209 HD
ENDBRANCH  15  16
ENDBRANCH   3  15
TORSDOF 4
ENDMDL
MODEL 8
REMARK VINA RESULT:      -4.7      3.836      5.382
REMARK  4 active torsions:
REMARK  status: ('A' for Active; 'I' for Inactive)
REMARK    1  A    between atoms: C_1  and  O_4 
REMARK    2  A    between atoms: O_4  and  C_5 
REMARK    3  A    between atoms: C_7  and  C_13 
REMARK    4  A    between atoms: O_8  and  C_13 
ROOT
HETATM    1  C   UNL     1      61.142   8.201   3.143  1.00  0.00     0.078 A 
HETATM    2  C   UNL     1      61.683   8.969   4.180  1.00  0.00     0.046 A 
HETATM    3  C   UNL     1      62.146  10.269   3.943  1.00  0.00    -0.032 A 
HETATM    4  C   UNL     1      61.650   9.977   1.583  1.00  0.00     0.003 A 
HETATM    5  C   UNL     1      61.153   8.697   1.840  1.00  0.00     0.037 A 
HETATM    6  C   UNL     1      62.132  10.763   2.633  1.00  0.00     0.009 A 
ENDROOT
BRANCH   1   7
HETATM    7  O   UNL     1      60.635   6.933   3.321  1.00  0.00    -0.294 OA
BRANCH   7   8
HETATM    8  C   UNL     1      59.531   6.787   4.156  1.00  0.00     0.147 A 
HETATM    9  N   UNL     1      59.631   6.040   5.281  1.00  0.00    -0.347 N 
HETATM   10  C   UNL     1      58.511   5.881   6.012  1.00  0.00     0.090 A 
ATOM     11  HN  UNL     1      60.516   5.617   5.563  1.00  0.00     0.167 HD
HETATM   12  C   UNL     1      57.295   6.459   5.687  1.00  0.00     0.017 A 
HETATM   13  C   UNL     1      57.229   7.260   4.550  1.00  0.00     0.006 A 
HETATM   14  C   UNL     1      58.367   7.434   3.769  1.00  0.00     0.056 A 
ENDBRANCH   7   8
ENDBRANCH   1   7
BRANCH   3  15
HETATM   15  C   UNL     1      62.614  11.125   5.088  1.00  0.00     0.203 C 
BRANCH  15  16
HETATM   16  O   UNL     1      63.803  10.599   5.659  1.00  0.00    -0.396 OA
HETATM   17  H   UNL     1      63.665  10.446   6.606  1.00  0.00     0.209 HD
ENDBRANCH  15  16
ENDBRANCH   3  15
TORSDOF 4
ENDMDL
MODEL 9
REMARK VINA RESULT:      -4.6      1.813      2.813
REMARK  4 active torsions:
REMARK  status: ('A' for Active; 'I' for Inactive)
REMARK    1  A    between atoms: C_1  and  O_4 
REMARK    2  A    between atoms: O_4  and  C_5 
REMARK    3  A    between atoms: C_7  and  C_13 
REMARK    4  A    between atoms: O_8  and  C_13 
ROOT
HETATM    1  C   UNL     1      64.461   8.122   4.335  1.00  0.00     0.078 A 
HETATM    2  C   UNL     1      63.305   8.801   3.934  1.00  0.00     0.046 A 
HETATM    3  C   UNL     1      62.411   8.219   3.028  1.00  0.00    -0.032 A 
HETATM    4  C   UNL     1      63.912   6.321   2.817  1.00  0.00     0.003 A 
HETATM    5  C   UNL     1      64.776   6.894   3.754  1.00  0.00     0.037 A 
HETATM    6  C   UNL     1      62.728   6.977   2.466  1.00  0.00     0.009 A 
ENDROOT
BRANCH   1   7
HETATM    7  O   UNL     1      65.357   8.623   5.252  1.00  0.00    -0.294 OA
BRANCH   7   8
HETATM    8  C   UNL     1      65.944   7.728   6.143  1.00  0.00     0.147 A 
HETATM    9  N   UNL     1      65.237   7.270   7.202  1.00  0.00    -0.347 N 
HETATM   10  C   UNL     1      65.881   6.461   8.065  1.00  0.00     0.090 A 
ATOM     11  HN  UNL     1      64.259   7.527   7.342  1.00  0.00     0.167 HD
HETATM   12  C   UNL     1      67.197   6.061   7.903  1.00  0.00     0.017 A 
HETATM   13  C   UNL     1      67.889   6.508   6.781  1.00  0.00     0.006 A 
HETATM   14  C   UNL     1      67.253   7.355   5.878  1.00  0.00     0.056 A 
ENDBRANCH   7   8
ENDBRANCH   1   7
BRANCH   3  15
HETATM   15  C   UNL     1      61.115   8.909   2.697  1.00  0.00     0.203 C 
BRANCH  15  16
HETATM   16  O   UNL     1      61.324  10.294   2.469  1.00  0.00    -0.396 OA
HETATM   17  H   UNL     1      60.482  10.713   2.232  1.00  0.00     0.209 HD
ENDBRANCH  15  16
ENDBRANCH   3  15
TORSDOF 4
ENDMDL
