MODEL 1
REMARK VINA RESULT:      -5.1      0.000      0.000
REMARK  3 active torsions:
REMARK  status: ('A' for Active; 'I' for Inactive)
REMARK    1  A    between atoms: C_8  and  C_11 
REMARK    2  A    between atoms: O_10  and  C_12 
REMARK    3  A    between atoms: C_11  and  C_12 
ROOT
HETATM    1  C   UNL     1      62.262  10.497   3.873  1.00  0.00     0.105 A 
HETATM    2  C   UNL     1      62.996   9.547   4.542  1.00  0.00     0.105 A 
HETATM    3  O   UNL     1      62.139  11.651   4.584  1.00  0.00    -0.323 OA
HETATM    4  O   UNL     1      63.429   9.982   5.756  1.00  0.00    -0.323 OA
HETATM    5  C   UNL     1      62.889  11.319   5.771  1.00  0.00     0.352 A 
HETATM    6  C   UNL     1      61.733  10.262   2.621  1.00  0.00     0.047 A 
HETATM    7  C   UNL     1      63.241   8.305   3.999  1.00  0.00     0.040 A 
HETATM    8  C   UNL     1      61.962   9.008   2.033  1.00  0.00    -0.053 A 
HETATM    9  C   UNL     1      62.716   8.036   2.732  1.00  0.00     0.010 A 
ENDROOT
BRANCH   8  10
HETATM   10  C   UNL     1      61.433   8.695   0.652  1.00  0.00     0.064 C 
BRANCH  10  11
HETATM   11  C   UNL     1      60.147   7.867   0.683  1.00  0.00     0.168 C 
BRANCH  11  12
HETATM   12  O   UNL     1      59.002   8.686   0.904  1.00  0.00    -0.401 OA
HETATM   13  H   UNL     1      59.194   9.593   0.620  1.00  0.00     0.209 HD
ENDBRANCH  11  12
ENDBRANCH  10  11
ENDBRANCH   8  10
TORSDOF 3
ENDMDL
MODEL 2
REMARK VINA RESULT:      -5.0      2.286      3.464
REMARK  3 active torsions:
REMARK  status: ('A' for Active; 'I' for Inactive)
REMARK    1  A    between atoms: C_8  and  C_11 
REMARK    2  A    between atoms: O_10  and  C_12 
REMARK    3  A    between atoms: C_11  and  C_12 
ROOT
HETATM    1  C   UNL     1      64.731   8.740   5.248  1.00  0.00     0.105 A 
HETATM    2  C   UNL     1      64.920   7.565   4.561  1.00  0.00     0.105 A 
HETATM    3  O   UNL     1      65.650   8.914   6.237  1.00  0.00    -0.323 OA
HETATM    4  O   UNL     1      65.980   6.852   5.028  1.00  0.00    -0.323 OA
HETATM    5  C   UNL     1      66.442   7.718   6.085  1.00  0.00     0.352 A 
HETATM    6  C   UNL     1      63.714   9.615   4.931  1.00  0.00     0.047 A 
HETATM    7  C   UNL     1      64.099   7.195   3.518  1.00  0.00     0.040 A 
HETATM    8  C   UNL     1      62.856   9.274   3.872  1.00  0.00    -0.053 A 
HETATM    9  C   UNL     1      63.058   8.061   3.174  1.00  0.00     0.010 A 
ENDROOT
BRANCH   8  10
HETATM   10  C   UNL     1      61.737  10.202   3.456  1.00  0.00     0.064 C 
BRANCH  10  11
HETATM   11  C   UNL     1      61.828  10.619   1.988  1.00  0.00     0.168 C 
BRANCH  11  12
HETATM   12  O   UNL     1      62.082  12.014   1.854  1.00  0.00    -0.401 OA
HETATM   13  H   UNL     1      61.242  12.500   1.888  1.00  0.00     0.209 HD
ENDBRANCH  11  12
ENDBRANCH  10  11
ENDBRANCH   8  10
TORSDOF 3
ENDMDL
MODEL 3
REMARK VINA RESULT:      -4.7      1.705      4.933
REMARK  3 active torsions:
REMARK  status: ('A' for Active; 'I' for Inactive)
REMARK    1  A    between atoms: C_8  and  C_11 
REMARK    2  A    between atoms: O_10  and  C_12 
REMARK    3  A    between atoms: C_11  and  C_12 
ROOT
HETATM    1  C   UNL     1      61.508   8.071   2.997  1.00  0.00     0.105 A 
HETATM    2  C   UNL     1      61.408   8.530   1.705  1.00  0.00     0.105 A 
HETATM    3  O   UNL     1      61.244   6.740   3.094  1.00  0.00    -0.323 OA
HETATM    4  O   UNL     1      61.072   7.547   0.827  1.00  0.00    -0.323 OA
HETATM    5  C   UNL     1      60.977   6.414   1.715  1.00  0.00     0.352 A 
HETATM    6  C   UNL     1      61.845   8.904   4.043  1.00  0.00     0.047 A 
HETATM    7  C   UNL     1      61.637   9.850   1.385  1.00  0.00     0.040 A 
HETATM    8  C   UNL     1      62.087  10.258   3.757  1.00  0.00    -0.053 A 
HETATM    9  C   UNL     1      61.979  10.720   2.424  1.00  0.00     0.010 A 
ENDROOT
BRANCH   8  10
HETATM   10  C   UNL     1      62.486  11.219   4.854  1.00  0.00     0.064 C 
BRANCH  10  11
HETATM   11  C   UNL     1      63.564  10.649   5.778  1.00  0.00     0.168 C 
BRANCH  11  12
HETATM   12  O   UNL     1      64.283  11.682   6.443  1.00  0.00    -0.401 OA
HETATM   13  H   UNL     1      65.058  11.303   6.887  1.00  0.00     0.209 HD
ENDBRANCH  11  12
ENDBRANCH  10  11
ENDBRANCH   8  10
TORSDOF 3
ENDMDL
MODEL 4
REMARK VINA RESULT:      -4.5      1.179      2.074
REMARK  3 active torsions:
REMARK  status: ('A' for Active; 'I' for Inactive)
REMARK    1  A    between atoms: C_8  and  C_11 
REMARK    2  A    between atoms: O_10  and  C_12 
REMARK    3  A    between atoms: C_11  and  C_12 
ROOT
HETATM    1  C   UNL     1      62.754   9.682   4.160  1.00  0.00     0.105 A 
HETATM    2  C   UNL     1      62.192  10.842   3.685  1.00  0.00     0.105 A 
HETATM    3  O   UNL     1      63.140   9.788   5.461  1.00  0.00    -0.323 OA
HETATM    4  O   UNL     1      62.151  11.824   4.625  1.00  0.00    -0.323 OA
HETATM    5  C   UNL     1      62.747  11.145   5.750  1.00  0.00     0.352 A 
HETATM    6  C   UNL     1      62.886   8.559   3.370  1.00  0.00     0.047 A 
HETATM    7  C   UNL     1      61.732  10.949   2.391  1.00  0.00     0.040 A 
HETATM    8  C   UNL     1      62.428   8.628   2.044  1.00  0.00    -0.053 A 
HETATM    9  C   UNL     1      61.854   9.828   1.565  1.00  0.00     0.010 A 
ENDROOT
BRANCH   8  10
HETATM   10  C   UNL     1      62.519   7.424   1.133  1.00  0.00     0.064 C 
BRANCH  10  11
HETATM   11  C   UNL     1      61.395   6.415   1.370  1.00  0.00     0.168 C 
BRANCH  11  12
HETATM   12  O   UNL     1      60.343   6.570   0.423  1.00  0.00    -0.401 OA
HETATM   13  H   UNL     1      59.489   6.555   0.883  1.00  0.00     0.209 HD
ENDBRANCH  11  12
ENDBRANCH  10  11
ENDBRANCH   8  10
TORSDOF 3
ENDMDL
MODEL 5
REMARK VINA RESULT:      -4.5      1.276      2.355
REMARK  3 active torsions:
REMARK  status: ('A' for Active; 'I' for Inactive)
REMARK    1  A    between atoms: C_8  and  C_11 
REMARK    2  A    between atoms: O_10  and  C_12 
REMARK    3  A    between atoms: C_11  and  C_12 
ROOT
HETATM    1  C   UNL     1      63.640   8.183   3.847  1.00  0.00     0.105 A 
HETATM    2  C   UNL     1      63.440   9.233   4.711  1.00  0.00     0.105 A 
HETATM    3  O   UNL     1      64.573   7.305   4.307  1.00  0.00    -0.323 OA
HETATM    4  O   UNL     1      64.220   9.149   5.822  1.00  0.00    -0.323 OA
HETATM    5  C   UNL     1      64.929   7.920   5.562  1.00  0.00     0.352 A 
HETATM    6  C   UNL     1      62.944   8.071   2.662  1.00  0.00     0.047 A 
HETATM    7  C   UNL     1      62.536  10.235   4.437  1.00  0.00     0.040 A 
HETATM    8  C   UNL     1      62.012   9.073   2.347  1.00  0.00    -0.053 A 
HETATM    9  C   UNL     1      61.817  10.151   3.242  1.00  0.00     0.010 A 
ENDROOT
BRANCH   8  10
HETATM   10  C   UNL     1      61.197   8.997   1.075  1.00  0.00     0.064 C 
BRANCH  10  11
HETATM   11  C   UNL     1      60.040   8.001   1.171  1.00  0.00     0.168 C 
BRANCH  11  12
HETATM   12  O   UNL     1      58.780   8.647   1.024  1.00  0.00    -0.401 OA
HETATM   13  H   UNL     1      58.297   8.248   0.282  1.00  0.00     0.209 HD
ENDBRANCH  11  12
ENDBRANCH  10  11
ENDBRANCH   8  10
TORSDOF 3
ENDMDL
MODEL 6
REMARK VINA RESULT:      -4.2      2.115      5.077
REMARK  3 active torsions:
REMARK  status: ('A' for Active; 'I' for Inactive)
REMARK    1  A    between atoms: C_8  and  C_11 
REMARK    2  A    between atoms: O_10  and  C_12 
REMARK    3  A    between atoms: C_11  and  C_12 
ROOT
HETATM    1  C   UNL     1      62.827   8.313   2.533  1.00  0.00     0.105 A 
HETATM    2  C   UNL     1      62.219   9.514   2.809  1.00  0.00     0.105 A 
HETATM    3  O   UNL     1      62.570   7.881   1.269  1.00  0.00    -0.323 OA
HETATM    4  O   UNL     1      61.503   9.990   1.755  1.00  0.00    -0.323 OA
HETATM    5  C   UNL     1      61.738   8.953   0.780  1.00  0.00     0.352 A 
HETATM    6  C   UNL     1      63.607   7.660   3.464  1.00  0.00     0.047 A 
HETATM    7  C   UNL     1      62.351  10.130   4.034  1.00  0.00     0.040 A 
HETATM    8  C   UNL     1      63.767   8.256   4.725  1.00  0.00    -0.053 A 
HETATM    9  C   UNL     1      63.134   9.491   4.999  1.00  0.00     0.010 A 
ENDROOT
BRANCH   8  10
HETATM   10  C   UNL     1      64.630   7.605   5.783  1.00  0.00     0.064 C 
BRANCH  10  11
HETATM   11  C   UNL     1      66.106   7.990   5.664  1.00  0.00     0.168 C 
BRANCH  11  12
HETATM   12  O   UNL     1      66.507   8.861   6.717  1.00  0.00    -0.401 OA
HETATM   13  H   UNL     1      66.172   9.754   6.542  1.00  0.00     0.209 HD
ENDBRANCH  11  12
ENDBRANCH  10  11
ENDBRANCH   8  10
TORSDOF 3
ENDMDL
MODEL 7
REMARK VINA RESULT:      -4.0      6.423      8.432
REMARK  3 active torsions:
REMARK  status: ('A' for Active; 'I' for Inactive)
REMARK    1  A    between atoms: C_8  and  C_11 
REMARK    2  A    between atoms: O_10  and  C_12 
REMARK    3  A    between atoms: C_11  and  C_12 
ROOT
HETATM    1  C   UNL     1      67.584   4.036   7.071  1.00  0.00     0.105 A 
HETATM    2  C   UNL     1      67.327   4.287   8.397  1.00  0.00     0.105 A 
HETATM    3  O   UNL     1      67.786   2.712   6.824  1.00  0.00    -0.323 OA
HETATM    4  O   UNL     1      67.332   3.156   9.152  1.00  0.00    -0.323 OA
HETATM    5  C   UNL     1      67.615   2.162   8.147  1.00  0.00     0.352 A 
HETATM    6  C   UNL     1      67.619   5.044   6.130  1.00  0.00     0.047 A 
HETATM    7  C   UNL     1      67.092   5.563   8.861  1.00  0.00     0.040 A 
HETATM    8  C   UNL     1      67.384   6.359   6.564  1.00  0.00    -0.053 A 
HETATM    9  C   UNL     1      67.123   6.606   7.932  1.00  0.00     0.010 A 
ENDROOT
BRANCH   8  10
HETATM   10  C   UNL     1      67.383   7.507   5.581  1.00  0.00     0.064 C 
BRANCH  10  11
HETATM   11  C   UNL     1      65.972   7.956   5.196  1.00  0.00     0.168 C 
BRANCH  11  12
HETATM   12  O   UNL     1      65.561   9.093   5.948  1.00  0.00    -0.401 OA
HETATM   13  H   UNL     1      65.498   8.855   6.886  1.00  0.00     0.209 HD
ENDBRANCH  11  12
ENDBRANCH  10  11
ENDBRANCH   8  10
TORSDOF 3
ENDMDL
MODEL 8
REMARK VINA RESULT:      -3.9      3.455      5.048
REMARK  3 active torsions:
REMARK  status: ('A' for Active; 'I' for Inactive)
REMARK    1  A    between atoms: C_8  and  C_11 
REMARK    2  A    between atoms: O_10  and  C_12 
REMARK    3  A    between atoms: C_11  and  C_12 
ROOT
HETATM    1  C   UNL     1      64.782   6.332   6.617  1.00  0.00     0.105 A 
HETATM    2  C   UNL     1      65.957   7.028   6.469  1.00  0.00     0.105 A 
HETATM    3  O   UNL     1      64.932   5.220   7.386  1.00  0.00    -0.323 OA
HETATM    4  O   UNL     1      66.995   6.444   7.126  1.00  0.00    -0.323 OA
HETATM    5  C   UNL     1      66.335   5.303   7.712  1.00  0.00     0.352 A 
HETATM    6  C   UNL     1      63.605   6.756   6.036  1.00  0.00     0.047 A 
HETATM    7  C   UNL     1      66.026   8.187   5.728  1.00  0.00     0.040 A 
HETATM    8  C   UNL     1      63.633   7.935   5.273  1.00  0.00    -0.053 A 
HETATM    9  C   UNL     1      64.849   8.641   5.125  1.00  0.00     0.010 A 
ENDROOT
BRANCH   8  10
HETATM   10  C   UNL     1      62.373   8.469   4.630  1.00  0.00     0.064 C 
BRANCH  10  11
HETATM   11  C   UNL     1      62.414   9.982   4.412  1.00  0.00     0.168 C 
BRANCH  11  12
HETATM   12  O   UNL     1      61.238  10.449   3.759  1.00  0.00    -0.401 OA
HETATM   13  H   UNL     1      61.288  10.240   2.813  1.00  0.00     0.209 HD
ENDBRANCH  11  12
ENDBRANCH  10  11
ENDBRANCH   8  10
TORSDOF 3
ENDMDL
MODEL 9
REMARK VINA RESULT:      -3.8      4.711      6.491
REMARK  3 active torsions:
REMARK  status: ('A' for Active; 'I' for Inactive)
REMARK    1  A    between atoms: C_8  and  C_11 
REMARK    2  A    between atoms: O_10  and  C_12 
REMARK    3  A    between atoms: C_11  and  C_12 
ROOT
HETATM    1  C   UNL     1      65.958   5.585   7.517  1.00  0.00     0.105 A 
HETATM    2  C   UNL     1      66.982   6.500   7.582  1.00  0.00     0.105 A 
HETATM    3  O   UNL     1      66.163   4.521   8.341  1.00  0.00    -0.323 OA
HETATM    4  O   UNL     1      67.957   6.129   8.454  1.00  0.00    -0.323 OA
HETATM    5  C   UNL     1      67.427   4.878   8.936  1.00  0.00     0.352 A 
HETATM    6  C   UNL     1      64.864   5.770   6.698  1.00  0.00     0.047 A 
HETATM    7  C   UNL     1      66.973   7.653   6.828  1.00  0.00     0.040 A 
HETATM    8  C   UNL     1      64.818   6.935   5.914  1.00  0.00    -0.053 A 
HETATM    9  C   UNL     1      65.878   7.868   5.986  1.00  0.00     0.010 A 
ENDROOT
BRANCH   8  10
HETATM   10  C   UNL     1      63.634   7.212   5.014  1.00  0.00     0.064 C 
BRANCH  10  11
HETATM   11  C   UNL     1      62.680   8.256   5.595  1.00  0.00     0.168 C 
BRANCH  11  12
HETATM   12  O   UNL     1      62.575   8.140   7.010  1.00  0.00    -0.401 OA
HETATM   13  H   UNL     1      62.900   7.269   7.288  1.00  0.00     0.209 HD
ENDBRANCH  11  12
ENDBRANCH  10  11
ENDBRANCH   8  10
TORSDOF 3
ENDMDL
