MODEL 1
REMARK VINA RESULT:      -5.6      0.000      0.000
REMARK  6 active torsions:
REMARK  status: ('A' for Active; 'I' for Inactive)
REMARK    1  A    between atoms: C_1  and  C_6 
REMARK    2  A    between atoms: C_2  and  O_4 
REMARK    3  A    between atoms: N_3  and  C_9 
REMARK    4  A    between atoms: O_4  and  C_5 
REMARK    5  A    between atoms: C_5  and  C_9 
REMARK    6  A    between atoms: C_6  and  O_7 
ROOT
HETATM    1  C   UNL     1      63.028  10.337   4.938  1.00  0.00    -0.002 C 
HETATM    2  C   UNL     1      63.883   9.224   4.912  1.00  0.00     0.077 C 
HETATM    3  C   UNL     1      62.102  10.510   3.888  1.00  0.00     0.012 C 
HETATM    4  C   UNL     1      63.676   8.230   3.941  1.00  0.00     0.037 C 
HETATM    5  C   UNL     1      61.986   9.568   2.868  1.00  0.00     0.001 C 
HETATM    6  C   UNL     1      62.746   8.408   2.918  1.00  0.00     0.003 C 
ENDROOT
BRANCH   2   7
HETATM    7  O   UNL     1      64.920   9.173   5.824  1.00  0.00    -0.349 OA
BRANCH   7   8
HETATM    8  C   UNL     1      65.862   8.116   5.557  1.00  0.00     0.203 C 
BRANCH   8   9
HETATM    9  C   UNL     1      66.581   7.611   6.820  1.00  0.00     0.260 C 
BRANCH   9  10
HETATM   10  N   UNL     1      65.692   6.818   7.703  1.00  0.00    -0.077 N 
HETATM   11  C   UNL     1      65.117   5.642   7.038  1.00  0.00     0.269 C 
HETATM   12  C   UNL     1      66.403   6.382   8.907  1.00  0.00     0.269 C 
HETATM   13  H   UNL     1      64.925   7.441   7.953  1.00  0.00     0.279 HD
ENDBRANCH   9  10
ENDBRANCH   8   9
ENDBRANCH   7   8
ENDBRANCH   2   7
BRANCH   1  14
HETATM   14  C   UNL     1      63.005  11.333   6.071  1.00  0.00     0.205 C 
BRANCH  14  15
HETATM   15  O   UNL     1      64.321  11.724   6.444  1.00  0.00    -0.396 OA
HETATM   16  H   UNL     1      64.641  12.406   5.834  1.00  0.00     0.209 HD
ENDBRANCH  14  15
ENDBRANCH   1  14
TORSDOF 6
ENDMDL
MODEL 2
REMARK VINA RESULT:      -5.6      0.877      1.100
REMARK  6 active torsions:
REMARK  status: ('A' for Active; 'I' for Inactive)
REMARK    1  A    between atoms: C_1  and  C_6 
REMARK    2  A    between atoms: C_2  and  O_4 
REMARK    3  A    between atoms: N_3  and  C_9 
REMARK    4  A    between atoms: O_4  and  C_5 
REMARK    5  A    between atoms: C_5  and  C_9 
REMARK    6  A    between atoms: C_6  and  O_7 
ROOT
HETATM    1  C   UNL     1      63.044  10.325   4.984  1.00  0.00    -0.002 C 
HETATM    2  C   UNL     1      63.881   9.201   4.905  1.00  0.00     0.077 C 
HETATM    3  C   UNL     1      62.088  10.536   3.969  1.00  0.00     0.012 C 
HETATM    4  C   UNL     1      63.628   8.232   3.918  1.00  0.00     0.037 C 
HETATM    5  C   UNL     1      61.925   9.620   2.932  1.00  0.00     0.001 C 
HETATM    6  C   UNL     1      62.668   8.448   2.931  1.00  0.00     0.003 C 
ENDROOT
BRANCH   2   7
HETATM    7  O   UNL     1      64.947   9.113   5.781  1.00  0.00    -0.349 OA
BRANCH   7   8
HETATM    8  C   UNL     1      65.594   7.826   5.764  1.00  0.00     0.203 C 
BRANCH   8   9
HETATM    9  C   UNL     1      67.091   7.895   6.111  1.00  0.00     0.260 C 
BRANCH   9  10
HETATM   10  N   UNL     1      67.480   6.914   7.153  1.00  0.00    -0.077 N 
HETATM   11  C   UNL     1      66.454   6.732   8.186  1.00  0.00     0.269 C 
HETATM   12  C   UNL     1      67.790   5.613   6.557  1.00  0.00     0.269 C 
HETATM   13  H   UNL     1      68.309   7.302   7.602  1.00  0.00     0.279 HD
ENDBRANCH   9  10
ENDBRANCH   8   9
ENDBRANCH   7   8
ENDBRANCH   2   7
BRANCH   1  14
HETATM   14  C   UNL     1      63.073  11.294   6.140  1.00  0.00     0.205 C 
BRANCH  14  15
HETATM   15  O   UNL     1      64.406  11.670   6.468  1.00  0.00    -0.396 OA
HETATM   16  H   UNL     1      64.688  12.395   5.890  1.00  0.00     0.209 HD
ENDBRANCH  14  15
ENDBRANCH   1  14
TORSDOF 6
ENDMDL
MODEL 3
REMARK VINA RESULT:      -4.7      2.224      2.950
REMARK  6 active torsions:
REMARK  status: ('A' for Active; 'I' for Inactive)
REMARK    1  A    between atoms: C_1  and  C_6 
REMARK    2  A    between atoms: C_2  and  O_4 
REMARK    3  A    between atoms: N_3  and  C_9 
REMARK    4  A    between atoms: O_4  and  C_5 
REMARK    5  A    between atoms: C_5  and  C_9 
REMARK    6  A    between atoms: C_6  and  O_7 
ROOT
HETATM    1  C   UNL     1      62.739  10.477   4.505  1.00  0.00    -0.002 C 
HETATM    2  C   UNL     1      63.228   9.192   4.224  1.00  0.00     0.077 C 
HETATM    3  C   UNL     1      62.035  11.173   3.500  1.00  0.00     0.012 C 
HETATM    4  C   UNL     1      62.856   8.570   3.020  1.00  0.00     0.037 C 
HETATM    5  C   UNL     1      61.770  10.583   2.266  1.00  0.00     0.001 C 
HETATM    6  C   UNL     1      62.146   9.266   2.043  1.00  0.00     0.003 C 
ENDROOT
BRANCH   2   7
HETATM    7  O   UNL     1      64.090   8.605   5.132  1.00  0.00    -0.349 OA
BRANCH   7   8
HETATM    8  C   UNL     1      63.739   7.246   5.454  1.00  0.00     0.203 C 
BRANCH   8   9
HETATM    9  C   UNL     1      62.426   7.131   6.248  1.00  0.00     0.260 C 
BRANCH   9  10
HETATM   10  N   UNL     1      61.557   6.034   5.757  1.00  0.00    -0.077 N 
HETATM   11  C   UNL     1      60.935   5.261   6.838  1.00  0.00     0.269 C 
HETATM   12  C   UNL     1      60.506   6.553   4.879  1.00  0.00     0.269 C 
HETATM   13  H   UNL     1      62.172   5.407   5.238  1.00  0.00     0.279 HD
ENDBRANCH   9  10
ENDBRANCH   8   9
ENDBRANCH   7   8
ENDBRANCH   2   7
BRANCH   1  14
HETATM   14  C   UNL     1      62.875  11.134   5.856  1.00  0.00     0.205 C 
BRANCH  14  15
HETATM   15  O   UNL     1      64.239  11.364   6.185  1.00  0.00    -0.396 OA
HETATM   16  H   UNL     1      64.633  11.961   5.530  1.00  0.00     0.209 HD
ENDBRANCH  14  15
ENDBRANCH   1  14
TORSDOF 6
ENDMDL
MODEL 4
REMARK VINA RESULT:      -4.7      1.390      1.875
REMARK  6 active torsions:
REMARK  status: ('A' for Active; 'I' for Inactive)
REMARK    1  A    between atoms: C_1  and  C_6 
REMARK    2  A    between atoms: C_2  and  O_4 
REMARK    3  A    between atoms: N_3  and  C_9 
REMARK    4  A    between atoms: O_4  and  C_5 
REMARK    5  A    between atoms: C_5  and  C_9 
REMARK    6  A    between atoms: C_6  and  O_7 
ROOT
HETATM    1  C   UNL     1      62.477   9.971   3.564  1.00  0.00    -0.002 C 
HETATM    2  C   UNL     1      63.140   8.746   3.740  1.00  0.00     0.077 C 
HETATM    3  C   UNL     1      61.864  10.242   2.324  1.00  0.00     0.012 C 
HETATM    4  C   UNL     1      63.026   7.762   2.743  1.00  0.00     0.037 C 
HETATM    5  C   UNL     1      61.857   9.295   1.302  1.00  0.00     0.001 C 
HETATM    6  C   UNL     1      62.403   8.040   1.528  1.00  0.00     0.003 C 
ENDROOT
BRANCH   2   7
HETATM    7  O   UNL     1      63.912   8.575   4.874  1.00  0.00    -0.349 OA
BRANCH   7   8
HETATM    8  C   UNL     1      64.574   7.296   4.924  1.00  0.00     0.203 C 
BRANCH   8   9
HETATM    9  C   UNL     1      64.625   6.695   6.340  1.00  0.00     0.260 C 
BRANCH   9  10
HETATM   10  N   UNL     1      65.689   7.299   7.177  1.00  0.00    -0.077 N 
HETATM   11  C   UNL     1      66.120   6.431   8.279  1.00  0.00     0.269 C 
HETATM   12  C   UNL     1      66.856   7.651   6.366  1.00  0.00     0.269 C 
HETATM   13  H   UNL     1      65.276   8.139   7.584  1.00  0.00     0.279 HD
ENDBRANCH   9  10
ENDBRANCH   8   9
ENDBRANCH   7   8
ENDBRANCH   2   7
BRANCH   1  14
HETATM   14  C   UNL     1      62.333  10.995   4.663  1.00  0.00     0.205 C 
BRANCH  14  15
HETATM   15  O   UNL     1      62.007  12.276   4.137  1.00  0.00    -0.396 OA
HETATM   16  H   UNL     1      61.359  12.177   3.423  1.00  0.00     0.209 HD
ENDBRANCH  14  15
ENDBRANCH   1  14
TORSDOF 6
ENDMDL
MODEL 5
REMARK VINA RESULT:      -4.5      2.151      3.501
REMARK  6 active torsions:
REMARK  status: ('A' for Active; 'I' for Inactive)
REMARK    1  A    between atoms: C_1  and  C_6 
REMARK    2  A    between atoms: C_2  and  O_4 
REMARK    3  A    between atoms: N_3  and  C_9 
REMARK    4  A    between atoms: O_4  and  C_5 
REMARK    5  A    between atoms: C_5  and  C_9 
REMARK    6  A    between atoms: C_6  and  O_7 
ROOT
HETATM    1  C   UNL     1      62.256   8.965   2.287  1.00  0.00    -0.002 C 
HETATM    2  C   UNL     1      62.379   8.982   3.686  1.00  0.00     0.077 C 
HETATM    3  C   UNL     1      61.912  10.158   1.619  1.00  0.00     0.012 C 
HETATM    4  C   UNL     1      62.327  10.214   4.358  1.00  0.00     0.037 C 
HETATM    5  C   UNL     1      61.753  11.354   2.316  1.00  0.00     0.001 C 
HETATM    6  C   UNL     1      62.001  11.388   3.681  1.00  0.00     0.003 C 
ENDROOT
BRANCH   2   7
HETATM    7  O   UNL     1      62.508   7.774   4.347  1.00  0.00    -0.349 OA
BRANCH   7   8
HETATM    8  C   UNL     1      62.770   7.923   5.756  1.00  0.00     0.203 C 
BRANCH   8   9
HETATM    9  C   UNL     1      63.747   6.868   6.305  1.00  0.00     0.260 C 
BRANCH   9  10
HETATM   10  N   UNL     1      64.994   7.470   6.836  1.00  0.00    -0.077 N 
HETATM   11  C   UNL     1      65.822   6.518   7.586  1.00  0.00     0.269 C 
HETATM   12  C   UNL     1      65.797   8.048   5.756  1.00  0.00     0.269 C 
HETATM   13  H   UNL     1      64.695   8.200   7.481  1.00  0.00     0.279 HD
ENDBRANCH   9  10
ENDBRANCH   8   9
ENDBRANCH   7   8
ENDBRANCH   2   7
BRANCH   1  14
HETATM   14  C   UNL     1      62.535   7.741   1.450  1.00  0.00     0.205 C 
BRANCH  14  15
HETATM   15  O   UNL     1      61.665   6.669   1.793  1.00  0.00    -0.396 OA
HETATM   16  H   UNL     1      61.132   6.920   2.563  1.00  0.00     0.209 HD
ENDBRANCH  14  15
ENDBRANCH   1  14
TORSDOF 6
ENDMDL
MODEL 6
REMARK VINA RESULT:      -4.1      2.367      3.128
REMARK  6 active torsions:
REMARK  status: ('A' for Active; 'I' for Inactive)
REMARK    1  A    between atoms: C_1  and  C_6 
REMARK    2  A    between atoms: C_2  and  O_4 
REMARK    3  A    between atoms: N_3  and  C_9 
REMARK    4  A    between atoms: O_4  and  C_5 
REMARK    5  A    between atoms: C_5  and  C_9 
REMARK    6  A    between atoms: C_6  and  O_7 
ROOT
HETATM    1  C   UNL     1      61.973   6.987   5.372  1.00  0.00    -0.002 C 
HETATM    2  C   UNL     1      63.193   7.563   5.757  1.00  0.00     0.077 C 
HETATM    3  C   UNL     1      61.305   7.498   4.240  1.00  0.00     0.012 C 
HETATM    4  C   UNL     1      63.797   8.508   4.910  1.00  0.00     0.037 C 
HETATM    5  C   UNL     1      61.866   8.516   3.471  1.00  0.00     0.001 C 
HETATM    6  C   UNL     1      63.131   8.992   3.784  1.00  0.00     0.003 C 
ENDROOT
BRANCH   2   7
HETATM    7  O   UNL     1      63.733   7.202   6.977  1.00  0.00    -0.349 OA
BRANCH   7   8
HETATM    8  C   UNL     1      65.108   6.779   6.889  1.00  0.00     0.203 C 
BRANCH   8   9
HETATM    9  C   UNL     1      65.302   5.283   7.197  1.00  0.00     0.260 C 
BRANCH   9  10
HETATM   10  N   UNL     1      66.048   5.054   8.457  1.00  0.00    -0.077 N 
HETATM   11  C   UNL     1      67.222   4.191   8.285  1.00  0.00     0.269 C 
HETATM   12  C   UNL     1      66.475   6.324   9.051  1.00  0.00     0.269 C 
HETATM   13  H   UNL     1      65.397   4.576   9.080  1.00  0.00     0.279 HD
ENDBRANCH   9  10
ENDBRANCH   8   9
ENDBRANCH   7   8
ENDBRANCH   2   7
BRANCH   1  14
HETATM   14  C   UNL     1      61.362   5.801   6.077  1.00  0.00     0.205 C 
BRANCH  14  15
HETATM   15  O   UNL     1      60.857   6.162   7.356  1.00  0.00    -0.396 OA
HETATM   16  H   UNL     1      60.360   6.992   7.285  1.00  0.00     0.209 HD
ENDBRANCH  14  15
ENDBRANCH   1  14
TORSDOF 6
ENDMDL
MODEL 7
REMARK VINA RESULT:      -3.9      3.722      5.843
REMARK  6 active torsions:
REMARK  status: ('A' for Active; 'I' for Inactive)
REMARK    1  A    between atoms: C_1  and  C_6 
REMARK    2  A    between atoms: C_2  and  O_4 
REMARK    3  A    between atoms: N_3  and  C_9 
REMARK    4  A    between atoms: O_4  and  C_5 
REMARK    5  A    between atoms: C_5  and  C_9 
REMARK    6  A    between atoms: C_6  and  O_7 
ROOT
HETATM    1  C   UNL     1      62.427   9.844   3.605  1.00  0.00    -0.002 C 
HETATM    2  C   UNL     1      62.216   8.901   2.587  1.00  0.00     0.077 C 
HETATM    3  C   UNL     1      63.245   9.494   4.699  1.00  0.00     0.012 C 
HETATM    4  C   UNL     1      62.959   7.708   2.599  1.00  0.00     0.037 C 
HETATM    5  C   UNL     1      63.888   8.259   4.751  1.00  0.00     0.001 C 
HETATM    6  C   UNL     1      63.777   7.383   3.681  1.00  0.00     0.003 C 
ENDROOT
BRANCH   2   7
HETATM    7  O   UNL     1      61.254   9.172   1.632  1.00  0.00    -0.349 OA
BRANCH   7   8
HETATM    8  C   UNL     1      61.054   8.088   0.703  1.00  0.00     0.203 C 
BRANCH   8   9
HETATM    9  C   UNL     1      59.583   7.915   0.283  1.00  0.00     0.260 C 
BRANCH   9  10
HETATM   10  N   UNL     1      58.895   6.846   1.046  1.00  0.00    -0.077 N 
HETATM   11  C   UNL     1      59.822   5.908   1.690  1.00  0.00     0.269 C 
HETATM   12  C   UNL     1      58.012   7.416   2.066  1.00  0.00     0.269 C 
HETATM   13  H   UNL     1      58.350   6.324   0.360  1.00  0.00     0.279 HD
ENDBRANCH   9  10
ENDBRANCH   8   9
ENDBRANCH   7   8
ENDBRANCH   2   7
BRANCH   1  14
HETATM   14  C   UNL     1      61.870  11.245   3.560  1.00  0.00     0.205 C 
BRANCH  14  15
HETATM   15  O   UNL     1      62.168  11.960   4.753  1.00  0.00    -0.396 OA
HETATM   16  H   UNL     1      61.413  12.519   4.993  1.00  0.00     0.209 HD
ENDBRANCH  14  15
ENDBRANCH   1  14
TORSDOF 6
ENDMDL
MODEL 8
REMARK VINA RESULT:      -3.9      9.901     11.787
REMARK  6 active torsions:
REMARK  status: ('A' for Active; 'I' for Inactive)
REMARK    1  A    between atoms: C_1  and  C_6 
REMARK    2  A    between atoms: C_2  and  O_4 
REMARK    3  A    between atoms: N_3  and  C_9 
REMARK    4  A    between atoms: O_4  and  C_5 
REMARK    5  A    between atoms: C_5  and  C_9 
REMARK    6  A    between atoms: C_6  and  O_7 
ROOT
HETATM    1  C   UNL     1      56.815   2.054  13.343  1.00  0.00    -0.002 C 
HETATM    2  C   UNL     1      57.815   2.383  12.415  1.00  0.00     0.077 C 
HETATM    3  C   UNL     1      57.038   0.984  14.235  1.00  0.00     0.012 C 
HETATM    4  C   UNL     1      59.069   1.756  12.514  1.00  0.00     0.037 C 
HETATM    5  C   UNL     1      58.250   0.297  14.246  1.00  0.00     0.001 C 
HETATM    6  C   UNL     1      59.279   0.711  13.412  1.00  0.00     0.003 C 
ENDROOT
BRANCH   2   7
HETATM    7  O   UNL     1      57.509   3.286  11.414  1.00  0.00    -0.349 OA
BRANCH   7   8
HETATM    8  C   UNL     1      58.553   3.421  10.430  1.00  0.00     0.203 C 
BRANCH   8   9
HETATM    9  C   UNL     1      58.119   4.225   9.192  1.00  0.00     0.260 C 
BRANCH   9  10
HETATM   10  N   UNL     1      59.109   5.261   8.810  1.00  0.00    -0.077 N 
HETATM   11  C   UNL     1      59.932   4.878   7.658  1.00  0.00     0.269 C 
HETATM   12  C   UNL     1      58.447   6.534   8.518  1.00  0.00     0.269 C 
HETATM   13  H   UNL     1      59.726   5.362   9.616  1.00  0.00     0.279 HD
ENDBRANCH   9  10
ENDBRANCH   8   9
ENDBRANCH   7   8
ENDBRANCH   2   7
BRANCH   1  14
HETATM   14  C   UNL     1      55.528   2.830  13.479  1.00  0.00     0.205 C 
BRANCH  14  15
HETATM   15  O   UNL     1      55.252   3.142  14.839  1.00  0.00    -0.396 OA
HETATM   16  H   UNL     1      54.910   4.047  14.900  1.00  0.00     0.209 HD
ENDBRANCH  14  15
ENDBRANCH   1  14
TORSDOF 6
ENDMDL
MODEL 9
REMARK VINA RESULT:      -3.8      1.657      1.941
REMARK  6 active torsions:
REMARK  status: ('A' for Active; 'I' for Inactive)
REMARK    1  A    between atoms: C_1  and  C_6 
REMARK    2  A    between atoms: C_2  and  O_4 
REMARK    3  A    between atoms: N_3  and  C_9 
REMARK    4  A    between atoms: O_4  and  C_5 
REMARK    5  A    between atoms: C_5  and  C_9 
REMARK    6  A    between atoms: C_6  and  O_7 
ROOT
HETATM    1  C   UNL     1      62.533   8.983   4.741  1.00  0.00    -0.002 C 
HETATM    2  C   UNL     1      62.676   7.843   5.548  1.00  0.00     0.077 C 
HETATM    3  C   UNL     1      61.686   8.920   3.616  1.00  0.00     0.012 C 
HETATM    4  C   UNL     1      61.844   6.735   5.313  1.00  0.00     0.037 C 
HETATM    5  C   UNL     1      60.951   7.771   3.331  1.00  0.00     0.001 C 
HETATM    6  C   UNL     1      61.000   6.694   4.205  1.00  0.00     0.003 C 
ENDROOT
BRANCH   2   7
HETATM    7  O   UNL     1      63.660   7.846   6.519  1.00  0.00    -0.349 OA
BRANCH   7   8
HETATM    8  C   UNL     1      64.852   7.140   6.123  1.00  0.00     0.203 C 
BRANCH   8   9
HETATM    9  C   UNL     1      65.100   5.861   6.943  1.00  0.00     0.260 C 
BRANCH   9  10
HETATM   10  N   UNL     1      66.461   5.817   7.530  1.00  0.00    -0.077 N 
HETATM   11  C   UNL     1      67.468   6.496   6.707  1.00  0.00     0.269 C 
HETATM   12  C   UNL     1      66.471   6.403   8.872  1.00  0.00     0.269 C 
HETATM   13  H   UNL     1      66.709   4.829   7.576  1.00  0.00     0.279 HD
ENDBRANCH   9  10
ENDBRANCH   8   9
ENDBRANCH   7   8
ENDBRANCH   2   7
BRANCH   1  14
HETATM   14  C   UNL     1      63.196  10.302   5.053  1.00  0.00     0.205 C 
BRANCH  14  15
HETATM   15  O   UNL     1      62.958  10.696   6.399  1.00  0.00    -0.396 OA
HETATM   16  H   UNL     1      62.830  11.656   6.437  1.00  0.00     0.209 HD
ENDBRANCH  14  15
ENDBRANCH   1  14
TORSDOF 6
ENDMDL
