MODEL 1
REMARK VINA RESULT:      -4.8      0.000      0.000
REMARK  4 active torsions:
REMARK  status: ('A' for Active; 'I' for Inactive)
REMARK    1  A    between atoms: N_4  and  C_12 
REMARK    2  A    between atoms: C_5  and  O_10 
REMARK    3  A    between atoms: O_10  and  C_11 
REMARK    4  A    between atoms: C_11  and  C_12 
ROOT
HETATM    1  N   UNL     1      60.355   8.519   0.968  1.00  0.00    -0.191 NA
HETATM    2  C   UNL     1      61.134   8.617   1.821  1.00  0.00     0.099 C 
HETATM    3  C   UNL     1      62.107   8.744   2.868  1.00  0.00     0.044 A 
HETATM    4  C   UNL     1      64.038   9.029   4.892  1.00  0.00     0.068 A 
HETATM    5  C   UNL     1      62.032   9.807   3.773  1.00  0.00     0.025 A 
HETATM    6  C   UNL     1      63.144   7.817   2.984  1.00  0.00     0.025 A 
HETATM    7  C   UNL     1      62.998   9.952   4.778  1.00  0.00     0.038 A 
HETATM    8  C   UNL     1      64.105   7.965   3.990  1.00  0.00     0.038 A 
ENDROOT
BRANCH   4   9
HETATM    9  O   UNL     1      65.043   9.057   5.820  1.00  0.00    -0.350 OA
BRANCH   9  10
HETATM   10  C   UNL     1      66.099   8.103   5.651  1.00  0.00     0.203 C 
BRANCH  10  11
HETATM   11  C   UNL     1      66.630   7.687   7.036  1.00  0.00     0.260 C 
BRANCH  11  12
HETATM   12  N   UNL     1      65.712   6.822   7.806  1.00  0.00    -0.077 N 
HETATM   13  C   UNL     1      65.214   5.689   7.023  1.00  0.00     0.269 C 
HETATM   14  C   UNL     1      66.379   6.311   9.009  1.00  0.00     0.269 C 
HETATM   15  H   UNL     1      64.915   7.405   8.062  1.00  0.00     0.279 HD
ENDBRANCH  11  12
ENDBRANCH  10  11
ENDBRANCH   9  10
ENDBRANCH   4   9
TORSDOF 4
ENDMDL
MODEL 2
REMARK VINA RESULT:      -4.7      3.745      6.382
REMARK  4 active torsions:
REMARK  status: ('A' for Active; 'I' for Inactive)
REMARK    1  A    between atoms: N_4  and  C_12 
REMARK    2  A    between atoms: C_5  and  O_10 
REMARK    3  A    between atoms: O_10  and  C_11 
REMARK    4  A    between atoms: C_11  and  C_12 
ROOT
HETATM    1  N   UNL     1      63.187  11.423   6.544  1.00  0.00    -0.191 NA
HETATM    2  C   UNL     1      62.937  10.997   5.495  1.00  0.00     0.099 C 
HETATM    3  C   UNL     1      62.618  10.464   4.202  1.00  0.00     0.044 A 
HETATM    4  C   UNL     1      61.943   9.415   1.682  1.00  0.00     0.068 A 
HETATM    5  C   UNL     1      62.024  11.278   3.233  1.00  0.00     0.025 A 
HETATM    6  C   UNL     1      62.884   9.126   3.904  1.00  0.00     0.025 A 
HETATM    7  C   UNL     1      61.682  10.754   1.979  1.00  0.00     0.038 A 
HETATM    8  C   UNL     1      62.542   8.608   2.651  1.00  0.00     0.038 A 
ENDROOT
BRANCH   4   9
HETATM    9  O   UNL     1      61.655   8.780   0.504  1.00  0.00    -0.350 OA
BRANCH   9  10
HETATM   10  C   UNL     1      60.822   7.617   0.590  1.00  0.00     0.203 C 
BRANCH  10  11
HETATM   11  C   UNL     1      59.344   8.053   0.567  1.00  0.00     0.260 C 
BRANCH  11  12
HETATM   12  N   UNL     1      58.588   7.706   1.787  1.00  0.00    -0.077 N 
HETATM   13  C   UNL     1      57.319   7.034   1.493  1.00  0.00     0.269 C 
HETATM   14  C   UNL     1      59.391   6.841   2.659  1.00  0.00     0.269 C 
HETATM   15  H   UNL     1      58.377   8.587   2.256  1.00  0.00     0.279 HD
ENDBRANCH  11  12
ENDBRANCH  10  11
ENDBRANCH   9  10
ENDBRANCH   4   9
TORSDOF 4
ENDMDL
MODEL 3
REMARK VINA RESULT:      -4.4      0.910      1.708
REMARK  4 active torsions:
REMARK  status: ('A' for Active; 'I' for Inactive)
REMARK    1  A    between atoms: N_4  and  C_12 
REMARK    2  A    between atoms: C_5  and  O_10 
REMARK    3  A    between atoms: O_10  and  C_11 
REMARK    4  A    between atoms: C_11  and  C_12 
ROOT
HETATM    1  N   UNL     1      60.626   8.524   1.324  1.00  0.00    -0.191 NA
HETATM    2  C   UNL     1      61.461   8.592   2.126  1.00  0.00     0.099 C 
HETATM    3  C   UNL     1      62.485   8.671   3.128  1.00  0.00     0.044 A 
HETATM    4  C   UNL     1      64.467   8.793   5.119  1.00  0.00     0.068 A 
HETATM    5  C   UNL     1      63.461   7.674   3.216  1.00  0.00     0.025 A 
HETATM    6  C   UNL     1      62.509   9.737   4.030  1.00  0.00     0.025 A 
HETATM    7  C   UNL     1      64.445   7.732   4.213  1.00  0.00     0.038 A 
HETATM    8  C   UNL     1      63.493   9.790   5.022  1.00  0.00     0.038 A 
ENDROOT
BRANCH   4   9
HETATM    9  O   UNL     1      65.365   8.966   6.137  1.00  0.00    -0.350 OA
BRANCH   9  10
HETATM   10  C   UNL     1      66.519   8.115   6.125  1.00  0.00     0.203 C 
BRANCH  10  11
HETATM   11  C   UNL     1      66.471   7.184   7.352  1.00  0.00     0.260 C 
BRANCH  11  12
HETATM   12  N   UNL     1      66.561   5.746   7.030  1.00  0.00    -0.077 N 
HETATM   13  C   UNL     1      65.247   5.103   6.943  1.00  0.00     0.269 C 
HETATM   14  C   UNL     1      67.270   5.549   5.760  1.00  0.00     0.269 C 
HETATM   15  H   UNL     1      67.076   5.311   7.796  1.00  0.00     0.279 HD
ENDBRANCH  11  12
ENDBRANCH  10  11
ENDBRANCH   9  10
ENDBRANCH   4   9
TORSDOF 4
ENDMDL
MODEL 4
REMARK VINA RESULT:      -4.1      1.511      6.432
REMARK  4 active torsions:
REMARK  status: ('A' for Active; 'I' for Inactive)
REMARK    1  A    between atoms: N_4  and  C_12 
REMARK    2  A    between atoms: C_5  and  O_10 
REMARK    3  A    between atoms: O_10  and  C_11 
REMARK    4  A    between atoms: C_11  and  C_12 
ROOT
HETATM    1  N   UNL     1      66.881   6.061   9.397  1.00  0.00    -0.191 NA
HETATM    2  C   UNL     1      66.370   6.429   8.424  1.00  0.00     0.099 C 
HETATM    3  C   UNL     1      65.729   6.893   7.227  1.00  0.00     0.044 A 
HETATM    4  C   UNL     1      64.456   7.843   4.907  1.00  0.00     0.068 A 
HETATM    5  C   UNL     1      66.337   7.874   6.438  1.00  0.00     0.025 A 
HETATM    6  C   UNL     1      64.487   6.380   6.847  1.00  0.00     0.025 A 
HETATM    7  C   UNL     1      65.700   8.352   5.285  1.00  0.00     0.038 A 
HETATM    8  C   UNL     1      63.856   6.859   5.695  1.00  0.00     0.038 A 
ENDROOT
BRANCH   4   9
HETATM    9  O   UNL     1      63.728   8.225   3.813  1.00  0.00    -0.350 OA
BRANCH   9  10
HETATM   10  C   UNL     1      62.845   9.340   3.988  1.00  0.00     0.203 C 
BRANCH  10  11
HETATM   11  C   UNL     1      61.526   9.061   3.242  1.00  0.00     0.260 C 
BRANCH  11  12
HETATM   12  N   UNL     1      61.361   9.824   1.988  1.00  0.00    -0.077 N 
HETATM   13  C   UNL     1      61.803  11.215   2.112  1.00  0.00     0.269 C 
HETATM   14  C   UNL     1      62.107   9.184   0.899  1.00  0.00     0.269 C 
HETATM   15  H   UNL     1      60.362   9.826   1.782  1.00  0.00     0.279 HD
ENDBRANCH  11  12
ENDBRANCH  10  11
ENDBRANCH   9  10
ENDBRANCH   4   9
TORSDOF 4
ENDMDL
MODEL 5
REMARK VINA RESULT:      -4.1      1.719      2.247
REMARK  4 active torsions:
REMARK  status: ('A' for Active; 'I' for Inactive)
REMARK    1  A    between atoms: N_4  and  C_12 
REMARK    2  A    between atoms: C_5  and  O_10 
REMARK    3  A    between atoms: O_10  and  C_11 
REMARK    4  A    between atoms: C_11  and  C_12 
ROOT
HETATM    1  N   UNL     1      61.704  11.851   2.864  1.00  0.00    -0.191 NA
HETATM    2  C   UNL     1      62.070  10.825   3.258  1.00  0.00     0.099 C 
HETATM    3  C   UNL     1      62.535   9.556   3.743  1.00  0.00     0.044 A 
HETATM    4  C   UNL     1      63.494   7.091   4.695  1.00  0.00     0.068 A 
HETATM    5  C   UNL     1      62.742   9.359   5.111  1.00  0.00     0.025 A 
HETATM    6  C   UNL     1      62.798   8.514   2.852  1.00  0.00     0.025 A 
HETATM    7  C   UNL     1      63.226   8.132   5.585  1.00  0.00     0.038 A 
HETATM    8  C   UNL     1      63.280   7.291   3.330  1.00  0.00     0.038 A 
ENDROOT
BRANCH   4   9
HETATM    9  O   UNL     1      63.972   5.851   5.025  1.00  0.00    -0.350 OA
BRANCH   9  10
HETATM   10  C   UNL     1      65.387   5.745   5.231  1.00  0.00     0.203 C 
BRANCH  10  11
HETATM   11  C   UNL     1      65.657   5.424   6.714  1.00  0.00     0.260 C 
BRANCH  11  12
HETATM   12  N   UNL     1      66.672   6.289   7.349  1.00  0.00    -0.077 N 
HETATM   13  C   UNL     1      66.658   7.657   6.823  1.00  0.00     0.269 C 
HETATM   14  C   UNL     1      66.468   6.338   8.801  1.00  0.00     0.269 C 
HETATM   15  H   UNL     1      67.580   5.877   7.131  1.00  0.00     0.279 HD
ENDBRANCH  11  12
ENDBRANCH  10  11
ENDBRANCH   9  10
ENDBRANCH   4   9
TORSDOF 4
ENDMDL
MODEL 6
REMARK VINA RESULT:      -4.0      2.287      2.790
REMARK  4 active torsions:
REMARK  status: ('A' for Active; 'I' for Inactive)
REMARK    1  A    between atoms: N_4  and  C_12 
REMARK    2  A    between atoms: C_5  and  O_10 
REMARK    3  A    between atoms: O_10  and  C_11 
REMARK    4  A    between atoms: C_11  and  C_12 
ROOT
HETATM    1  N   UNL     1      60.196   5.745   3.636  1.00  0.00    -0.191 NA
HETATM    2  C   UNL     1      61.119   6.312   4.048  1.00  0.00     0.099 C 
HETATM    3  C   UNL     1      62.270   7.004   4.554  1.00  0.00     0.044 A 
HETATM    4  C   UNL     1      64.554   8.337   5.509  1.00  0.00     0.068 A 
HETATM    5  C   UNL     1      62.774   8.119   3.877  1.00  0.00     0.025 A 
HETATM    6  C   UNL     1      62.904   6.563   5.717  1.00  0.00     0.025 A 
HETATM    7  C   UNL     1      63.916   8.779   4.350  1.00  0.00     0.038 A 
HETATM    8  C   UNL     1      64.043   7.227   6.186  1.00  0.00     0.038 A 
ENDROOT
BRANCH   4   9
HETATM    9  O   UNL     1      65.674   8.886   6.073  1.00  0.00    -0.350 OA
BRANCH   9  10
HETATM   10  C   UNL     1      66.767   7.993   6.325  1.00  0.00     0.203 C 
BRANCH  10  11
HETATM   11  C   UNL     1      67.522   7.736   5.007  1.00  0.00     0.260 C 
BRANCH  11  12
HETATM   12  N   UNL     1      67.676   6.309   4.660  1.00  0.00    -0.077 N 
HETATM   13  C   UNL     1      67.461   5.423   5.807  1.00  0.00     0.269 C 
HETATM   14  C   UNL     1      66.741   5.937   3.592  1.00  0.00     0.269 C 
HETATM   15  H   UNL     1      68.639   6.191   4.347  1.00  0.00     0.279 HD
ENDBRANCH  11  12
ENDBRANCH  10  11
ENDBRANCH   9  10
ENDBRANCH   4   9
TORSDOF 4
ENDMDL
MODEL 7
REMARK VINA RESULT:      -3.9      1.570      2.567
REMARK  4 active torsions:
REMARK  status: ('A' for Active; 'I' for Inactive)
REMARK    1  A    between atoms: N_4  and  C_12 
REMARK    2  A    between atoms: C_5  and  O_10 
REMARK    3  A    between atoms: O_10  and  C_11 
REMARK    4  A    between atoms: C_11  and  C_12 
ROOT
HETATM    1  N   UNL     1      61.357   9.125   2.366  1.00  0.00    -0.191 NA
HETATM    2  C   UNL     1      62.279   8.686   2.914  1.00  0.00     0.099 C 
HETATM    3  C   UNL     1      63.413   8.137   3.602  1.00  0.00     0.044 A 
HETATM    4  C   UNL     1      65.603   7.030   4.974  1.00  0.00     0.068 A 
HETATM    5  C   UNL     1      63.980   6.933   3.174  1.00  0.00     0.025 A 
HETATM    6  C   UNL     1      63.950   8.793   4.711  1.00  0.00     0.025 A 
HETATM    7  C   UNL     1      65.068   6.378   3.862  1.00  0.00     0.038 A 
HETATM    8  C   UNL     1      65.037   8.235   5.393  1.00  0.00     0.038 A 
ENDROOT
BRANCH   4   9
HETATM    9  O   UNL     1      66.655   6.595   5.734  1.00  0.00    -0.350 OA
BRANCH   9  10
HETATM   10  C   UNL     1      66.587   5.245   6.210  1.00  0.00     0.203 C 
BRANCH  10  11
HETATM   11  C   UNL     1      65.649   5.188   7.431  1.00  0.00     0.260 C 
BRANCH  11  12
HETATM   12  N   UNL     1      66.344   5.051   8.727  1.00  0.00    -0.077 N 
HETATM   13  C   UNL     1      67.550   4.224   8.637  1.00  0.00     0.269 C 
HETATM   14  C   UNL     1      66.713   6.371   9.252  1.00  0.00     0.269 C 
HETATM   15  H   UNL     1      65.690   4.588   9.358  1.00  0.00     0.279 HD
ENDBRANCH  11  12
ENDBRANCH  10  11
ENDBRANCH   9  10
ENDBRANCH   4   9
TORSDOF 4
ENDMDL
MODEL 8
REMARK VINA RESULT:      -3.9      1.688      2.636
REMARK  4 active torsions:
REMARK  status: ('A' for Active; 'I' for Inactive)
REMARK    1  A    between atoms: N_4  and  C_12 
REMARK    2  A    between atoms: C_5  and  O_10 
REMARK    3  A    between atoms: O_10  and  C_11 
REMARK    4  A    between atoms: C_11  and  C_12 
ROOT
HETATM    1  N   UNL     1      57.499   7.270   0.998  1.00  0.00    -0.191 NA
HETATM    2  C   UNL     1      58.535   7.560   1.428  1.00  0.00     0.099 C 
HETATM    3  C   UNL     1      59.822   7.906   1.960  1.00  0.00     0.044 A 
HETATM    4  C   UNL     1      62.364   8.542   2.981  1.00  0.00     0.068 A 
HETATM    5  C   UNL     1      60.791   8.487   1.136  1.00  0.00     0.025 A 
HETATM    6  C   UNL     1      60.124   7.654   3.300  1.00  0.00     0.025 A 
HETATM    7  C   UNL     1      62.060   8.798   1.643  1.00  0.00     0.038 A 
HETATM    8  C   UNL     1      61.391   7.968   3.802  1.00  0.00     0.038 A 
ENDROOT
BRANCH   4   9
HETATM    9  O   UNL     1      63.560   8.792   3.598  1.00  0.00    -0.350 OA
BRANCH   9  10
HETATM   10  C   UNL     1      63.581   8.675   5.026  1.00  0.00     0.203 C 
BRANCH  10  11
HETATM   11  C   UNL     1      65.002   8.287   5.479  1.00  0.00     0.260 C 
BRANCH  11  12
HETATM   12  N   UNL     1      65.048   7.462   6.704  1.00  0.00    -0.077 N 
HETATM   13  C   UNL     1      64.460   6.133   6.511  1.00  0.00     0.269 C 
HETATM   14  C   UNL     1      66.432   7.306   7.165  1.00  0.00     0.269 C 
HETATM   15  H   UNL     1      64.493   7.954   7.404  1.00  0.00     0.279 HD
ENDBRANCH  11  12
ENDBRANCH  10  11
ENDBRANCH   9  10
ENDBRANCH   4   9
TORSDOF 4
ENDMDL
MODEL 9
REMARK VINA RESULT:      -3.7      4.631      6.747
REMARK  4 active torsions:
REMARK  status: ('A' for Active; 'I' for Inactive)
REMARK    1  A    between atoms: N_4  and  C_12 
REMARK    2  A    between atoms: C_5  and  O_10 
REMARK    3  A    between atoms: O_10  and  C_11 
REMARK    4  A    between atoms: C_11  and  C_12 
ROOT
HETATM    1  N   UNL     1      58.496   4.423   9.786  1.00  0.00    -0.191 NA
HETATM    2  C   UNL     1      58.834   4.855   8.766  1.00  0.00     0.099 C 
HETATM    3  C   UNL     1      59.251   5.404   7.507  1.00  0.00     0.044 A 
HETATM    4  C   UNL     1      60.077   6.523   5.063  1.00  0.00     0.068 A 
HETATM    5  C   UNL     1      60.610   5.493   7.193  1.00  0.00     0.025 A 
HETATM    6  C   UNL     1      58.304   5.865   6.590  1.00  0.00     0.025 A 
HETATM    7  C   UNL     1      61.022   6.057   5.978  1.00  0.00     0.038 A 
HETATM    8  C   UNL     1      58.720   6.426   5.378  1.00  0.00     0.038 A 
ENDROOT
BRANCH   4   9
HETATM    9  O   UNL     1      60.345   7.096   3.849  1.00  0.00    -0.350 OA
BRANCH   9  10
HETATM   10  C   UNL     1      61.602   7.774   3.724  1.00  0.00     0.203 C 
BRANCH  10  11
HETATM   11  C   UNL     1      61.475   8.877   2.655  1.00  0.00     0.260 C 
BRANCH  11  12
HETATM   12  N   UNL     1      61.417  10.249   3.199  1.00  0.00    -0.077 N 
HETATM   13  C   UNL     1      62.277  10.428   4.372  1.00  0.00     0.269 C 
HETATM   14  C   UNL     1      61.806  11.223   2.173  1.00  0.00     0.269 C 
HETATM   15  H   UNL     1      60.451  10.404   3.488  1.00  0.00     0.279 HD
ENDBRANCH  11  12
ENDBRANCH  10  11
ENDBRANCH   9  10
ENDBRANCH   4   9
TORSDOF 4
ENDMDL
