MODEL 1
REMARK VINA RESULT:      -5.0      0.000      0.000
REMARK  6 active torsions:
REMARK  status: ('A' for Active; 'I' for Inactive)
REMARK    1  A    between atoms: N_1  and  C_11 
REMARK    2  A    between atoms: C_2  and  O_8 
REMARK    3  A    between atoms: C_3  and  C_12 
REMARK    4  A    between atoms: O_8  and  C_9 
REMARK    5  A    between atoms: C_9  and  C_11 
REMARK    6  A    between atoms: O_10  and  C_12 
ROOT
HETATM    1  C   UNL     1      63.522   8.674   5.190  1.00  0.00     0.068 A 
HETATM    2  C   UNL     1      62.302  10.010   3.019  1.00  0.00    -0.035 A 
HETATM    3  C   UNL     1      62.991   9.949   5.359  1.00  0.00     0.037 A 
HETATM    4  C   UNL     1      63.405   8.051   3.940  1.00  0.00     0.037 A 
HETATM    5  C   UNL     1      62.389  10.615   4.282  1.00  0.00     0.012 A 
HETATM    6  C   UNL     1      62.779   8.704   2.874  1.00  0.00     0.012 A 
ENDROOT
BRANCH   1   7
HETATM    7  O   UNL     1      64.209   7.946   6.124  1.00  0.00    -0.350 OA
BRANCH   7   8
HETATM    8  C   UNL     1      65.491   7.415   5.760  1.00  0.00     0.203 C 
BRANCH   8   9
HETATM    9  C   UNL     1      66.552   8.042   6.688  1.00  0.00     0.260 C 
BRANCH   9  10
HETATM   10  N   UNL     1      67.382   7.085   7.458  1.00  0.00    -0.077 N 
HETATM   11  C   UNL     1      66.650   6.633   8.646  1.00  0.00     0.269 C 
HETATM   12  C   UNL     1      67.827   5.953   6.650  1.00  0.00     0.269 C 
HETATM   13  H   UNL     1      68.226   7.575   7.753  1.00  0.00     0.279 HD
ENDBRANCH   9  10
ENDBRANCH   8   9
ENDBRANCH   7   8
ENDBRANCH   1   7
BRANCH   2  14
HETATM   14  C   UNL     1      61.662  10.748   1.869  1.00  0.00     0.202 C 
BRANCH  14  15
HETATM   15  O   UNL     1      62.061  12.114   1.832  1.00  0.00    -0.396 OA
HETATM   16  H   UNL     1      62.252  12.419   2.732  1.00  0.00     0.209 HD
ENDBRANCH  14  15
ENDBRANCH   2  14
TORSDOF 6
ENDMDL
MODEL 2
REMARK VINA RESULT:      -4.6      1.450      1.590
REMARK  6 active torsions:
REMARK  status: ('A' for Active; 'I' for Inactive)
REMARK    1  A    between atoms: N_1  and  C_11 
REMARK    2  A    between atoms: C_2  and  O_8 
REMARK    3  A    between atoms: C_3  and  C_12 
REMARK    4  A    between atoms: O_8  and  C_9 
REMARK    5  A    between atoms: C_9  and  C_11 
REMARK    6  A    between atoms: O_10  and  C_12 
ROOT
HETATM    1  C   UNL     1      64.501   8.782   5.162  1.00  0.00     0.068 A 
HETATM    2  C   UNL     1      62.631   8.343   3.089  1.00  0.00    -0.035 A 
HETATM    3  C   UNL     1      63.433   9.655   4.983  1.00  0.00     0.037 A 
HETATM    4  C   UNL     1      64.610   7.663   4.325  1.00  0.00     0.037 A 
HETATM    5  C   UNL     1      62.506   9.441   3.953  1.00  0.00     0.012 A 
HETATM    6  C   UNL     1      63.670   7.434   3.316  1.00  0.00     0.012 A 
ENDROOT
BRANCH   1   7
HETATM    7  O   UNL     1      65.522   8.915   6.065  1.00  0.00    -0.350 OA
BRANCH   7   8
HETATM    8  C   UNL     1      66.568   7.934   6.055  1.00  0.00     0.203 C 
BRANCH   8   9
HETATM    9  C   UNL     1      66.670   7.325   7.468  1.00  0.00     0.260 C 
BRANCH   9  10
HETATM   10  N   UNL     1      67.838   6.446   7.709  1.00  0.00    -0.077 N 
HETATM   11  C   UNL     1      67.867   6.028   9.115  1.00  0.00     0.269 C 
HETATM   12  C   UNL     1      67.866   5.292   6.815  1.00  0.00     0.269 C 
HETATM   13  H   UNL     1      68.679   6.986   7.506  1.00  0.00     0.279 HD
ENDBRANCH   9  10
ENDBRANCH   8   9
ENDBRANCH   7   8
ENDBRANCH   1   7
BRANCH   2  14
HETATM   14  C   UNL     1      61.631   8.136   1.979  1.00  0.00     0.202 C 
BRANCH  14  15
HETATM   15  O   UNL     1      60.757   9.251   1.842  1.00  0.00    -0.396 OA
HETATM   16  H   UNL     1      59.869   9.004   2.141  1.00  0.00     0.209 HD
ENDBRANCH  14  15
ENDBRANCH   2  14
TORSDOF 6
ENDMDL
MODEL 3
REMARK VINA RESULT:      -4.5      3.680      5.438
REMARK  6 active torsions:
REMARK  status: ('A' for Active; 'I' for Inactive)
REMARK    1  A    between atoms: N_1  and  C_11 
REMARK    2  A    between atoms: C_2  and  O_8 
REMARK    3  A    between atoms: C_3  and  C_12 
REMARK    4  A    between atoms: O_8  and  C_9 
REMARK    5  A    between atoms: C_9  and  C_11 
REMARK    6  A    between atoms: O_10  and  C_12 
ROOT
HETATM    1  C   UNL     1      62.659   8.552   2.827  1.00  0.00     0.068 A 
HETATM    2  C   UNL     1      62.950  10.369   4.972  1.00  0.00    -0.035 A 
HETATM    3  C   UNL     1      62.005   9.780   2.801  1.00  0.00     0.037 A 
HETATM    4  C   UNL     1      63.493   8.251   3.912  1.00  0.00     0.037 A 
HETATM    5  C   UNL     1      62.145  10.681   3.866  1.00  0.00     0.012 A 
HETATM    6  C   UNL     1      63.655   9.162   4.961  1.00  0.00     0.012 A 
ENDROOT
BRANCH   1   7
HETATM    7  O   UNL     1      62.545   7.547   1.904  1.00  0.00    -0.350 OA
BRANCH   7   8
HETATM    8  C   UNL     1      61.231   7.183   1.457  1.00  0.00     0.203 C 
BRANCH   8   9
HETATM    9  C   UNL     1      60.665   6.132   2.435  1.00  0.00     0.260 C 
BRANCH   9  10
HETATM   10  N   UNL     1      59.803   6.659   3.519  1.00  0.00    -0.077 N 
HETATM   11  C   UNL     1      58.439   6.144   3.367  1.00  0.00     0.269 C 
HETATM   12  C   UNL     1      60.332   6.364   4.849  1.00  0.00     0.269 C 
HETATM   13  H   UNL     1      59.787   7.675   3.437  1.00  0.00     0.279 HD
ENDBRANCH   9  10
ENDBRANCH   8   9
ENDBRANCH   7   8
ENDBRANCH   1   7
BRANCH   2  14
HETATM   14  C   UNL     1      63.078  11.346   6.114  1.00  0.00     0.202 C 
BRANCH  14  15
HETATM   15  O   UNL     1      64.437  11.541   6.491  1.00  0.00    -0.396 OA
HETATM   16  H   UNL     1      64.727  10.802   7.048  1.00  0.00     0.209 HD
ENDBRANCH  14  15
ENDBRANCH   2  14
TORSDOF 6
ENDMDL
MODEL 4
REMARK VINA RESULT:      -3.9      1.913      2.265
REMARK  6 active torsions:
REMARK  status: ('A' for Active; 'I' for Inactive)
REMARK    1  A    between atoms: N_1  and  C_11 
REMARK    2  A    between atoms: C_2  and  O_8 
REMARK    3  A    between atoms: C_3  and  C_12 
REMARK    4  A    between atoms: O_8  and  C_9 
REMARK    5  A    between atoms: C_9  and  C_11 
REMARK    6  A    between atoms: O_10  and  C_12 
ROOT
HETATM    1  C   UNL     1      63.431   7.376   3.505  1.00  0.00     0.068 A 
HETATM    2  C   UNL     1      62.321   9.955   3.182  1.00  0.00    -0.035 A 
HETATM    3  C   UNL     1      63.428   8.278   4.565  1.00  0.00     0.037 A 
HETATM    4  C   UNL     1      62.840   7.754   2.291  1.00  0.00     0.037 A 
HETATM    5  C   UNL     1      62.880   9.558   4.406  1.00  0.00     0.012 A 
HETATM    6  C   UNL     1      62.270   9.022   2.141  1.00  0.00     0.012 A 
ENDROOT
BRANCH   1   7
HETATM    7  O   UNL     1      64.004   6.133   3.493  1.00  0.00    -0.350 OA
BRANCH   7   8
HETATM    8  C   UNL     1      63.624   5.201   4.515  1.00  0.00     0.203 C 
BRANCH   8   9
HETATM    9  C   UNL     1      64.905   4.717   5.225  1.00  0.00     0.260 C 
BRANCH   9  10
HETATM   10  N   UNL     1      65.953   5.744   5.436  1.00  0.00    -0.077 N 
HETATM   11  C   UNL     1      65.828   6.317   6.780  1.00  0.00     0.269 C 
HETATM   12  C   UNL     1      67.299   5.225   5.207  1.00  0.00     0.269 C 
HETATM   13  H   UNL     1      65.809   6.480   4.745  1.00  0.00     0.279 HD
ENDBRANCH   9  10
ENDBRANCH   8   9
ENDBRANCH   7   8
ENDBRANCH   1   7
BRANCH   2  14
HETATM   14  C   UNL     1      61.748  11.342   3.025  1.00  0.00     0.202 C 
BRANCH  14  15
HETATM   15  O   UNL     1      62.049  12.166   4.147  1.00  0.00    -0.396 OA
HETATM   16  H   UNL     1      62.743  11.747   4.678  1.00  0.00     0.209 HD
ENDBRANCH  14  15
ENDBRANCH   2  14
TORSDOF 6
ENDMDL
MODEL 5
REMARK VINA RESULT:      -3.9      2.355      2.759
REMARK  6 active torsions:
REMARK  status: ('A' for Active; 'I' for Inactive)
REMARK    1  A    between atoms: N_1  and  C_11 
REMARK    2  A    between atoms: C_2  and  O_8 
REMARK    3  A    between atoms: C_3  and  C_12 
REMARK    4  A    between atoms: O_8  and  C_9 
REMARK    5  A    between atoms: C_9  and  C_11 
REMARK    6  A    between atoms: O_10  and  C_12 
ROOT
HETATM    1  C   UNL     1      63.021   7.173   6.116  1.00  0.00     0.068 A 
HETATM    2  C   UNL     1      61.041   7.443   4.117  1.00  0.00    -0.035 A 
HETATM    3  C   UNL     1      61.855   6.416   6.176  1.00  0.00     0.037 A 
HETATM    4  C   UNL     1      63.213   8.038   5.030  1.00  0.00     0.037 A 
HETATM    5  C   UNL     1      60.870   6.551   5.187  1.00  0.00     0.012 A 
HETATM    6  C   UNL     1      62.243   8.152   4.029  1.00  0.00     0.012 A 
ENDROOT
BRANCH   1   7
HETATM    7  O   UNL     1      64.021   7.207   7.051  1.00  0.00    -0.350 OA
BRANCH   7   8
HETATM    8  C   UNL     1      65.222   6.468   6.785  1.00  0.00     0.203 C 
BRANCH   8   9
HETATM    9  C   UNL     1      66.389   7.175   7.504  1.00  0.00     0.260 C 
BRANCH   9  10
HETATM   10  N   UNL     1      67.748   6.828   7.024  1.00  0.00    -0.077 N 
HETATM   11  C   UNL     1      68.073   5.448   7.401  1.00  0.00     0.269 C 
HETATM   12  C   UNL     1      67.903   7.032   5.586  1.00  0.00     0.269 C 
HETATM   13  H   UNL     1      68.407   7.460   7.476  1.00  0.00     0.279 HD
ENDBRANCH   9  10
ENDBRANCH   8   9
ENDBRANCH   7   8
ENDBRANCH   1   7
BRANCH   2  14
HETATM   14  C   UNL     1      59.964   7.583   3.070  1.00  0.00     0.202 C 
BRANCH  14  15
HETATM   15  O   UNL     1      58.775   8.150   3.609  1.00  0.00    -0.396 OA
HETATM   16  H   UNL     1      58.911   9.098   3.766  1.00  0.00     0.209 HD
ENDBRANCH  14  15
ENDBRANCH   2  14
TORSDOF 6
ENDMDL
MODEL 6
REMARK VINA RESULT:      -3.9      3.245      4.341
REMARK  6 active torsions:
REMARK  status: ('A' for Active; 'I' for Inactive)
REMARK    1  A    between atoms: N_1  and  C_11 
REMARK    2  A    between atoms: C_2  and  O_8 
REMARK    3  A    between atoms: C_3  and  C_12 
REMARK    4  A    between atoms: O_8  and  C_9 
REMARK    5  A    between atoms: C_9  and  C_11 
REMARK    6  A    between atoms: O_10  and  C_12 
ROOT
HETATM    1  C   UNL     1      62.902   7.775   3.376  1.00  0.00     0.068 A 
HETATM    2  C   UNL     1      63.041  10.072   5.017  1.00  0.00    -0.035 A 
HETATM    3  C   UNL     1      63.949   7.931   4.279  1.00  0.00     0.037 A 
HETATM    4  C   UNL     1      61.900   8.755   3.324  1.00  0.00     0.037 A 
HETATM    5  C   UNL     1      64.021   9.071   5.092  1.00  0.00     0.012 A 
HETATM    6  C   UNL     1      61.958   9.878   4.154  1.00  0.00     0.012 A 
ENDROOT
BRANCH   1   7
HETATM    7  O   UNL     1      62.752   6.763   2.467  1.00  0.00    -0.350 OA
BRANCH   7   8
HETATM    8  C   UNL     1      62.076   5.569   2.888  1.00  0.00     0.203 C 
BRANCH   8   9
HETATM    9  C   UNL     1      62.965   4.361   2.529  1.00  0.00     0.260 C 
BRANCH   9  10
HETATM   10  N   UNL     1      64.427   4.586   2.622  1.00  0.00    -0.077 N 
HETATM   11  C   UNL     1      64.898   4.256   3.971  1.00  0.00     0.269 C 
HETATM   12  C   UNL     1      65.173   3.846   1.608  1.00  0.00     0.269 C 
HETATM   13  H   UNL     1      64.601   5.574   2.441  1.00  0.00     0.279 HD
ENDBRANCH   9  10
ENDBRANCH   8   9
ENDBRANCH   7   8
ENDBRANCH   1   7
BRANCH   2  14
HETATM   14  C   UNL     1      63.144  11.298   5.890  1.00  0.00     0.202 C 
BRANCH  14  15
HETATM   15  O   UNL     1      64.438  11.427   6.468  1.00  0.00    -0.396 OA
HETATM   16  H   UNL     1      64.530  10.796   7.198  1.00  0.00     0.209 HD
ENDBRANCH  14  15
ENDBRANCH   2  14
TORSDOF 6
ENDMDL
MODEL 7
REMARK VINA RESULT:      -3.7      3.794      4.759
REMARK  6 active torsions:
REMARK  status: ('A' for Active; 'I' for Inactive)
REMARK    1  A    between atoms: N_1  and  C_11 
REMARK    2  A    between atoms: C_2  and  O_8 
REMARK    3  A    between atoms: C_3  and  C_12 
REMARK    4  A    between atoms: O_8  and  C_9 
REMARK    5  A    between atoms: C_9  and  C_11 
REMARK    6  A    between atoms: O_10  and  C_12 
ROOT
HETATM    1  C   UNL     1      62.037   7.474   5.401  1.00  0.00     0.068 A 
HETATM    2  C   UNL     1      62.023   9.406   3.338  1.00  0.00    -0.035 A 
HETATM    3  C   UNL     1      61.201   7.320   4.299  1.00  0.00     0.037 A 
HETATM    4  C   UNL     1      62.897   8.580   5.450  1.00  0.00     0.037 A 
HETATM    5  C   UNL     1      61.190   8.279   3.277  1.00  0.00     0.012 A 
HETATM    6  C   UNL     1      62.906   9.522   4.416  1.00  0.00     0.012 A 
ENDROOT
BRANCH   1   7
HETATM    7  O   UNL     1      62.088   6.667   6.506  1.00  0.00    -0.350 OA
BRANCH   7   8
HETATM    8  C   UNL     1      61.811   5.270   6.338  1.00  0.00     0.203 C 
BRANCH   8   9
HETATM    9  C   UNL     1      60.622   4.903   7.249  1.00  0.00     0.260 C 
BRANCH   9  10
HETATM   10  N   UNL     1      59.579   5.944   7.399  1.00  0.00    -0.077 N 
HETATM   11  C   UNL     1      58.584   5.813   6.330  1.00  0.00     0.269 C 
HETATM   12  C   UNL     1      58.945   5.917   8.715  1.00  0.00     0.269 C 
HETATM   13  H   UNL     1      60.034   6.853   7.321  1.00  0.00     0.279 HD
ENDBRANCH   9  10
ENDBRANCH   8   9
ENDBRANCH   7   8
ENDBRANCH   1   7
BRANCH   2  14
HETATM   14  C   UNL     1      61.988  10.434   2.234  1.00  0.00     0.202 C 
BRANCH  14  15
HETATM   15  O   UNL     1      61.966  11.761   2.750  1.00  0.00    -0.396 OA
HETATM   16  H   UNL     1      62.380  12.362   2.111  1.00  0.00     0.209 HD
ENDBRANCH  14  15
ENDBRANCH   2  14
TORSDOF 6
ENDMDL
MODEL 8
REMARK VINA RESULT:      -3.7      2.997      6.662
REMARK  6 active torsions:
REMARK  status: ('A' for Active; 'I' for Inactive)
REMARK    1  A    between atoms: N_1  and  C_11 
REMARK    2  A    between atoms: C_2  and  O_8 
REMARK    3  A    between atoms: C_3  and  C_12 
REMARK    4  A    between atoms: O_8  and  C_9 
REMARK    5  A    between atoms: C_9  and  C_11 
REMARK    6  A    between atoms: O_10  and  C_12 
ROOT
HETATM    1  C   UNL     1      64.236   8.045   5.339  1.00  0.00     0.068 A 
HETATM    2  C   UNL     1      66.243   6.812   6.902  1.00  0.00    -0.035 A 
HETATM    3  C   UNL     1      65.563   8.450   5.226  1.00  0.00     0.037 A 
HETATM    4  C   UNL     1      63.921   6.992   6.208  1.00  0.00     0.037 A 
HETATM    5  C   UNL     1      66.559   7.842   6.003  1.00  0.00     0.012 A 
HETATM    6  C   UNL     1      64.918   6.367   6.962  1.00  0.00     0.012 A 
ENDROOT
BRANCH   1   7
HETATM    7  O   UNL     1      63.156   8.604   4.710  1.00  0.00    -0.350 OA
BRANCH   7   8
HETATM    8  C   UNL     1      62.955   8.313   3.320  1.00  0.00     0.203 C 
BRANCH   8   9
HETATM    9  C   UNL     1      61.442   8.142   3.079  1.00  0.00     0.260 C 
BRANCH   9  10
HETATM   10  N   UNL     1      60.867   8.956   1.982  1.00  0.00    -0.077 N 
HETATM   11  C   UNL     1      61.942   9.616   1.234  1.00  0.00     0.269 C 
HETATM   12  C   UNL     1      60.010   8.174   1.094  1.00  0.00     0.269 C 
HETATM   13  H   UNL     1      60.269   9.666   2.403  1.00  0.00     0.279 HD
ENDBRANCH   9  10
ENDBRANCH   8   9
ENDBRANCH   7   8
ENDBRANCH   1   7
BRANCH   2  14
HETATM   14  C   UNL     1      67.326   6.179   7.739  1.00  0.00     0.202 C 
BRANCH  14  15
HETATM   15  O   UNL     1      67.656   6.980   8.868  1.00  0.00    -0.396 OA
HETATM   16  H   UNL     1      67.715   6.419   9.656  1.00  0.00     0.209 HD
ENDBRANCH  14  15
ENDBRANCH   2  14
TORSDOF 6
ENDMDL
MODEL 9
REMARK VINA RESULT:      -3.7      2.046      2.624
REMARK  6 active torsions:
REMARK  status: ('A' for Active; 'I' for Inactive)
REMARK    1  A    between atoms: N_1  and  C_11 
REMARK    2  A    between atoms: C_2  and  O_8 
REMARK    3  A    between atoms: C_3  and  C_12 
REMARK    4  A    between atoms: O_8  and  C_9 
REMARK    5  A    between atoms: C_9  and  C_11 
REMARK    6  A    between atoms: O_10  and  C_12 
ROOT
HETATM    1  C   UNL     1      64.024   7.401   4.644  1.00  0.00     0.068 A 
HETATM    2  C   UNL     1      62.538   9.554   3.574  1.00  0.00    -0.035 A 
HETATM    3  C   UNL     1      63.612   7.379   3.315  1.00  0.00     0.037 A 
HETATM    4  C   UNL     1      63.725   8.524   5.428  1.00  0.00     0.037 A 
HETATM    5  C   UNL     1      62.872   8.444   2.784  1.00  0.00     0.012 A 
HETATM    6  C   UNL     1      63.011   9.599   4.890  1.00  0.00     0.012 A 
ENDROOT
BRANCH   1   7
HETATM    7  O   UNL     1      64.674   6.399   5.314  1.00  0.00    -0.350 OA
BRANCH   7   8
HETATM    8  C   UNL     1      65.122   6.659   6.652  1.00  0.00     0.203 C 
BRANCH   8   9
HETATM    9  C   UNL     1      65.483   5.310   7.308  1.00  0.00     0.260 C 
BRANCH   9  10
HETATM   10  N   UNL     1      65.362   4.117   6.438  1.00  0.00    -0.077 N 
HETATM   11  C   UNL     1      66.672   3.475   6.286  1.00  0.00     0.269 C 
HETATM   12  C   UNL     1      64.364   3.168   6.923  1.00  0.00     0.269 C 
HETATM   13  H   UNL     1      65.037   4.431   5.524  1.00  0.00     0.279 HD
ENDBRANCH   9  10
ENDBRANCH   8   9
ENDBRANCH   7   8
ENDBRANCH   1   7
BRANCH   2  14
HETATM   14  C   UNL     1      61.730  10.685   2.988  1.00  0.00     0.202 C 
BRANCH  14  15
HETATM   15  O   UNL     1      61.948  11.906   3.687  1.00  0.00    -0.396 OA
HETATM   16  H   UNL     1      62.239  11.713   4.591  1.00  0.00     0.209 HD
ENDBRANCH  14  15
ENDBRANCH   2  14
TORSDOF 6
ENDMDL
