MODEL 1
REMARK VINA RESULT:      -4.9      0.000      0.000
REMARK  6 active torsions:
REMARK  status: ('A' for Active; 'I' for Inactive)
REMARK    1  A    between atoms: N_1  and  C_11 
REMARK    2  A    between atoms: C_2  and  O_9 
REMARK    3  A    between atoms: N_3  and  C_12 
REMARK    4  A    between atoms: C_4  and  C_12 
REMARK    5  A    between atoms: O_9  and  C_10 
REMARK    6  A    between atoms: C_10  and  C_11 
ROOT
HETATM    1  C   UNL     1      64.071   9.087   5.035  1.00  0.00     0.068 A 
HETATM    2  C   UNL     1      62.235   9.027   2.877  1.00  0.00    -0.033 A 
HETATM    3  C   UNL     1      63.091  10.073   4.905  1.00  0.00     0.037 A 
HETATM    4  C   UNL     1      64.095   8.048   4.104  1.00  0.00     0.037 A 
HETATM    5  C   UNL     1      62.184  10.042   3.840  1.00  0.00     0.011 A 
HETATM    6  C   UNL     1      63.185   8.009   3.035  1.00  0.00     0.011 A 
ENDROOT
BRANCH   1   7
HETATM    7  O   UNL     1      65.065   9.062   5.972  1.00  0.00    -0.350 OA
BRANCH   7   8
HETATM    8  C   UNL     1      66.036   8.012   5.866  1.00  0.00     0.203 C 
BRANCH   8   9
HETATM    9  C   UNL     1      65.948   7.105   7.107  1.00  0.00     0.260 C 
BRANCH   9  10
HETATM   10  N   UNL     1      67.246   6.895   7.789  1.00  0.00    -0.077 N 
HETATM   11  C   UNL     1      67.060   6.585   9.206  1.00  0.00     0.269 C 
HETATM   12  C   UNL     1      68.013   5.857   7.108  1.00  0.00     0.269 C 
HETATM   13  H   UNL     1      67.777   7.765   7.743  1.00  0.00     0.279 HD
ENDBRANCH   9  10
ENDBRANCH   8   9
ENDBRANCH   7   8
ENDBRANCH   1   7
BRANCH   2  14
HETATM   14  C   UNL     1      61.333   9.087   1.665  1.00  0.00     0.270 C 
BRANCH  14  15
HETATM   15  N   UNL     1      60.043   8.437   1.887  1.00  0.00    -0.075 N 
HETATM   16  C   UNL     1      59.446   8.045   0.614  1.00  0.00     0.267 C 
HETATM   17  H   UNL     1      59.417   9.086   2.366  1.00  0.00     0.277 HD
HETATM   18  H   UNL     1      60.185   7.604   2.457  1.00  0.00     0.277 HD
ENDBRANCH  14  15
ENDBRANCH   2  14
TORSDOF 6
ENDMDL
MODEL 2
REMARK VINA RESULT:      -4.5      1.796      2.569
REMARK  6 active torsions:
REMARK  status: ('A' for Active; 'I' for Inactive)
REMARK    1  A    between atoms: N_1  and  C_11 
REMARK    2  A    between atoms: C_2  and  O_9 
REMARK    3  A    between atoms: N_3  and  C_12 
REMARK    4  A    between atoms: C_4  and  C_12 
REMARK    5  A    between atoms: O_9  and  C_10 
REMARK    6  A    between atoms: C_10  and  C_11 
ROOT
HETATM    1  C   UNL     1      64.773   7.212   4.837  1.00  0.00     0.068 A 
HETATM    2  C   UNL     1      62.904   8.636   3.255  1.00  0.00    -0.033 A 
HETATM    3  C   UNL     1      64.282   6.665   3.651  1.00  0.00     0.037 A 
HETATM    4  C   UNL     1      64.359   8.493   5.201  1.00  0.00     0.037 A 
HETATM    5  C   UNL     1      63.359   7.370   2.868  1.00  0.00     0.011 A 
HETATM    6  C   UNL     1      63.436   9.207   4.419  1.00  0.00     0.011 A 
ENDROOT
BRANCH   1   7
HETATM    7  O   UNL     1      65.600   6.585   5.727  1.00  0.00    -0.350 OA
BRANCH   7   8
HETATM    8  C   UNL     1      65.059   6.287   7.021  1.00  0.00     0.203 C 
BRANCH   8   9
HETATM    9  C   UNL     1      65.538   4.894   7.469  1.00  0.00     0.260 C 
BRANCH   9  10
HETATM   10  N   UNL     1      66.347   4.909   8.710  1.00  0.00    -0.077 N 
HETATM   11  C   UNL     1      67.590   4.157   8.545  1.00  0.00     0.269 C 
HETATM   12  C   UNL     1      66.603   6.283   9.131  1.00  0.00     0.269 C 
HETATM   13  H   UNL     1      65.815   4.445   9.446  1.00  0.00     0.279 HD
ENDBRANCH   9  10
ENDBRANCH   8   9
ENDBRANCH   7   8
ENDBRANCH   1   7
BRANCH   2  14
HETATM   14  C   UNL     1      61.810   9.321   2.466  1.00  0.00     0.270 C 
BRANCH  14  15
HETATM   15  N   UNL     1      61.452  10.628   3.013  1.00  0.00    -0.075 N 
HETATM   16  C   UNL     1      61.789  11.685   2.064  1.00  0.00     0.267 C 
HETATM   17  H   UNL     1      61.964  10.781   3.882  1.00  0.00     0.277 HD
HETATM   18  H   UNL     1      60.448  10.650   3.189  1.00  0.00     0.277 HD
ENDBRANCH  14  15
ENDBRANCH   2  14
TORSDOF 6
ENDMDL
MODEL 3
REMARK VINA RESULT:      -4.5      1.304      2.008
REMARK  6 active torsions:
REMARK  status: ('A' for Active; 'I' for Inactive)
REMARK    1  A    between atoms: N_1  and  C_11 
REMARK    2  A    between atoms: C_2  and  O_9 
REMARK    3  A    between atoms: N_3  and  C_12 
REMARK    4  A    between atoms: C_4  and  C_12 
REMARK    5  A    between atoms: O_9  and  C_10 
REMARK    6  A    between atoms: C_10  and  C_11 
ROOT
HETATM    1  C   UNL     1      64.764   8.525   5.151  1.00  0.00     0.068 A 
HETATM    2  C   UNL     1      62.601   8.460   3.322  1.00  0.00    -0.033 A 
HETATM    3  C   UNL     1      64.666   7.509   4.199  1.00  0.00     0.037 A 
HETATM    4  C   UNL     1      63.798   9.532   5.150  1.00  0.00     0.037 A 
HETATM    5  C   UNL     1      63.598   7.478   3.295  1.00  0.00     0.011 A 
HETATM    6  C   UNL     1      62.726   9.509   4.244  1.00  0.00     0.011 A 
ENDROOT
BRANCH   1   7
HETATM    7  O   UNL     1      65.703   8.610   6.141  1.00  0.00    -0.350 OA
BRANCH   7   8
HETATM    8  C   UNL     1      66.987   8.031   5.874  1.00  0.00     0.203 C 
BRANCH   8   9
HETATM    9  C   UNL     1      67.184   6.787   6.760  1.00  0.00     0.260 C 
BRANCH   9  10
HETATM   10  N   UNL     1      66.047   6.512   7.668  1.00  0.00    -0.077 N 
HETATM   11  C   UNL     1      65.337   5.294   7.281  1.00  0.00     0.269 C 
HETATM   12  C   UNL     1      66.509   6.448   9.052  1.00  0.00     0.269 C 
HETATM   13  H   UNL     1      65.381   7.282   7.591  1.00  0.00     0.279 HD
ENDBRANCH   9  10
ENDBRANCH   8   9
ENDBRANCH   7   8
ENDBRANCH   1   7
BRANCH   2  14
HETATM   14  C   UNL     1      61.389   8.335   2.427  1.00  0.00     0.270 C 
BRANCH  14  15
HETATM   15  N   UNL     1      60.129   8.444   3.159  1.00  0.00    -0.075 N 
HETATM   16  C   UNL     1      59.787   7.165   3.774  1.00  0.00     0.267 C 
HETATM   17  H   UNL     1      59.387   8.716   2.514  1.00  0.00     0.277 HD
HETATM   18  H   UNL     1      60.231   9.147   3.891  1.00  0.00     0.277 HD
ENDBRANCH  14  15
ENDBRANCH   2  14
TORSDOF 6
ENDMDL
MODEL 4
REMARK VINA RESULT:      -4.3      1.573      7.013
REMARK  6 active torsions:
REMARK  status: ('A' for Active; 'I' for Inactive)
REMARK    1  A    between atoms: N_1  and  C_11 
REMARK    2  A    between atoms: C_2  and  O_9 
REMARK    3  A    between atoms: N_3  and  C_12 
REMARK    4  A    between atoms: C_4  and  C_12 
REMARK    5  A    between atoms: O_9  and  C_10 
REMARK    6  A    between atoms: C_10  and  C_11 
ROOT
HETATM    1  C   UNL     1      64.356   8.036   5.077  1.00  0.00     0.068 A 
HETATM    2  C   UNL     1      65.957   6.963   7.155  1.00  0.00    -0.033 A 
HETATM    3  C   UNL     1      63.849   7.059   5.935  1.00  0.00     0.037 A 
HETATM    4  C   UNL     1      65.652   8.505   5.296  1.00  0.00     0.037 A 
HETATM    5  C   UNL     1      64.640   6.531   6.962  1.00  0.00     0.011 A 
HETATM    6  C   UNL     1      66.449   7.981   6.326  1.00  0.00     0.011 A 
ENDROOT
BRANCH   1   7
HETATM    7  O   UNL     1      63.717   8.557   3.988  1.00  0.00    -0.350 OA
BRANCH   7   8
HETATM    8  C   UNL     1      62.647   9.480   4.236  1.00  0.00     0.203 C 
BRANCH   8   9
HETATM    9  C   UNL     1      61.438   9.113   3.357  1.00  0.00     0.260 C 
BRANCH   9  10
HETATM   10  N   UNL     1      61.315   9.937   2.133  1.00  0.00    -0.077 N 
HETATM   11  C   UNL     1      61.824  11.290   2.347  1.00  0.00     0.269 C 
HETATM   12  C   UNL     1      61.985   9.283   1.013  1.00  0.00     0.269 C 
HETATM   13  H   UNL     1      60.325  10.025   1.903  1.00  0.00     0.279 HD
ENDBRANCH   9  10
ENDBRANCH   8   9
ENDBRANCH   7   8
ENDBRANCH   1   7
BRANCH   2  14
HETATM   14  C   UNL     1      66.835   6.286   8.183  1.00  0.00     0.270 C 
BRANCH  14  15
HETATM   15  N   UNL     1      66.325   4.977   8.588  1.00  0.00    -0.075 N 
HETATM   16  C   UNL     1      67.350   3.954   8.400  1.00  0.00     0.267 C 
HETATM   17  H   UNL     1      65.510   4.743   8.021  1.00  0.00     0.277 HD
HETATM   18  H   UNL     1      66.068   5.012   9.573  1.00  0.00     0.277 HD
ENDBRANCH  14  15
ENDBRANCH   2  14
TORSDOF 6
ENDMDL
MODEL 5
REMARK VINA RESULT:      -4.1      2.214      2.277
REMARK  6 active torsions:
REMARK  status: ('A' for Active; 'I' for Inactive)
REMARK    1  A    between atoms: N_1  and  C_11 
REMARK    2  A    between atoms: C_2  and  O_9 
REMARK    3  A    between atoms: N_3  and  C_12 
REMARK    4  A    between atoms: C_4  and  C_12 
REMARK    5  A    between atoms: O_9  and  C_10 
REMARK    6  A    between atoms: C_10  and  C_11 
ROOT
HETATM    1  C   UNL     1      63.240   7.497   5.856  1.00  0.00     0.068 A 
HETATM    2  C   UNL     1      60.905   7.196   4.279  1.00  0.00    -0.033 A 
HETATM    3  C   UNL     1      63.019   8.315   4.747  1.00  0.00     0.037 A 
HETATM    4  C   UNL     1      62.263   6.561   6.196  1.00  0.00     0.037 A 
HETATM    5  C   UNL     1      61.865   8.167   3.969  1.00  0.00     0.011 A 
HETATM    6  C   UNL     1      61.101   6.410   5.422  1.00  0.00     0.011 A 
ENDROOT
BRANCH   1   7
HETATM    7  O   UNL     1      64.365   7.484   6.632  1.00  0.00    -0.350 OA
BRANCH   7   8
HETATM    8  C   UNL     1      65.625   7.399   5.954  1.00  0.00     0.203 C 
BRANCH   8   9
HETATM    9  C   UNL     1      66.727   8.006   6.840  1.00  0.00     0.260 C 
BRANCH   9  10
HETATM   10  N   UNL     1      67.564   6.998   7.531  1.00  0.00    -0.077 N 
HETATM   11  C   UNL     1      67.041   6.690   8.860  1.00  0.00     0.269 C 
HETATM   12  C   UNL     1      67.689   5.797   6.710  1.00  0.00     0.269 C 
HETATM   13  H   UNL     1      68.497   7.391   7.663  1.00  0.00     0.279 HD
ENDBRANCH   9  10
ENDBRANCH   8   9
ENDBRANCH   7   8
ENDBRANCH   1   7
BRANCH   2  14
HETATM   14  C   UNL     1      59.734   6.965   3.350  1.00  0.00     0.270 C 
BRANCH  14  15
HETATM   15  N   UNL     1      58.720   8.013   3.446  1.00  0.00    -0.075 N 
HETATM   16  C   UNL     1      57.629   7.585   4.316  1.00  0.00     0.267 C 
HETATM   17  H   UNL     1      58.351   8.210   2.516  1.00  0.00     0.277 HD
HETATM   18  H   UNL     1      59.147   8.852   3.838  1.00  0.00     0.277 HD
ENDBRANCH  14  15
ENDBRANCH   2  14
TORSDOF 6
ENDMDL
MODEL 6
REMARK VINA RESULT:      -3.9      1.871      2.382
REMARK  6 active torsions:
REMARK  status: ('A' for Active; 'I' for Inactive)
REMARK    1  A    between atoms: N_1  and  C_11 
REMARK    2  A    between atoms: C_2  and  O_9 
REMARK    3  A    between atoms: N_3  and  C_12 
REMARK    4  A    between atoms: C_4  and  C_12 
REMARK    5  A    between atoms: O_9  and  C_10 
REMARK    6  A    between atoms: C_10  and  C_11 
ROOT
HETATM    1  C   UNL     1      63.183   7.735   5.823  1.00  0.00     0.068 A 
HETATM    2  C   UNL     1      61.895   8.441   3.400  1.00  0.00    -0.033 A 
HETATM    3  C   UNL     1      63.622   8.828   5.075  1.00  0.00     0.037 A 
HETATM    4  C   UNL     1      62.067   7.027   5.373  1.00  0.00     0.037 A 
HETATM    5  C   UNL     1      62.985   9.178   3.879  1.00  0.00     0.011 A 
HETATM    6  C   UNL     1      61.421   7.375   4.176  1.00  0.00     0.011 A 
ENDROOT
BRANCH   1   7
HETATM    7  O   UNL     1      63.778   7.242   6.950  1.00  0.00    -0.350 OA
BRANCH   7   8
HETATM    8  C   UNL     1      65.175   6.928   6.867  1.00  0.00     0.203 C 
BRANCH   8   9
HETATM    9  C   UNL     1      65.371   5.690   5.974  1.00  0.00     0.260 C 
BRANCH   9  10
HETATM   10  N   UNL     1      66.195   5.943   4.770  1.00  0.00    -0.077 N 
HETATM   11  C   UNL     1      67.325   5.019   4.692  1.00  0.00     0.269 C 
HETATM   12  C   UNL     1      65.368   5.883   3.568  1.00  0.00     0.269 C 
HETATM   13  H   UNL     1      66.585   6.884   4.840  1.00  0.00     0.279 HD
ENDBRANCH   9  10
ENDBRANCH   8   9
ENDBRANCH   7   8
ENDBRANCH   1   7
BRANCH   2  14
HETATM   14  C   UNL     1      61.307   8.754   2.042  1.00  0.00     0.270 C 
BRANCH  14  15
HETATM   15  N   UNL     1      59.894   8.395   1.940  1.00  0.00    -0.075 N 
HETATM   16  C   UNL     1      59.570   7.992   0.575  1.00  0.00     0.267 C 
HETATM   17  H   UNL     1      59.323   9.200   2.198  1.00  0.00     0.277 HD
HETATM   18  H   UNL     1      59.704   7.616   2.570  1.00  0.00     0.277 HD
ENDBRANCH  14  15
ENDBRANCH   2  14
TORSDOF 6
ENDMDL
MODEL 7
REMARK VINA RESULT:      -3.9      2.093      7.019
REMARK  6 active torsions:
REMARK  status: ('A' for Active; 'I' for Inactive)
REMARK    1  A    between atoms: N_1  and  C_11 
REMARK    2  A    between atoms: C_2  and  O_9 
REMARK    3  A    between atoms: N_3  and  C_12 
REMARK    4  A    between atoms: C_4  and  C_12 
REMARK    5  A    between atoms: O_9  and  C_10 
REMARK    6  A    between atoms: C_10  and  C_11 
ROOT
HETATM    1  C   UNL     1      63.032   7.974   3.105  1.00  0.00     0.068 A 
HETATM    2  C   UNL     1      65.144   7.964   4.995  1.00  0.00    -0.033 A 
HETATM    3  C   UNL     1      63.966   6.938   3.123  1.00  0.00     0.037 A 
HETATM    4  C   UNL     1      63.135   8.979   4.068  1.00  0.00     0.037 A 
HETATM    5  C   UNL     1      65.008   6.932   4.058  1.00  0.00     0.011 A 
HETATM    6  C   UNL     1      64.176   8.977   5.010  1.00  0.00     0.011 A 
ENDROOT
BRANCH   1   7
HETATM    7  O   UNL     1      62.033   8.138   2.188  1.00  0.00    -0.350 OA
BRANCH   7   8
HETATM    8  C   UNL     1      61.077   7.076   2.066  1.00  0.00     0.203 C 
BRANCH   8   9
HETATM    9  C   UNL     1      60.057   7.168   3.216  1.00  0.00     0.260 C 
BRANCH   9  10
HETATM   10  N   UNL     1      58.799   7.857   2.847  1.00  0.00    -0.077 N 
HETATM   11  C   UNL     1      58.381   7.515   1.489  1.00  0.00     0.269 C 
HETATM   12  C   UNL     1      57.754   7.558   3.822  1.00  0.00     0.269 C 
HETATM   13  H   UNL     1      58.968   8.864   2.862  1.00  0.00     0.279 HD
ENDBRANCH   9  10
ENDBRANCH   8   9
ENDBRANCH   7   8
ENDBRANCH   1   7
BRANCH   2  14
HETATM   14  C   UNL     1      66.349   8.006   5.906  1.00  0.00     0.270 C 
BRANCH  14  15
HETATM   15  N   UNL     1      66.068   7.486   7.242  1.00  0.00    -0.075 N 
HETATM   16  C   UNL     1      66.784   6.232   7.459  1.00  0.00     0.267 C 
HETATM   17  H   UNL     1      65.066   7.320   7.335  1.00  0.00     0.277 HD
HETATM   18  H   UNL     1      66.376   8.167   7.935  1.00  0.00     0.277 HD
ENDBRANCH  14  15
ENDBRANCH   2  14
TORSDOF 6
ENDMDL
MODEL 8
REMARK VINA RESULT:      -3.9      2.479      7.695
REMARK  6 active torsions:
REMARK  status: ('A' for Active; 'I' for Inactive)
REMARK    1  A    between atoms: N_1  and  C_11 
REMARK    2  A    between atoms: C_2  and  O_9 
REMARK    3  A    between atoms: N_3  and  C_12 
REMARK    4  A    between atoms: C_4  and  C_12 
REMARK    5  A    between atoms: O_9  and  C_10 
REMARK    6  A    between atoms: C_10  and  C_11 
ROOT
HETATM    1  C   UNL     1      65.582   6.710   7.286  1.00  0.00     0.068 A 
HETATM    2  C   UNL     1      67.246   4.688   8.367  1.00  0.00    -0.033 A 
HETATM    3  C   UNL     1      66.741   7.042   7.989  1.00  0.00     0.037 A 
HETATM    4  C   UNL     1      65.287   5.361   7.089  1.00  0.00     0.037 A 
HETATM    5  C   UNL     1      67.564   6.043   8.521  1.00  0.00     0.011 A 
HETATM    6  C   UNL     1      66.110   4.354   7.617  1.00  0.00     0.011 A 
ENDROOT
BRANCH   1   7
HETATM    7  O   UNL     1      64.656   7.592   6.803  1.00  0.00    -0.350 OA
BRANCH   7   8
HETATM    8  C   UNL     1      64.112   7.323   5.504  1.00  0.00     0.203 C 
BRANCH   8   9
HETATM    9  C   UNL     1      64.024   8.634   4.702  1.00  0.00     0.260 C 
BRANCH   9  10
HETATM   10  N   UNL     1      62.713   8.848   4.047  1.00  0.00    -0.077 N 
HETATM   11  C   UNL     1      62.265  10.233   4.188  1.00  0.00     0.269 C 
HETATM   12  C   UNL     1      62.776   8.445   2.645  1.00  0.00     0.269 C 
HETATM   13  H   UNL     1      62.020   8.263   4.515  1.00  0.00     0.279 HD
ENDBRANCH   9  10
ENDBRANCH   8   9
ENDBRANCH   7   8
ENDBRANCH   1   7
BRANCH   2  14
HETATM   14  C   UNL     1      68.075   3.632   9.062  1.00  0.00     0.270 C 
BRANCH  14  15
HETATM   15  N   UNL     1      67.852   2.291   8.524  1.00  0.00    -0.075 N 
HETATM   16  C   UNL     1      67.798   1.313   9.606  1.00  0.00     0.267 C 
HETATM   17  H   UNL     1      68.616   2.052   7.892  1.00  0.00     0.277 HD
HETATM   18  H   UNL     1      66.965   2.279   8.022  1.00  0.00     0.277 HD
ENDBRANCH  14  15
ENDBRANCH   2  14
TORSDOF 6
ENDMDL
MODEL 9
REMARK VINA RESULT:      -3.7     11.250     12.412
REMARK  6 active torsions:
REMARK  status: ('A' for Active; 'I' for Inactive)
REMARK    1  A    between atoms: N_1  and  C_11 
REMARK    2  A    between atoms: C_2  and  O_9 
REMARK    3  A    between atoms: N_3  and  C_12 
REMARK    4  A    between atoms: C_4  and  C_12 
REMARK    5  A    between atoms: O_9  and  C_10 
REMARK    6  A    between atoms: C_10  and  C_11 
ROOT
HETATM    1  C   UNL     1      59.378   1.509  12.987  1.00  0.00     0.068 A 
HETATM    2  C   UNL     1      56.676   2.309  13.286  1.00  0.00    -0.033 A 
HETATM    3  C   UNL     1      58.727   2.213  11.973  1.00  0.00     0.037 A 
HETATM    4  C   UNL     1      58.682   1.250  14.168  1.00  0.00     0.037 A 
HETATM    5  C   UNL     1      57.393   2.609  12.122  1.00  0.00     0.011 A 
HETATM    6  C   UNL     1      57.345   1.648  14.325  1.00  0.00     0.011 A 
ENDROOT
BRANCH   1   7
HETATM    7  O   UNL     1      60.641   0.990  12.920  1.00  0.00    -0.350 OA
BRANCH   7   8
HETATM    8  C   UNL     1      60.850  -0.107  12.020  1.00  0.00     0.203 C 
BRANCH   8   9
HETATM    9  C   UNL     1      62.083  -0.911  12.469  1.00  0.00     0.260 C 
BRANCH   9  10
HETATM   10  N   UNL     1      63.177  -0.939  11.471  1.00  0.00    -0.077 N 
HETATM   11  C   UNL     1      62.805  -0.222  10.252  1.00  0.00     0.269 C 
HETATM   12  C   UNL     1      64.406  -0.407  12.052  1.00  0.00     0.269 C 
HETATM   13  H   UNL     1      63.345  -1.910  11.205  1.00  0.00     0.279 HD
ENDBRANCH   9  10
ENDBRANCH   8   9
ENDBRANCH   7   8
ENDBRANCH   1   7
BRANCH   2  14
HETATM   14  C   UNL     1      55.201   2.629  13.372  1.00  0.00     0.270 C 
BRANCH  14  15
HETATM   15  N   UNL     1      54.672   2.504  14.729  1.00  0.00    -0.075 N 
HETATM   16  C   UNL     1      53.569   1.549  14.756  1.00  0.00     0.267 C 
HETATM   17  H   UNL     1      54.337   3.414  15.044  1.00  0.00     0.277 HD
HETATM   18  H   UNL     1      55.414   2.171  15.344  1.00  0.00     0.277 HD
ENDBRANCH  14  15
ENDBRANCH   2  14
TORSDOF 6
ENDMDL
