MODEL 1
REMARK VINA RESULT:      -5.2      0.000      0.000
REMARK  2 active torsions:
REMARK  status: ('A' for Active; 'I' for Inactive)
REMARK    1  A    between atoms: O_4  and  C_6 
REMARK    2  A    between atoms: O_4  and  C_7 
ROOT
HETATM    1  N   UNL     1      61.372  12.287   1.670  1.00  0.00    -0.191 NA
HETATM    2  C   UNL     1      61.759  11.521   2.451  1.00  0.00     0.099 C 
HETATM    3  C   UNL     1      62.246  10.568   3.406  1.00  0.00     0.044 A 
HETATM    4  C   UNL     1      63.243   8.706   5.254  1.00  0.00     0.069 A 
HETATM    5  C   UNL     1      62.433   9.235   3.033  1.00  0.00     0.025 A 
HETATM    6  C   UNL     1      62.532  10.963   4.716  1.00  0.00     0.025 A 
HETATM    7  C   UNL     1      62.927   8.306   3.956  1.00  0.00     0.038 A 
HETATM    8  C   UNL     1      63.019  10.030   5.637  1.00  0.00     0.038 A 
ENDROOT
BRANCH   4   9
HETATM    9  O   UNL     1      63.726   7.881   6.231  1.00  0.00    -0.346 OA
BRANCH   9  10
HETATM   10  C   UNL     1      64.909   7.123   5.931  1.00  0.00     0.133 C 
HETATM   11  C   UNL     1      65.113   6.026   6.978  1.00  0.00     0.058 C 
HETATM   12  C   UNL     1      66.502   5.419   6.874  1.00  0.00     0.170 C 
HETATM   13  O   UNL     1      67.502   6.430   6.962  1.00  0.00    -0.391 OA
HETATM   14  C   UNL     1      67.414   7.361   5.887  1.00  0.00     0.170 C 
HETATM   15  C   UNL     1      66.089   8.102   5.931  1.00  0.00     0.058 C 
ENDBRANCH   9  10
ENDBRANCH   4   9
TORSDOF 2
ENDMDL
MODEL 2
REMARK VINA RESULT:      -4.9      1.515      2.120
REMARK  2 active torsions:
REMARK  status: ('A' for Active; 'I' for Inactive)
REMARK    1  A    between atoms: O_4  and  C_6 
REMARK    2  A    between atoms: O_4  and  C_7 
ROOT
HETATM    1  N   UNL     1      60.245   8.434   0.930  1.00  0.00    -0.191 NA
HETATM    2  C   UNL     1      61.059   8.485   1.755  1.00  0.00     0.099 C 
HETATM    3  C   UNL     1      62.055   8.552   2.785  1.00  0.00     0.044 A 
HETATM    4  C   UNL     1      63.971   8.669   4.833  1.00  0.00     0.069 A 
HETATM    5  C   UNL     1      62.066   9.623   3.681  1.00  0.00     0.025 A 
HETATM    6  C   UNL     1      63.024   7.551   2.897  1.00  0.00     0.025 A 
HETATM    7  C   UNL     1      63.024   9.683   4.699  1.00  0.00     0.038 A 
HETATM    8  C   UNL     1      63.983   7.618   3.913  1.00  0.00     0.038 A 
ENDROOT
BRANCH   4   9
HETATM    9  O   UNL     1      64.949   8.632   5.787  1.00  0.00    -0.346 OA
BRANCH   9  10
HETATM   10  C   UNL     1      65.675   7.402   5.942  1.00  0.00     0.133 C 
HETATM   11  C   UNL     1      65.407   6.802   7.324  1.00  0.00     0.058 C 
HETATM   12  C   UNL     1      66.389   5.685   7.637  1.00  0.00     0.170 C 
HETATM   13  O   UNL     1      67.732   6.143   7.508  1.00  0.00    -0.391 OA
HETATM   14  C   UNL     1      68.031   6.547   6.174  1.00  0.00     0.170 C 
HETATM   15  C   UNL     1      67.164   7.725   5.767  1.00  0.00     0.058 C 
ENDBRANCH   9  10
ENDBRANCH   4   9
TORSDOF 2
ENDMDL
MODEL 3
REMARK VINA RESULT:      -4.8      3.660      6.616
REMARK  2 active torsions:
REMARK  status: ('A' for Active; 'I' for Inactive)
REMARK    1  A    between atoms: O_4  and  C_6 
REMARK    2  A    between atoms: O_4  and  C_7 
ROOT
HETATM    1  N   UNL     1      67.939   3.126   8.225  1.00  0.00    -0.191 NA
HETATM    2  C   UNL     1      67.498   4.116   7.812  1.00  0.00     0.099 C 
HETATM    3  C   UNL     1      66.960   5.338   7.288  1.00  0.00     0.044 A 
HETATM    4  C   UNL     1      65.903   7.708   6.218  1.00  0.00     0.069 A 
HETATM    5  C   UNL     1      67.762   6.184   6.519  1.00  0.00     0.025 A 
HETATM    6  C   UNL     1      65.633   5.694   7.547  1.00  0.00     0.025 A 
HETATM    7  C   UNL     1      67.236   7.368   5.989  1.00  0.00     0.038 A 
HETATM    8  C   UNL     1      65.114   6.881   7.020  1.00  0.00     0.038 A 
ENDROOT
BRANCH   4   9
HETATM    9  O   UNL     1      65.293   8.839   5.752  1.00  0.00    -0.346 OA
BRANCH   9  10
HETATM   10  C   UNL     1      63.989   8.693   5.168  1.00  0.00     0.133 C 
HETATM   11  C   UNL     1      64.099   8.043   3.788  1.00  0.00     0.058 C 
HETATM   12  C   UNL     1      62.793   8.162   3.020  1.00  0.00     0.170 C 
HETATM   13  O   UNL     1      62.378   9.522   2.935  1.00  0.00    -0.391 OA
HETATM   14  C   UNL     1      62.114  10.079   4.219  1.00  0.00     0.170 C 
HETATM   15  C   UNL     1      63.377  10.095   5.063  1.00  0.00     0.058 C 
ENDBRANCH   9  10
ENDBRANCH   4   9
TORSDOF 2
ENDMDL
MODEL 4
REMARK VINA RESULT:      -4.7      1.964      2.529
REMARK  2 active torsions:
REMARK  status: ('A' for Active; 'I' for Inactive)
REMARK    1  A    between atoms: O_4  and  C_6 
REMARK    2  A    between atoms: O_4  and  C_7 
ROOT
HETATM    1  N   UNL     1      61.944   8.868   1.521  1.00  0.00    -0.191 NA
HETATM    2  C   UNL     1      62.378   8.523   2.540  1.00  0.00     0.099 C 
HETATM    3  C   UNL     1      62.914   8.082   3.795  1.00  0.00     0.044 A 
HETATM    4  C   UNL     1      63.983   7.180   6.229  1.00  0.00     0.069 A 
HETATM    5  C   UNL     1      62.333   7.002   4.464  1.00  0.00     0.025 A 
HETATM    6  C   UNL     1      64.015   8.730   4.361  1.00  0.00     0.025 A 
HETATM    7  C   UNL     1      62.864   6.556   5.680  1.00  0.00     0.038 A 
HETATM    8  C   UNL     1      64.538   8.284   5.579  1.00  0.00     0.038 A 
ENDROOT
BRANCH   4   9
HETATM    9  O   UNL     1      64.576   6.827   7.409  1.00  0.00    -0.346 OA
BRANCH   9  10
HETATM   10  C   UNL     1      65.995   6.609   7.395  1.00  0.00     0.133 C 
HETATM   11  C   UNL     1      66.326   5.339   6.608  1.00  0.00     0.058 C 
HETATM   12  C   UNL     1      67.767   4.911   6.838  1.00  0.00     0.170 C 
HETATM   13  O   UNL     1      68.032   4.758   8.228  1.00  0.00    -0.391 OA
HETATM   14  C   UNL     1      67.885   5.986   8.937  1.00  0.00     0.170 C 
HETATM   15  C   UNL     1      66.451   6.481   8.853  1.00  0.00     0.058 C 
ENDBRANCH   9  10
ENDBRANCH   4   9
TORSDOF 2
ENDMDL
MODEL 5
REMARK VINA RESULT:      -4.6      4.009      6.508
REMARK  2 active torsions:
REMARK  status: ('A' for Active; 'I' for Inactive)
REMARK    1  A    between atoms: O_4  and  C_6 
REMARK    2  A    between atoms: O_4  and  C_7 
ROOT
HETATM    1  N   UNL     1      66.337   8.497   6.457  1.00  0.00    -0.191 NA
HETATM    2  C   UNL     1      65.442   8.553   5.723  1.00  0.00     0.099 C 
HETATM    3  C   UNL     1      64.332   8.608   4.816  1.00  0.00     0.044 A 
HETATM    4  C   UNL     1      62.137   8.680   3.068  1.00  0.00     0.069 A 
HETATM    5  C   UNL     1      64.156   7.602   3.863  1.00  0.00     0.025 A 
HETATM    6  C   UNL     1      63.422   9.668   4.874  1.00  0.00     0.025 A 
HETATM    7  C   UNL     1      63.063   7.641   2.989  1.00  0.00     0.038 A 
HETATM    8  C   UNL     1      62.336   9.705   3.995  1.00  0.00     0.038 A 
ENDROOT
BRANCH   4   9
HETATM    9  O   UNL     1      61.041   8.814   2.262  1.00  0.00    -0.346 OA
BRANCH   9  10
HETATM   10  C   UNL     1      60.155   7.689   2.158  1.00  0.00     0.133 C 
HETATM   11  C   UNL     1      59.211   7.867   0.967  1.00  0.00     0.058 C 
HETATM   12  C   UNL     1      58.070   6.865   1.016  1.00  0.00     0.170 C 
HETATM   13  O   UNL     1      57.379   6.946   2.258  1.00  0.00    -0.391 OA
HETATM   14  C   UNL     1      58.221   6.615   3.359  1.00  0.00     0.170 C 
HETATM   15  C   UNL     1      59.367   7.606   3.471  1.00  0.00     0.058 C 
ENDBRANCH   9  10
ENDBRANCH   4   9
TORSDOF 2
ENDMDL
MODEL 6
REMARK VINA RESULT:      -4.3      2.815      3.978
REMARK  2 active torsions:
REMARK  status: ('A' for Active; 'I' for Inactive)
REMARK    1  A    between atoms: O_4  and  C_6 
REMARK    2  A    between atoms: O_4  and  C_7 
ROOT
HETATM    1  N   UNL     1      61.699  12.123   2.064  1.00  0.00    -0.191 NA
HETATM    2  C   UNL     1      61.949  11.156   2.654  1.00  0.00     0.099 C 
HETATM    3  C   UNL     1      62.251   9.966   3.396  1.00  0.00     0.044 A 
HETATM    4  C   UNL     1      62.799   7.643   4.873  1.00  0.00     0.069 A 
HETATM    5  C   UNL     1      62.689  10.058   4.719  1.00  0.00     0.025 A 
HETATM    6  C   UNL     1      62.114   8.709   2.802  1.00  0.00     0.025 A 
HETATM    7  C   UNL     1      62.967   8.899   5.454  1.00  0.00     0.038 A 
HETATM    8  C   UNL     1      62.398   7.554   3.538  1.00  0.00     0.038 A 
ENDROOT
BRANCH   4   9
HETATM    9  O   UNL     1      63.044   6.453   5.499  1.00  0.00    -0.346 OA
BRANCH   9  10
HETATM   10  C   UNL     1      61.924   5.583   5.727  1.00  0.00     0.133 C 
HETATM   11  C   UNL     1      61.001   6.180   6.791  1.00  0.00     0.058 C 
HETATM   12  C   UNL     1      59.991   5.155   7.279  1.00  0.00     0.170 C 
HETATM   13  O   UNL     1      60.648   3.980   7.744  1.00  0.00    -0.391 OA
HETATM   14  C   UNL     1      61.376   3.330   6.705  1.00  0.00     0.170 C 
HETATM   15  C   UNL     1      62.482   4.231   6.186  1.00  0.00     0.058 C 
ENDBRANCH   9  10
ENDBRANCH   4   9
TORSDOF 2
ENDMDL
MODEL 7
REMARK VINA RESULT:      -4.3      3.604      6.215
REMARK  2 active torsions:
REMARK  status: ('A' for Active; 'I' for Inactive)
REMARK    1  A    between atoms: O_4  and  C_6 
REMARK    2  A    between atoms: O_4  and  C_7 
ROOT
HETATM    1  N   UNL     1      66.325   4.760   8.377  1.00  0.00    -0.191 NA
HETATM    2  C   UNL     1      65.830   5.529   7.664  1.00  0.00     0.099 C 
HETATM    3  C   UNL     1      65.228   6.478   6.771  1.00  0.00     0.044 A 
HETATM    4  C   UNL     1      64.065   8.306   4.987  1.00  0.00     0.069 A 
HETATM    5  C   UNL     1      66.027   7.375   6.060  1.00  0.00     0.025 A 
HETATM    6  C   UNL     1      63.840   6.515   6.610  1.00  0.00     0.025 A 
HETATM    7  C   UNL     1      65.446   8.290   5.174  1.00  0.00     0.038 A 
HETATM    8  C   UNL     1      63.264   7.434   5.728  1.00  0.00     0.038 A 
ENDROOT
BRANCH   4   9
HETATM    9  O   UNL     1      63.398   9.157   4.152  1.00  0.00    -0.346 OA
BRANCH   9  10
HETATM   10  C   UNL     1      62.505   8.574   3.190  1.00  0.00     0.133 C 
HETATM   11  C   UNL     1      63.209   7.449   2.429  1.00  0.00     0.058 C 
HETATM   12  C   UNL     1      62.410   7.029   1.206  1.00  0.00     0.170 C 
HETATM   13  O   UNL     1      62.143   8.149   0.369  1.00  0.00    -0.391 OA
HETATM   14  C   UNL     1      61.341   9.127   1.027  1.00  0.00     0.170 C 
HETATM   15  C   UNL     1      62.072   9.691   2.233  1.00  0.00     0.058 C 
ENDBRANCH   9  10
ENDBRANCH   4   9
TORSDOF 2
ENDMDL
MODEL 8
REMARK VINA RESULT:      -4.2      3.343      4.122
REMARK  2 active torsions:
REMARK  status: ('A' for Active; 'I' for Inactive)
REMARK    1  A    between atoms: O_4  and  C_6 
REMARK    2  A    between atoms: O_4  and  C_7 
ROOT
HETATM    1  N   UNL     1      56.549   6.890   1.158  1.00  0.00    -0.191 NA
HETATM    2  C   UNL     1      57.625   7.197   1.461  1.00  0.00     0.099 C 
HETATM    3  C   UNL     1      58.956   7.589   1.828  1.00  0.00     0.044 A 
HETATM    4  C   UNL     1      61.547   8.404   2.538  1.00  0.00     0.069 A 
HETATM    5  C   UNL     1      59.863   7.992   0.845  1.00  0.00     0.025 A 
HETATM    6  C   UNL     1      59.356   7.567   3.167  1.00  0.00     0.025 A 
HETATM    7  C   UNL     1      61.156   8.394   1.199  1.00  0.00     0.038 A 
HETATM    8  C   UNL     1      60.651   7.964   3.515  1.00  0.00     0.038 A 
ENDROOT
BRANCH   4   9
HETATM    9  O   UNL     1      62.782   8.773   2.990  1.00  0.00    -0.346 OA
BRANCH   9  10
HETATM   10  C   UNL     1      63.425   7.907   3.939  1.00  0.00     0.133 C 
HETATM   11  C   UNL     1      64.374   8.711   4.829  1.00  0.00     0.058 C 
HETATM   12  C   UNL     1      65.293   7.795   5.620  1.00  0.00     0.170 C 
HETATM   13  O   UNL     1      65.998   6.914   4.752  1.00  0.00    -0.391 OA
HETATM   14  C   UNL     1      65.117   6.047   4.043  1.00  0.00     0.170 C 
HETATM   15  C   UNL     1      64.193   6.847   3.141  1.00  0.00     0.058 C 
ENDBRANCH   9  10
ENDBRANCH   4   9
TORSDOF 2
ENDMDL
MODEL 9
REMARK VINA RESULT:      -4.2      1.980      3.091
REMARK  2 active torsions:
REMARK  status: ('A' for Active; 'I' for Inactive)
REMARK    1  A    between atoms: O_4  and  C_6 
REMARK    2  A    between atoms: O_4  and  C_7 
ROOT
HETATM    1  N   UNL     1      61.688  10.466   4.222  1.00  0.00    -0.191 NA
HETATM    2  C   UNL     1      62.559   9.702   4.261  1.00  0.00     0.099 C 
HETATM    3  C   UNL     1      63.637   8.757   4.325  1.00  0.00     0.044 A 
HETATM    4  C   UNL     1      65.727   6.891   4.492  1.00  0.00     0.069 A 
HETATM    5  C   UNL     1      64.684   8.949   5.230  1.00  0.00     0.025 A 
HETATM    6  C   UNL     1      63.651   7.643   3.482  1.00  0.00     0.025 A 
HETATM    7  C   UNL     1      65.728   8.020   5.309  1.00  0.00     0.038 A 
HETATM    8  C   UNL     1      64.699   6.721   3.561  1.00  0.00     0.038 A 
ENDROOT
BRANCH   4   9
HETATM    9  O   UNL     1      66.696   5.927   4.487  1.00  0.00    -0.346 OA
BRANCH   9  10
HETATM   10  C   UNL     1      66.673   4.962   5.550  1.00  0.00     0.133 C 
HETATM   11  C   UNL     1      65.235   4.718   6.011  1.00  0.00     0.058 C 
HETATM   12  C   UNL     1      65.202   3.954   7.325  1.00  0.00     0.170 C 
HETATM   13  O   UNL     1      65.972   4.625   8.318  1.00  0.00    -0.391 OA
HETATM   14  C   UNL     1      67.349   4.704   7.961  1.00  0.00     0.170 C 
HETATM   15  C   UNL     1      67.525   5.524   6.695  1.00  0.00     0.058 C 
ENDBRANCH   9  10
ENDBRANCH   4   9
TORSDOF 2
ENDMDL
