MODEL 1
REMARK VINA RESULT:      -5.5      0.000      0.000
REMARK  4 active torsions:
REMARK  status: ('A' for Active; 'I' for Inactive)
REMARK    1  A    between atoms: C_1  and  O_2 
REMARK    2  A    between atoms: O_2  and  C_5 
REMARK    3  A    between atoms: C_3  and  C_9 
REMARK    4  A    between atoms: N_6  and  C_9 
ROOT
HETATM    1  C   UNL     1      62.952   9.146   4.360  1.00  0.00     0.077 A 
HETATM    2  C   UNL     1      62.515  10.487   4.341  1.00  0.00     0.000 A 
HETATM    3  C   UNL     1      62.884   8.393   3.180  1.00  0.00     0.037 A 
HETATM    4  C   UNL     1      61.943  11.002   3.160  1.00  0.00     0.011 A 
HETATM    5  C   UNL     1      61.850  10.232   2.008  1.00  0.00     0.001 A 
HETATM    6  C   UNL     1      62.334   8.927   2.014  1.00  0.00     0.003 A 
ENDROOT
BRANCH   1   7
HETATM    7  O   UNL     1      63.447   8.657   5.538  1.00  0.00    -0.345 OA
BRANCH   7   8
HETATM    8  C   UNL     1      64.474   7.643   5.499  1.00  0.00     0.133 C 
HETATM    9  C   UNL     1      64.114   6.604   6.566  1.00  0.00     0.058 C 
HETATM   10  C   UNL     1      65.278   5.678   6.883  1.00  0.00     0.170 C 
HETATM   11  O   UNL     1      66.438   6.430   7.227  1.00  0.00    -0.391 OA
HETATM   12  C   UNL     1      66.890   7.225   6.134  1.00  0.00     0.170 C 
HETATM   13  C   UNL     1      65.849   8.269   5.765  1.00  0.00     0.058 C 
ENDBRANCH   7   8
ENDBRANCH   1   7
BRANCH   2  14
HETATM   14  C   UNL     1      62.568  11.398   5.549  1.00  0.00     0.271 C 
BRANCH  14  15
HETATM   15  N   UNL     1      63.877  11.353   6.204  1.00  0.00    -0.075 N 
HETATM   16  H   UNL     1      63.920  10.541   6.821  1.00  0.00     0.274 HD
HETATM   17  H   UNL     1      64.014  12.202   6.751  1.00  0.00     0.274 HD
HETATM   18  H   UNL     1      64.609  11.281   5.498  1.00  0.00     0.274 HD
ENDBRANCH  14  15
ENDBRANCH   2  14
TORSDOF 4
ENDMDL
MODEL 2
REMARK VINA RESULT:      -5.0      1.602      2.024
REMARK  4 active torsions:
REMARK  status: ('A' for Active; 'I' for Inactive)
REMARK    1  A    between atoms: C_1  and  O_2 
REMARK    2  A    between atoms: O_2  and  C_5 
REMARK    3  A    between atoms: C_3  and  C_9 
REMARK    4  A    between atoms: N_6  and  C_9 
ROOT
HETATM    1  C   UNL     1      62.665   7.941   3.033  1.00  0.00     0.077 A 
HETATM    2  C   UNL     1      62.255   9.200   2.545  1.00  0.00     0.000 A 
HETATM    3  C   UNL     1      62.908   6.906   2.122  1.00  0.00     0.037 A 
HETATM    4  C   UNL     1      62.019   9.352   1.164  1.00  0.00     0.011 A 
HETATM    5  C   UNL     1      62.230   8.305   0.277  1.00  0.00     0.001 A 
HETATM    6  C   UNL     1      62.689   7.081   0.755  1.00  0.00     0.003 A 
ENDROOT
BRANCH   1   7
HETATM    7  O   UNL     1      62.828   7.809   4.386  1.00  0.00    -0.345 OA
BRANCH   7   8
HETATM    8  C   UNL     1      64.077   7.290   4.893  1.00  0.00     0.133 C 
HETATM    9  C   UNL     1      63.771   6.638   6.245  1.00  0.00     0.058 C 
HETATM   10  C   UNL     1      65.032   6.370   7.052  1.00  0.00     0.170 C 
HETATM   11  O   UNL     1      65.805   7.559   7.185  1.00  0.00    -0.391 OA
HETATM   12  C   UNL     1      66.272   8.024   5.922  1.00  0.00     0.170 C 
HETATM   13  C   UNL     1      65.104   8.421   5.033  1.00  0.00     0.058 C 
ENDBRANCH   7   8
ENDBRANCH   1   7
BRANCH   2  14
HETATM   14  C   UNL     1      61.991  10.395   3.437  1.00  0.00     0.271 C 
BRANCH  14  15
HETATM   15  N   UNL     1      61.637  11.583   2.659  1.00  0.00    -0.075 N 
HETATM   16  H   UNL     1      60.757  11.966   3.005  1.00  0.00     0.274 HD
HETATM   17  H   UNL     1      61.533  11.330   1.677  1.00  0.00     0.274 HD
HETATM   18  H   UNL     1      62.372  12.284   2.754  1.00  0.00     0.274 HD
ENDBRANCH  14  15
ENDBRANCH   2  14
TORSDOF 4
ENDMDL
MODEL 3
REMARK VINA RESULT:      -5.0      1.940      2.950
REMARK  4 active torsions:
REMARK  status: ('A' for Active; 'I' for Inactive)
REMARK    1  A    between atoms: C_1  and  O_2 
REMARK    2  A    between atoms: O_2  and  C_5 
REMARK    3  A    between atoms: C_3  and  C_9 
REMARK    4  A    between atoms: N_6  and  C_9 
ROOT
HETATM    1  C   UNL     1      62.584   8.938   3.728  1.00  0.00     0.077 A 
HETATM    2  C   UNL     1      62.345   8.841   2.341  1.00  0.00     0.000 A 
HETATM    3  C   UNL     1      62.358  10.161   4.372  1.00  0.00     0.037 A 
HETATM    4  C   UNL     1      61.970   9.999   1.631  1.00  0.00     0.011 A 
HETATM    5  C   UNL     1      61.785  11.213   2.278  1.00  0.00     0.001 A 
HETATM    6  C   UNL     1      61.966  11.292   3.655  1.00  0.00     0.003 A 
ENDROOT
BRANCH   1   7
HETATM    7  O   UNL     1      63.004   7.809   4.379  1.00  0.00    -0.345 OA
BRANCH   7   8
HETATM    8  C   UNL     1      63.947   7.938   5.465  1.00  0.00     0.133 C 
HETATM    9  C   UNL     1      65.325   8.159   4.834  1.00  0.00     0.058 C 
HETATM   10  C   UNL     1      66.455   7.954   5.831  1.00  0.00     0.170 C 
HETATM   11  O   UNL     1      66.343   6.682   6.462  1.00  0.00    -0.391 OA
HETATM   12  C   UNL     1      65.150   6.582   7.234  1.00  0.00     0.170 C 
HETATM   13  C   UNL     1      63.924   6.679   6.340  1.00  0.00     0.058 C 
ENDBRANCH   7   8
ENDBRANCH   1   7
BRANCH   2  14
HETATM   14  C   UNL     1      62.530   7.562   1.550  1.00  0.00     0.271 C 
BRANCH  14  15
HETATM   15  N   UNL     1      61.663   6.491   2.044  1.00  0.00    -0.075 N 
HETATM   16  H   UNL     1      62.013   6.156   2.942  1.00  0.00     0.274 HD
HETATM   17  H   UNL     1      61.657   5.722   1.374  1.00  0.00     0.274 HD
HETATM   18  H   UNL     1      60.714   6.846   2.161  1.00  0.00     0.274 HD
ENDBRANCH  14  15
ENDBRANCH   2  14
TORSDOF 4
ENDMDL
MODEL 4
REMARK VINA RESULT:      -4.6      1.765      5.288
REMARK  4 active torsions:
REMARK  status: ('A' for Active; 'I' for Inactive)
REMARK    1  A    between atoms: C_1  and  O_2 
REMARK    2  A    between atoms: O_2  and  C_5 
REMARK    3  A    between atoms: C_3  and  C_9 
REMARK    4  A    between atoms: N_6  and  C_9 
ROOT
HETATM    1  C   UNL     1      63.996   7.543   5.864  1.00  0.00     0.077 A 
HETATM    2  C   UNL     1      65.257   6.921   5.982  1.00  0.00     0.000 A 
HETATM    3  C   UNL     1      62.839   6.772   6.036  1.00  0.00     0.037 A 
HETATM    4  C   UNL     1      65.314   5.528   6.183  1.00  0.00     0.011 A 
HETATM    5  C   UNL     1      64.158   4.770   6.316  1.00  0.00     0.001 A 
HETATM    6  C   UNL     1      62.916   5.396   6.256  1.00  0.00     0.003 A 
ENDROOT
BRANCH   1   7
HETATM    7  O   UNL     1      63.973   8.888   5.609  1.00  0.00    -0.345 OA
BRANCH   7   8
HETATM    8  C   UNL     1      62.818   9.458   4.957  1.00  0.00     0.133 C 
HETATM    9  C   UNL     1      62.900   9.060   3.480  1.00  0.00     0.058 C 
HETATM   10  C   UNL     1      61.957   9.878   2.611  1.00  0.00     0.170 C 
HETATM   11  O   UNL     1      62.172  11.272   2.811  1.00  0.00    -0.391 OA
HETATM   12  C   UNL     1      61.869  11.662   4.147  1.00  0.00     0.170 C 
HETATM   13  C   UNL     1      62.809  10.982   5.130  1.00  0.00     0.058 C 
ENDBRANCH   7   8
ENDBRANCH   1   7
BRANCH   2  14
HETATM   14  C   UNL     1      66.569   7.664   5.841  1.00  0.00     0.271 C 
BRANCH  14  15
HETATM   15  N   UNL     1      66.823   8.536   6.990  1.00  0.00    -0.075 N 
HETATM   16  H   UNL     1      67.769   8.376   7.336  1.00  0.00     0.274 HD
HETATM   17  H   UNL     1      66.152   8.330   7.729  1.00  0.00     0.274 HD
HETATM   18  H   UNL     1      66.726   9.511   6.705  1.00  0.00     0.274 HD
ENDBRANCH  14  15
ENDBRANCH   2  14
TORSDOF 4
ENDMDL
MODEL 5
REMARK VINA RESULT:      -4.5      2.877      5.610
REMARK  4 active torsions:
REMARK  status: ('A' for Active; 'I' for Inactive)
REMARK    1  A    between atoms: C_1  and  O_2 
REMARK    2  A    between atoms: O_2  and  C_5 
REMARK    3  A    between atoms: C_3  and  C_9 
REMARK    4  A    between atoms: N_6  and  C_9 
ROOT
HETATM    1  C   UNL     1      62.438   8.190   4.097  1.00  0.00     0.077 A 
HETATM    2  C   UNL     1      63.237   9.155   4.747  1.00  0.00     0.000 A 
HETATM    3  C   UNL     1      62.972   6.917   3.858  1.00  0.00     0.037 A 
HETATM    4  C   UNL     1      64.575   8.837   5.055  1.00  0.00     0.011 A 
HETATM    5  C   UNL     1      65.101   7.582   4.778  1.00  0.00     0.001 A 
HETATM    6  C   UNL     1      64.293   6.614   4.189  1.00  0.00     0.003 A 
ENDROOT
BRANCH   1   7
HETATM    7  O   UNL     1      61.162   8.548   3.757  1.00  0.00    -0.345 OA
BRANCH   7   8
HETATM    8  C   UNL     1      60.437   7.738   2.808  1.00  0.00     0.133 C 
HETATM    9  C   UNL     1      60.514   8.458   1.458  1.00  0.00     0.058 C 
HETATM   10  C   UNL     1      59.506   7.914   0.457  1.00  0.00     0.170 C 
HETATM   11  O   UNL     1      58.193   7.931   1.008  1.00  0.00    -0.391 OA
HETATM   12  C   UNL     1      58.087   7.071   2.138  1.00  0.00     0.170 C 
HETATM   13  C   UNL     1      58.985   7.555   3.266  1.00  0.00     0.058 C 
ENDBRANCH   7   8
ENDBRANCH   1   7
BRANCH   2  14
HETATM   14  C   UNL     1      62.753  10.551   5.079  1.00  0.00     0.271 C 
BRANCH  14  15
HETATM   15  N   UNL     1      63.611  11.199   6.073  1.00  0.00    -0.075 N 
HETATM   16  H   UNL     1      63.831  12.147   5.766  1.00  0.00     0.274 HD
HETATM   17  H   UNL     1      64.475  10.667   6.176  1.00  0.00     0.274 HD
HETATM   18  H   UNL     1      63.126  11.237   6.969  1.00  0.00     0.274 HD
ENDBRANCH  14  15
ENDBRANCH   2  14
TORSDOF 4
ENDMDL
MODEL 6
REMARK VINA RESULT:      -4.4      1.982      2.831
REMARK  4 active torsions:
REMARK  status: ('A' for Active; 'I' for Inactive)
REMARK    1  A    between atoms: C_1  and  O_2 
REMARK    2  A    between atoms: O_2  and  C_5 
REMARK    3  A    between atoms: C_3  and  C_9 
REMARK    4  A    between atoms: N_6  and  C_9 
ROOT
HETATM    1  C   UNL     1      63.091   7.099   6.137  1.00  0.00     0.077 A 
HETATM    2  C   UNL     1      62.893   8.041   5.105  1.00  0.00     0.000 A 
HETATM    3  C   UNL     1      62.209   6.017   6.247  1.00  0.00     0.037 A 
HETATM    4  C   UNL     1      61.764   7.911   4.271  1.00  0.00     0.011 A 
HETATM    5  C   UNL     1      60.879   6.851   4.415  1.00  0.00     0.001 A 
HETATM    6  C   UNL     1      61.108   5.893   5.398  1.00  0.00     0.003 A 
ENDROOT
BRANCH   1   7
HETATM    7  O   UNL     1      64.162   7.286   6.968  1.00  0.00    -0.345 OA
BRANCH   7   8
HETATM    8  C   UNL     1      65.199   6.282   7.010  1.00  0.00     0.133 C 
HETATM    9  C   UNL     1      66.052   6.574   8.248  1.00  0.00     0.058 C 
HETATM   10  C   UNL     1      67.376   5.828   8.224  1.00  0.00     0.170 C 
HETATM   11  O   UNL     1      68.075   6.085   7.010  1.00  0.00    -0.391 OA
HETATM   12  C   UNL     1      67.359   5.596   5.879  1.00  0.00     0.170 C 
HETATM   13  C   UNL     1      66.036   6.330   5.726  1.00  0.00     0.058 C 
ENDBRANCH   7   8
ENDBRANCH   1   7
BRANCH   2  14
HETATM   14  C   UNL     1      63.800   9.232   4.878  1.00  0.00     0.271 C 
BRANCH  14  15
HETATM   15  N   UNL     1      63.522  10.312   5.826  1.00  0.00    -0.075 N 
HETATM   16  H   UNL     1      63.606   9.958   6.780  1.00  0.00     0.274 HD
HETATM   17  H   UNL     1      62.577  10.663   5.677  1.00  0.00     0.274 HD
HETATM   18  H   UNL     1      64.192  11.069   5.686  1.00  0.00     0.274 HD
ENDBRANCH  14  15
ENDBRANCH   2  14
TORSDOF 4
ENDMDL
MODEL 7
REMARK VINA RESULT:      -4.4      2.311      2.458
REMARK  4 active torsions:
REMARK  status: ('A' for Active; 'I' for Inactive)
REMARK    1  A    between atoms: C_1  and  O_2 
REMARK    2  A    between atoms: O_2  and  C_5 
REMARK    3  A    between atoms: C_3  and  C_9 
REMARK    4  A    between atoms: N_6  and  C_9 
ROOT
HETATM    1  C   UNL     1      62.848   8.454   3.199  1.00  0.00     0.077 A 
HETATM    2  C   UNL     1      62.631   9.618   3.967  1.00  0.00     0.000 A 
HETATM    3  C   UNL     1      62.558   8.481   1.829  1.00  0.00     0.037 A 
HETATM    4  C   UNL     1      62.048  10.743   3.350  1.00  0.00     0.011 A 
HETATM    5  C   UNL     1      61.733  10.742   1.998  1.00  0.00     0.001 A 
HETATM    6  C   UNL     1      62.000   9.612   1.232  1.00  0.00     0.003 A 
ENDROOT
BRANCH   1   7
HETATM    7  O   UNL     1      63.360   7.358   3.840  1.00  0.00    -0.345 OA
BRANCH   7   8
HETATM    8  C   UNL     1      64.402   6.594   3.195  1.00  0.00     0.133 C 
HETATM    9  C   UNL     1      63.879   5.161   3.053  1.00  0.00     0.058 C 
HETATM   10  C   UNL     1      64.988   4.174   2.724  1.00  0.00     0.170 C 
HETATM   11  O   UNL     1      66.047   4.275   3.671  1.00  0.00    -0.391 OA
HETATM   12  C   UNL     1      66.671   5.554   3.626  1.00  0.00     0.170 C 
HETATM   13  C   UNL     1      65.689   6.643   4.028  1.00  0.00     0.058 C 
ENDBRANCH   7   8
ENDBRANCH   1   7
BRANCH   2  14
HETATM   14  C   UNL     1      62.935   9.708   5.448  1.00  0.00     0.271 C 
BRANCH  14  15
HETATM   15  N   UNL     1      64.353   9.468   5.725  1.00  0.00    -0.075 N 
HETATM   16  H   UNL     1      64.654  10.063   6.496  1.00  0.00     0.274 HD
HETATM   17  H   UNL     1      64.903   9.683   4.895  1.00  0.00     0.274 HD
HETATM   18  H   UNL     1      64.489   8.489   5.979  1.00  0.00     0.274 HD
ENDBRANCH  14  15
ENDBRANCH   2  14
TORSDOF 4
ENDMDL
MODEL 8
REMARK VINA RESULT:      -4.3      2.790      6.437
REMARK  4 active torsions:
REMARK  status: ('A' for Active; 'I' for Inactive)
REMARK    1  A    between atoms: C_1  and  O_2 
REMARK    2  A    between atoms: O_2  and  C_5 
REMARK    3  A    between atoms: C_3  and  C_9 
REMARK    4  A    between atoms: N_6  and  C_9 
ROOT
HETATM    1  C   UNL     1      66.694   6.334   6.836  1.00  0.00     0.077 A 
HETATM    2  C   UNL     1      67.341   5.107   6.575  1.00  0.00     0.000 A 
HETATM    3  C   UNL     1      66.805   6.902   8.111  1.00  0.00     0.037 A 
HETATM    4  C   UNL     1      68.004   4.448   7.630  1.00  0.00     0.011 A 
HETATM    5  C   UNL     1      68.075   5.007   8.899  1.00  0.00     0.001 A 
HETATM    6  C   UNL     1      67.484   6.245   9.138  1.00  0.00     0.003 A 
ENDROOT
BRANCH   1   7
HETATM    7  O   UNL     1      66.008   6.920   5.807  1.00  0.00    -0.345 OA
BRANCH   7   8
HETATM    8  C   UNL     1      64.776   7.616   6.094  1.00  0.00     0.133 C 
HETATM    9  C   UNL     1      63.656   6.571   6.053  1.00  0.00     0.058 C 
HETATM   10  C   UNL     1      62.277   7.209   5.981  1.00  0.00     0.170 C 
HETATM   11  O   UNL     1      62.205   8.126   4.894  1.00  0.00    -0.391 OA
HETATM   12  C   UNL     1      63.103   9.218   5.067  1.00  0.00     0.170 C 
HETATM   13  C   UNL     1      64.544   8.730   5.065  1.00  0.00     0.058 C 
ENDBRANCH   7   8
ENDBRANCH   1   7
BRANCH   2  14
HETATM   14  C   UNL     1      67.310   4.419   5.227  1.00  0.00     0.271 C 
BRANCH  14  15
HETATM   15  N   UNL     1      67.642   5.342   4.140  1.00  0.00    -0.075 N 
HETATM   16  H   UNL     1      66.922   6.061   4.071  1.00  0.00     0.274 HD
HETATM   17  H   UNL     1      67.694   4.828   3.261  1.00  0.00     0.274 HD
HETATM   18  H   UNL     1      68.543   5.782   4.330  1.00  0.00     0.274 HD
ENDBRANCH  14  15
ENDBRANCH   2  14
TORSDOF 4
ENDMDL
MODEL 9
REMARK VINA RESULT:      -4.2      2.038      2.682
REMARK  4 active torsions:
REMARK  status: ('A' for Active; 'I' for Inactive)
REMARK    1  A    between atoms: C_1  and  O_2 
REMARK    2  A    between atoms: O_2  and  C_5 
REMARK    3  A    between atoms: C_3  and  C_9 
REMARK    4  A    between atoms: N_6  and  C_9 
ROOT
HETATM    1  C   UNL     1      63.030   8.365   5.460  1.00  0.00     0.077 A 
HETATM    2  C   UNL     1      62.062   7.561   4.820  1.00  0.00     0.000 A 
HETATM    3  C   UNL     1      63.119   9.720   5.119  1.00  0.00     0.037 A 
HETATM    4  C   UNL     1      61.274   8.126   3.797  1.00  0.00     0.011 A 
HETATM    5  C   UNL     1      61.399   9.463   3.445  1.00  0.00     0.001 A 
HETATM    6  C   UNL     1      62.315  10.267   4.117  1.00  0.00     0.003 A 
ENDROOT
BRANCH   1   7
HETATM    7  O   UNL     1      63.820   7.772   6.407  1.00  0.00    -0.345 OA
BRANCH   7   8
HETATM    8  C   UNL     1      65.012   7.074   5.988  1.00  0.00     0.133 C 
HETATM    9  C   UNL     1      65.263   5.966   7.015  1.00  0.00     0.058 C 
HETATM   10  C   UNL     1      66.665   5.386   6.905  1.00  0.00     0.170 C 
HETATM   11  O   UNL     1      67.642   6.420   6.971  1.00  0.00    -0.391 OA
HETATM   12  C   UNL     1      67.530   7.318   5.870  1.00  0.00     0.170 C 
HETATM   13  C   UNL     1      66.196   8.046   5.907  1.00  0.00     0.058 C 
ENDBRANCH   7   8
ENDBRANCH   1   7
BRANCH   2  14
HETATM   14  C   UNL     1      61.861   6.093   5.131  1.00  0.00     0.271 C 
BRANCH  14  15
HETATM   15  N   UNL     1      61.461   5.884   6.524  1.00  0.00    -0.075 N 
HETATM   16  H   UNL     1      62.016   5.128   6.927  1.00  0.00     0.274 HD
HETATM   17  H   UNL     1      60.473   5.637   6.562  1.00  0.00     0.274 HD
HETATM   18  H   UNL     1      61.618   6.740   7.056  1.00  0.00     0.274 HD
ENDBRANCH  14  15
ENDBRANCH   2  14
TORSDOF 4
ENDMDL
