MODEL 1
REMARK VINA RESULT:      -4.6      0.000      0.000
REMARK  1 active torsions:
REMARK  status: ('A' for Active; 'I' for Inactive)
REMARK    1  A    between atoms: N_1  and  C_6 
ROOT
HETATM    1  N   UNL     1      61.700  10.997   3.950  1.00  0.00    -0.190 NA
HETATM    2  N   UNL     1      64.320   9.367   5.450  1.00  0.00    -0.355 N 
ATOM      3  HN  UNL     1      64.297  10.228   5.997  1.00  0.00     0.166 HD
HETATM    4  C   UNL     1      62.489  10.179   4.192  1.00  0.00     0.117 C 
HETATM    5  C   UNL     1      65.348   7.179   4.998  1.00  0.00     0.045 A 
HETATM    6  C   UNL     1      65.231   8.389   5.692  1.00  0.00     0.118 A 
HETATM    7  C   UNL     1      63.445   9.138   4.447  1.00  0.00     0.113 A 
HETATM    8  C   UNL     1      64.407   7.002   3.977  1.00  0.00     0.034 A 
HETATM    9  C   UNL     1      63.449   7.979   3.690  1.00  0.00     0.043 A 
ENDROOT
BRANCH   5  10
HETATM   10  N   UNL     1      66.303   6.228   5.283  1.00  0.00    -0.376 N 
HETATM   11  C   UNL     1      67.685   6.577   5.653  1.00  0.00     0.149 C 
HETATM   12  C   UNL     1      68.026   5.949   7.016  1.00  0.00     0.187 C 
HETATM   13  O   UNL     1      67.808   4.529   7.018  1.00  0.00    -0.388 OA
HETATM   14  C   UNL     1      66.431   4.236   6.731  1.00  0.00     0.187 C 
HETATM   15  C   UNL     1      66.014   4.786   5.359  1.00  0.00     0.149 C 
ENDBRANCH   5  10
TORSDOF 1
ENDMDL
MODEL 2
REMARK VINA RESULT:      -4.5      1.416      2.105
REMARK  1 active torsions:
REMARK  status: ('A' for Active; 'I' for Inactive)
REMARK    1  A    between atoms: N_1  and  C_6 
ROOT
HETATM    1  N   UNL     1      61.771  10.424   3.823  1.00  0.00    -0.190 NA
HETATM    2  N   UNL     1      62.685   7.718   5.723  1.00  0.00    -0.355 N 
ATOM      3  HN  UNL     1      61.672   7.600   5.705  1.00  0.00     0.166 HD
HETATM    4  C   UNL     1      62.432   9.658   4.395  1.00  0.00     0.117 C 
HETATM    5  C   UNL     1      64.889   6.928   6.477  1.00  0.00     0.045 A 
HETATM    6  C   UNL     1      63.494   6.852   6.387  1.00  0.00     0.118 A 
HETATM    7  C   UNL     1      63.293   8.743   5.088  1.00  0.00     0.113 A 
HETATM    8  C   UNL     1      65.456   8.009   5.791  1.00  0.00     0.034 A 
HETATM    9  C   UNL     1      64.666   8.926   5.093  1.00  0.00     0.043 A 
ENDROOT
BRANCH   5  10
HETATM   10  N   UNL     1      65.657   6.024   7.176  1.00  0.00    -0.376 N 
HETATM   11  C   UNL     1      65.379   4.577   7.173  1.00  0.00     0.149 C 
HETATM   12  C   UNL     1      66.627   3.816   6.692  1.00  0.00     0.187 C 
HETATM   13  O   UNL     1      67.786   4.143   7.476  1.00  0.00    -0.388 OA
HETATM   14  C   UNL     1      68.068   5.549   7.388  1.00  0.00     0.187 C 
HETATM   15  C   UNL     1      66.888   6.391   7.896  1.00  0.00     0.149 C 
ENDBRANCH   5  10
TORSDOF 1
ENDMDL
MODEL 3
REMARK VINA RESULT:      -4.4      3.409      5.999
REMARK  1 active torsions:
REMARK  status: ('A' for Active; 'I' for Inactive)
REMARK    1  A    between atoms: N_1  and  C_6 
ROOT
HETATM    1  N   UNL     1      66.782   6.288   8.068  1.00  0.00    -0.190 NA
HETATM    2  N   UNL     1      63.727   6.696   6.560  1.00  0.00    -0.355 N 
ATOM      3  HN  UNL     1      63.503   5.974   7.246  1.00  0.00     0.166 HD
HETATM    4  C   UNL     1      65.954   6.688   7.358  1.00  0.00     0.117 C 
HETATM    5  C   UNL     1      63.000   8.167   4.728  1.00  0.00     0.045 A 
HETATM    6  C   UNL     1      62.793   7.185   5.705  1.00  0.00     0.118 A 
HETATM    7  C   UNL     1      64.969   7.215   6.456  1.00  0.00     0.113 A 
HETATM    8  C   UNL     1      64.306   8.668   4.678  1.00  0.00     0.034 A 
HETATM    9  C   UNL     1      65.302   8.197   5.538  1.00  0.00     0.043 A 
ENDROOT
BRANCH   5  10
HETATM   10  N   UNL     1      62.013   8.616   3.880  1.00  0.00    -0.376 N 
HETATM   11  C   UNL     1      62.051   9.950   3.255  1.00  0.00     0.149 C 
HETATM   12  C   UNL     1      61.971   9.802   1.725  1.00  0.00     0.187 C 
HETATM   13  O   UNL     1      60.816   9.048   1.322  1.00  0.00    -0.388 OA
HETATM   14  C   UNL     1      60.859   7.729   1.889  1.00  0.00     0.187 C 
HETATM   15  C   UNL     1      60.891   7.778   3.424  1.00  0.00     0.149 C 
ENDBRANCH   5  10
TORSDOF 1
ENDMDL
MODEL 4
REMARK VINA RESULT:      -4.4      4.873      6.456
REMARK  1 active torsions:
REMARK  status: ('A' for Active; 'I' for Inactive)
REMARK    1  A    between atoms: N_1  and  C_6 
ROOT
HETATM    1  N   UNL     1      64.073  11.689   6.613  1.00  0.00    -0.190 NA
HETATM    2  N   UNL     1      62.821   8.828   5.192  1.00  0.00    -0.355 N 
ATOM      3  HN  UNL     1      63.298   8.439   6.006  1.00  0.00     0.166 HD
HETATM    4  C   UNL     1      63.513  10.982   5.880  1.00  0.00     0.117 C 
HETATM    5  C   UNL     1      61.484   8.471   3.158  1.00  0.00     0.045 A 
HETATM    6  C   UNL     1      62.163   8.038   4.304  1.00  0.00     0.118 A 
HETATM    7  C   UNL     1      62.810  10.155   4.941  1.00  0.00     0.113 A 
HETATM    8  C   UNL     1      61.505   9.857   2.961  1.00  0.00     0.034 A 
HETATM    9  C   UNL     1      62.168  10.711   3.847  1.00  0.00     0.043 A 
ENDROOT
BRANCH   5  10
HETATM   10  N   UNL     1      60.843   7.620   2.287  1.00  0.00    -0.376 N 
HETATM   11  C   UNL     1      60.262   6.335   2.715  1.00  0.00     0.149 C 
HETATM   12  C   UNL     1      58.768   6.300   2.346  1.00  0.00     0.187 C 
HETATM   13  O   UNL     1      58.559   6.548   0.946  1.00  0.00    -0.388 OA
HETATM   14  C   UNL     1      59.070   7.842   0.587  1.00  0.00     0.187 C 
HETATM   15  C   UNL     1      60.574   7.953   0.878  1.00  0.00     0.149 C 
ENDBRANCH   5  10
TORSDOF 1
ENDMDL
MODEL 5
REMARK VINA RESULT:      -4.3      4.219      5.863
REMARK  1 active torsions:
REMARK  status: ('A' for Active; 'I' for Inactive)
REMARK    1  A    between atoms: N_1  and  C_6 
ROOT
HETATM    1  N   UNL     1      56.343   6.700   0.934  1.00  0.00    -0.190 NA
HETATM    2  N   UNL     1      58.812   7.554   3.159  1.00  0.00    -0.355 N 
ATOM      3  HN  UNL     1      58.092   7.218   3.799  1.00  0.00     0.166 HD
HETATM    4  C   UNL     1      57.358   7.080   1.355  1.00  0.00     0.117 C 
HETATM    5  C   UNL     1      61.055   8.502   2.815  1.00  0.00     0.045 A 
HETATM    6  C   UNL     1      60.008   8.016   3.607  1.00  0.00     0.118 A 
HETATM    7  C   UNL     1      58.627   7.563   1.821  1.00  0.00     0.113 A 
HETATM    8  C   UNL     1      60.801   8.477   1.439  1.00  0.00     0.034 A 
HETATM    9  C   UNL     1      59.587   8.010   0.929  1.00  0.00     0.043 A 
ENDROOT
BRANCH   5  10
HETATM   10  N   UNL     1      62.244   8.969   3.329  1.00  0.00    -0.376 N 
HETATM   11  C   UNL     1      62.403  10.341   3.842  1.00  0.00     0.149 C 
HETATM   12  C   UNL     1      62.895  10.290   5.300  1.00  0.00     0.187 C 
HETATM   13  O   UNL     1      64.102   9.521   5.428  1.00  0.00    -0.388 OA
HETATM   14  C   UNL     1      63.882   8.170   4.991  1.00  0.00     0.187 C 
HETATM   15  C   UNL     1      63.433   8.121   3.524  1.00  0.00     0.149 C 
ENDBRANCH   5  10
TORSDOF 1
ENDMDL
MODEL 6
REMARK VINA RESULT:      -4.2      1.766      2.289
REMARK  1 active torsions:
REMARK  status: ('A' for Active; 'I' for Inactive)
REMARK    1  A    between atoms: N_1  and  C_6 
ROOT
HETATM    1  N   UNL     1      61.000   8.772   0.980  1.00  0.00    -0.190 NA
HETATM    2  N   UNL     1      62.864   9.155   3.834  1.00  0.00    -0.355 N 
ATOM      3  HN  UNL     1      62.294  10.000   3.868  1.00  0.00     0.166 HD
HETATM    4  C   UNL     1      61.772   8.562   1.822  1.00  0.00     0.117 C 
HETATM    5  C   UNL     1      64.618   7.749   4.833  1.00  0.00     0.045 A 
HETATM    6  C   UNL     1      63.786   8.875   4.792  1.00  0.00     0.118 A 
HETATM    7  C   UNL     1      62.743   8.255   2.834  1.00  0.00     0.113 A 
HETATM    8  C   UNL     1      64.436   6.854   3.773  1.00  0.00     0.034 A 
HETATM    9  C   UNL     1      63.500   7.098   2.764  1.00  0.00     0.043 A 
ENDROOT
BRANCH   5  10
HETATM   10  N   UNL     1      65.544   7.524   5.827  1.00  0.00    -0.376 N 
HETATM   11  C   UNL     1      65.230   6.753   7.044  1.00  0.00     0.149 C 
HETATM   12  C   UNL     1      66.218   5.580   7.176  1.00  0.00     0.187 C 
HETATM   13  O   UNL     1      67.583   6.028   7.156  1.00  0.00    -0.388 OA
HETATM   14  C   UNL     1      67.868   6.705   5.921  1.00  0.00     0.187 C 
HETATM   15  C   UNL     1      66.957   7.926   5.726  1.00  0.00     0.149 C 
ENDBRANCH   5  10
TORSDOF 1
ENDMDL
MODEL 7
REMARK VINA RESULT:      -4.2      1.750      2.153
REMARK  1 active torsions:
REMARK  status: ('A' for Active; 'I' for Inactive)
REMARK    1  A    between atoms: N_1  and  C_6 
ROOT
HETATM    1  N   UNL     1      61.789  11.406   3.841  1.00  0.00    -0.190 NA
HETATM    2  N   UNL     1      62.110   8.028   4.349  1.00  0.00    -0.355 N 
ATOM      3  HN  UNL     1      61.166   8.070   3.962  1.00  0.00     0.166 HD
HETATM    4  C   UNL     1      62.247  10.380   4.136  1.00  0.00     0.117 C 
HETATM    5  C   UNL     1      63.960   6.688   5.259  1.00  0.00     0.045 A 
HETATM    6  C   UNL     1      62.680   6.851   4.717  1.00  0.00     0.118 A 
HETATM    7  C   UNL     1      62.858   9.139   4.521  1.00  0.00     0.113 A 
HETATM    8  C   UNL     1      64.685   7.877   5.404  1.00  0.00     0.034 A 
HETATM    9  C   UNL     1      64.142   9.112   5.039  1.00  0.00     0.043 A 
ENDROOT
BRANCH   5  10
HETATM   10  N   UNL     1      64.481   5.467   5.625  1.00  0.00    -0.376 N 
HETATM   11  C   UNL     1      65.865   5.306   6.104  1.00  0.00     0.149 C 
HETATM   12  C   UNL     1      65.853   4.644   7.494  1.00  0.00     0.187 C 
HETATM   13  O   UNL     1      65.135   3.398   7.484  1.00  0.00    -0.388 OA
HETATM   14  C   UNL     1      63.771   3.612   7.087  1.00  0.00     0.187 C 
HETATM   15  C   UNL     1      63.685   4.229   5.683  1.00  0.00     0.149 C 
ENDBRANCH   5  10
TORSDOF 1
ENDMDL
MODEL 8
REMARK VINA RESULT:      -4.1      3.294      4.451
REMARK  1 active torsions:
REMARK  status: ('A' for Active; 'I' for Inactive)
REMARK    1  A    between atoms: N_1  and  C_6 
ROOT
HETATM    1  N   UNL     1      57.569   7.373   1.126  1.00  0.00    -0.190 NA
HETATM    2  N   UNL     1      60.417   8.633   2.564  1.00  0.00    -0.355 N 
ATOM      3  HN  UNL     1      60.256   9.325   1.832  1.00  0.00     0.166 HD
HETATM    4  C   UNL     1      58.479   7.488   1.838  1.00  0.00     0.117 C 
HETATM    5  C   UNL     1      61.786   7.827   4.442  1.00  0.00     0.045 A 
HETATM    6  C   UNL     1      61.475   8.723   3.412  1.00  0.00     0.118 A 
HETATM    7  C   UNL     1      59.591   7.580   2.743  1.00  0.00     0.113 A 
HETATM    8  C   UNL     1      60.885   6.763   4.577  1.00  0.00     0.034 A 
HETATM    9  C   UNL     1      59.782   6.628   3.729  1.00  0.00     0.043 A 
ENDROOT
BRANCH   5  10
HETATM   10  N   UNL     1      62.881   7.964   5.265  1.00  0.00    -0.376 N 
HETATM   11  C   UNL     1      63.125   7.078   6.417  1.00  0.00     0.149 C 
HETATM   12  C   UNL     1      64.509   6.421   6.275  1.00  0.00     0.187 C 
HETATM   13  O   UNL     1      65.550   7.399   6.116  1.00  0.00    -0.388 OA
HETATM   14  C   UNL     1      65.316   8.189   4.939  1.00  0.00     0.187 C 
HETATM   15  C   UNL     1      63.969   8.924   5.014  1.00  0.00     0.149 C 
ENDBRANCH   5  10
TORSDOF 1
ENDMDL
MODEL 9
REMARK VINA RESULT:      -3.8      1.797      2.536
REMARK  1 active torsions:
REMARK  status: ('A' for Active; 'I' for Inactive)
REMARK    1  A    between atoms: N_1  and  C_6 
ROOT
HETATM    1  N   UNL     1      63.442  10.162   5.372  1.00  0.00    -0.190 NA
HETATM    2  N   UNL     1      64.469   7.140   6.629  1.00  0.00    -0.355 N 
ATOM      3  HN  UNL     1      63.546   7.216   7.057  1.00  0.00     0.166 HD
HETATM    4  C   UNL     1      64.100   9.228   5.582  1.00  0.00     0.117 C 
HETATM    5  C   UNL     1      66.556   5.875   6.323  1.00  0.00     0.045 A 
HETATM    6  C   UNL     1      65.276   6.070   6.855  1.00  0.00     0.118 A 
HETATM    7  C   UNL     1      64.955   8.097   5.810  1.00  0.00     0.113 A 
HETATM    8  C   UNL     1      66.996   6.900   5.477  1.00  0.00     0.034 A 
HETATM    9  C   UNL     1      66.202   8.020   5.214  1.00  0.00     0.043 A 
ENDROOT
BRANCH   5  10
HETATM   10  N   UNL     1      67.333   4.772   6.597  1.00  0.00    -0.376 N 
HETATM   11  C   UNL     1      68.075   4.618   7.861  1.00  0.00     0.149 C 
HETATM   12  C   UNL     1      67.656   3.304   8.546  1.00  0.00     0.187 C 
HETATM   13  O   UNL     1      67.827   2.173   7.677  1.00  0.00    -0.388 OA
HETATM   14  C   UNL     1      67.026   2.327   6.493  1.00  0.00     0.187 C 
HETATM   15  C   UNL     1      67.411   3.594   5.716  1.00  0.00     0.149 C 
ENDBRANCH   5  10
TORSDOF 1
ENDMDL
