MODEL 1
REMARK VINA RESULT:      -5.9      0.000      0.000
REMARK  4 active torsions:
REMARK  status: ('A' for Active; 'I' for Inactive)
REMARK    1  A    between atoms: O_1  and  C_2 
REMARK    2  A    between atoms: O_1  and  C_4 
REMARK    3  A    between atoms: N_3  and  C_10 
REMARK    4  A    between atoms: C_5  and  C_10 
ROOT
HETATM    1  C   UNL     1      63.524   7.910   5.348  1.00  0.00     0.076 A 
HETATM    2  C   UNL     1      65.989   7.080   6.427  1.00  0.00    -0.033 A 
HETATM    3  C   UNL     1      64.709   8.536   4.959  1.00  0.00     0.038 A 
HETATM    4  C   UNL     1      63.563   6.926   6.339  1.00  0.00     0.038 A 
HETATM    5  C   UNL     1      64.786   6.516   6.878  1.00  0.00     0.011 A 
HETATM    6  C   UNL     1      65.934   8.097   5.463  1.00  0.00     0.011 A 
ENDROOT
BRANCH   1   7
HETATM    7  O   UNL     1      62.280   8.226   4.853  1.00  0.00    -0.311 OA
BRANCH   7   8
HETATM    8  C   UNL     1      62.153   9.125   3.821  1.00  0.00     0.076 A 
HETATM    9  C   UNL     1      62.090   8.777   2.467  1.00  0.00     0.037 A 
HETATM   10  C   UNL     1      62.002   9.771   1.490  1.00  0.00     0.003 A 
HETATM   11  C   UNL     1      61.912  11.110   1.864  1.00  0.00     0.000 A 
HETATM   12  C   UNL     1      61.906  11.456   3.216  1.00  0.00     0.003 A 
HETATM   13  C   UNL     1      62.027  10.465   4.192  1.00  0.00     0.037 A 
ENDBRANCH   7   8
ENDBRANCH   1   7
BRANCH   2  14
HETATM   14  C   UNL     1      67.319   6.577   6.938  1.00  0.00     0.270 C 
BRANCH  14  15
HETATM   15  N   UNL     1      67.596   7.048   8.295  1.00  0.00    -0.075 N 
HETATM   16  C   UNL     1      67.910   5.937   9.179  1.00  0.00     0.267 C 
HETATM   17  H   UNL     1      66.775   7.537   8.653  1.00  0.00     0.277 HD
HETATM   18  H   UNL     1      68.400   7.677   8.263  1.00  0.00     0.277 HD
ENDBRANCH  14  15
ENDBRANCH   2  14
TORSDOF 4
ENDMDL
MODEL 2
REMARK VINA RESULT:      -5.6      0.641      1.382
REMARK  4 active torsions:
REMARK  status: ('A' for Active; 'I' for Inactive)
REMARK    1  A    between atoms: O_1  and  C_2 
REMARK    2  A    between atoms: O_1  and  C_4 
REMARK    3  A    between atoms: N_3  and  C_10 
REMARK    4  A    between atoms: C_5  and  C_10 
ROOT
HETATM    1  C   UNL     1      63.766   8.209   5.687  1.00  0.00     0.076 A 
HETATM    2  C   UNL     1      65.970   6.567   6.298  1.00  0.00    -0.033 A 
HETATM    3  C   UNL     1      63.571   6.963   6.285  1.00  0.00     0.038 A 
HETATM    4  C   UNL     1      65.056   8.598   5.319  1.00  0.00     0.038 A 
HETATM    5  C   UNL     1      66.151   7.781   5.618  1.00  0.00     0.011 A 
HETATM    6  C   UNL     1      64.667   6.168   6.624  1.00  0.00     0.011 A 
ENDROOT
BRANCH   1   7
HETATM    7  O   UNL     1      62.755   9.090   5.382  1.00  0.00    -0.311 OA
BRANCH   7   8
HETATM    8  C   UNL     1      62.468   9.387   4.070  1.00  0.00     0.076 A 
HETATM    9  C   UNL     1      62.463   8.454   3.028  1.00  0.00     0.037 A 
HETATM   10  C   UNL     1      62.196   8.864   1.720  1.00  0.00     0.003 A 
HETATM   11  C   UNL     1      61.872  10.194   1.459  1.00  0.00     0.000 A 
HETATM   12  C   UNL     1      61.809  11.114   2.506  1.00  0.00     0.003 A 
HETATM   13  C   UNL     1      62.107  10.710   3.809  1.00  0.00     0.037 A 
ENDBRANCH   7   8
ENDBRANCH   1   7
BRANCH   2  14
HETATM   14  C   UNL     1      67.157   5.725   6.705  1.00  0.00     0.270 C 
BRANCH  14  15
HETATM   15  N   UNL     1      68.054   6.447   7.608  1.00  0.00    -0.075 N 
HETATM   16  C   UNL     1      67.869   6.012   8.984  1.00  0.00     0.267 C 
HETATM   17  H   UNL     1      67.859   7.446   7.545  1.00  0.00     0.277 HD
HETATM   18  H   UNL     1      69.017   6.254   7.332  1.00  0.00     0.277 HD
ENDBRANCH  14  15
ENDBRANCH   2  14
TORSDOF 4
ENDMDL
MODEL 3
REMARK VINA RESULT:      -5.3      2.933      6.721
REMARK  4 active torsions:
REMARK  status: ('A' for Active; 'I' for Inactive)
REMARK    1  A    between atoms: O_1  and  C_2 
REMARK    2  A    between atoms: O_1  and  C_4 
REMARK    3  A    between atoms: N_3  and  C_10 
REMARK    4  A    between atoms: C_5  and  C_10 
ROOT
HETATM    1  C   UNL     1      64.031   8.884   4.800  1.00  0.00     0.076 A 
HETATM    2  C   UNL     1      62.165   9.002   2.696  1.00  0.00    -0.033 A 
HETATM    3  C   UNL     1      63.952   7.847   3.871  1.00  0.00     0.038 A 
HETATM    4  C   UNL     1      63.120   9.940   4.727  1.00  0.00     0.038 A 
HETATM    5  C   UNL     1      62.190   9.997   3.684  1.00  0.00     0.011 A 
HETATM    6  C   UNL     1      63.055   7.925   2.804  1.00  0.00     0.011 A 
ENDROOT
BRANCH   1   7
HETATM    7  O   UNL     1      64.929   8.929   5.841  1.00  0.00    -0.311 OA
BRANCH   7   8
HETATM    8  C   UNL     1      65.851   7.920   6.004  1.00  0.00     0.076 A 
HETATM    9  C   UNL     1      67.088   7.864   5.355  1.00  0.00     0.037 A 
HETATM   10  C   UNL     1      67.938   6.774   5.558  1.00  0.00     0.003 A 
HETATM   11  C   UNL     1      67.582   5.770   6.457  1.00  0.00     0.000 A 
HETATM   12  C   UNL     1      66.379   5.858   7.158  1.00  0.00     0.003 A 
HETATM   13  C   UNL     1      65.514   6.932   6.931  1.00  0.00     0.037 A 
ENDBRANCH   7   8
ENDBRANCH   1   7
BRANCH   2  14
HETATM   14  C   UNL     1      61.225   9.106   1.516  1.00  0.00     0.270 C 
BRANCH  14  15
HETATM   15  N   UNL     1      59.945   8.449   1.779  1.00  0.00    -0.075 N 
HETATM   16  C   UNL     1      59.395   7.873   0.562  1.00  0.00     0.267 C 
HETATM   17  H   UNL     1      59.287   9.136   2.149  1.00  0.00     0.277 HD
HETATM   18  H   UNL     1      60.096   7.700   2.455  1.00  0.00     0.277 HD
ENDBRANCH  14  15
ENDBRANCH   2  14
TORSDOF 4
ENDMDL
MODEL 4
REMARK VINA RESULT:      -5.1      2.057      2.542
REMARK  4 active torsions:
REMARK  status: ('A' for Active; 'I' for Inactive)
REMARK    1  A    between atoms: O_1  and  C_2 
REMARK    2  A    between atoms: O_1  and  C_4 
REMARK    3  A    between atoms: N_3  and  C_10 
REMARK    4  A    between atoms: C_5  and  C_10 
ROOT
HETATM    1  C   UNL     1      65.845   7.945   5.962  1.00  0.00     0.076 A 
HETATM    2  C   UNL     1      67.164   5.467   6.168  1.00  0.00    -0.033 A 
HETATM    3  C   UNL     1      67.033   7.721   5.266  1.00  0.00     0.038 A 
HETATM    4  C   UNL     1      65.361   6.961   6.826  1.00  0.00     0.038 A 
HETATM    5  C   UNL     1      66.018   5.731   6.932  1.00  0.00     0.011 A 
HETATM    6  C   UNL     1      67.665   6.478   5.337  1.00  0.00     0.011 A 
ENDROOT
BRANCH   1   7
HETATM    7  O   UNL     1      65.115   9.110   5.898  1.00  0.00    -0.311 OA
BRANCH   7   8
HETATM    8  C   UNL     1      64.070   9.224   5.011  1.00  0.00     0.076 A 
HETATM    9  C   UNL     1      63.750   8.275   4.034  1.00  0.00     0.037 A 
HETATM   10  C   UNL     1      62.690   8.505   3.154  1.00  0.00     0.003 A 
HETATM   11  C   UNL     1      61.908   9.651   3.288  1.00  0.00     0.000 A 
HETATM   12  C   UNL     1      62.182  10.566   4.305  1.00  0.00     0.003 A 
HETATM   13  C   UNL     1      63.262  10.353   5.164  1.00  0.00     0.037 A 
ENDBRANCH   7   8
ENDBRANCH   1   7
BRANCH   2  14
HETATM   14  C   UNL     1      67.825   4.108   6.208  1.00  0.00     0.270 C 
BRANCH  14  15
HETATM   15  N   UNL     1      66.874   3.048   6.541  1.00  0.00    -0.075 N 
HETATM   16  C   UNL     1      67.309   2.306   7.715  1.00  0.00     0.267 C 
HETATM   17  H   UNL     1      66.797   2.407   5.751  1.00  0.00     0.277 HD
HETATM   18  H   UNL     1      65.969   3.475   6.743  1.00  0.00     0.277 HD
ENDBRANCH  14  15
ENDBRANCH   2  14
TORSDOF 4
ENDMDL
MODEL 5
REMARK VINA RESULT:      -5.0      2.363      3.616
REMARK  4 active torsions:
REMARK  status: ('A' for Active; 'I' for Inactive)
REMARK    1  A    between atoms: O_1  and  C_2 
REMARK    2  A    between atoms: O_1  and  C_4 
REMARK    3  A    between atoms: N_3  and  C_10 
REMARK    4  A    between atoms: C_5  and  C_10 
ROOT
HETATM    1  C   UNL     1      66.858   7.272   5.996  1.00  0.00     0.076 A 
HETATM    2  C   UNL     1      67.700   5.448   7.968  1.00  0.00    -0.033 A 
HETATM    3  C   UNL     1      67.572   6.128   5.638  1.00  0.00     0.038 A 
HETATM    4  C   UNL     1      66.638   7.546   7.347  1.00  0.00     0.038 A 
HETATM    5  C   UNL     1      67.060   6.643   8.328  1.00  0.00     0.011 A 
HETATM    6  C   UNL     1      67.953   5.204   6.612  1.00  0.00     0.011 A 
ENDROOT
BRANCH   1   7
HETATM    7  O   UNL     1      66.380   8.201   5.101  1.00  0.00    -0.311 OA
BRANCH   7   8
HETATM    8  C   UNL     1      65.051   8.200   4.746  1.00  0.00     0.076 A 
HETATM    9  C   UNL     1      64.125   9.175   5.133  1.00  0.00     0.037 A 
HETATM   10  C   UNL     1      62.787   9.061   4.751  1.00  0.00     0.003 A 
HETATM   11  C   UNL     1      62.383   8.010   3.929  1.00  0.00     0.000 A 
HETATM   12  C   UNL     1      63.317   7.075   3.485  1.00  0.00     0.003 A 
HETATM   13  C   UNL     1      64.650   7.170   3.894  1.00  0.00     0.037 A 
ENDBRANCH   7   8
ENDBRANCH   1   7
BRANCH   2  14
HETATM   14  C   UNL     1      68.074   4.425   9.016  1.00  0.00     0.270 C 
BRANCH  14  15
HETATM   15  N   UNL     1      67.269   3.209   8.905  1.00  0.00    -0.075 N 
HETATM   16  C   UNL     1      67.905   2.097   9.595  1.00  0.00     0.267 C 
HETATM   17  H   UNL     1      67.159   2.971   7.919  1.00  0.00     0.277 HD
HETATM   18  H   UNL     1      66.359   3.381   9.334  1.00  0.00     0.277 HD
ENDBRANCH  14  15
ENDBRANCH   2  14
TORSDOF 4
ENDMDL
MODEL 6
REMARK VINA RESULT:      -5.0      2.865      6.766
REMARK  4 active torsions:
REMARK  status: ('A' for Active; 'I' for Inactive)
REMARK    1  A    between atoms: O_1  and  C_2 
REMARK    2  A    between atoms: O_1  and  C_4 
REMARK    3  A    between atoms: N_3  and  C_10 
REMARK    4  A    between atoms: C_5  and  C_10 
ROOT
HETATM    1  C   UNL     1      65.536   7.929   5.003  1.00  0.00     0.076 A 
HETATM    2  C   UNL     1      62.998   8.062   3.792  1.00  0.00    -0.033 A 
HETATM    3  C   UNL     1      64.665   8.975   5.308  1.00  0.00     0.038 A 
HETATM    4  C   UNL     1      65.172   6.996   4.030  1.00  0.00     0.038 A 
HETATM    5  C   UNL     1      63.913   7.064   3.425  1.00  0.00     0.011 A 
HETATM    6  C   UNL     1      63.392   9.018   4.738  1.00  0.00     0.011 A 
ENDROOT
BRANCH   1   7
HETATM    7  O   UNL     1      66.780   7.764   5.568  1.00  0.00    -0.311 OA
BRANCH   7   8
HETATM    8  C   UNL     1      66.986   6.791   6.518  1.00  0.00     0.076 A 
HETATM    9  C   UNL     1      67.689   5.602   6.297  1.00  0.00     0.037 A 
HETATM   10  C   UNL     1      67.809   4.658   7.319  1.00  0.00     0.003 A 
HETATM   11  C   UNL     1      67.282   4.926   8.581  1.00  0.00     0.000 A 
HETATM   12  C   UNL     1      66.640   6.140   8.824  1.00  0.00     0.003 A 
HETATM   13  C   UNL     1      66.492   7.071   7.793  1.00  0.00     0.037 A 
ENDBRANCH   7   8
ENDBRANCH   1   7
BRANCH   2  14
HETATM   14  C   UNL     1      61.604   8.086   3.209  1.00  0.00     0.270 C 
BRANCH  14  15
HETATM   15  N   UNL     1      61.270   9.394   2.646  1.00  0.00    -0.075 N 
HETATM   16  C   UNL     1      61.922   9.590   1.360  1.00  0.00     0.267 C 
HETATM   17  H   UNL     1      61.577  10.123   3.289  1.00  0.00     0.277 HD
HETATM   18  H   UNL     1      60.260   9.441   2.509  1.00  0.00     0.277 HD
ENDBRANCH  14  15
ENDBRANCH   2  14
TORSDOF 4
ENDMDL
MODEL 7
REMARK VINA RESULT:      -4.8      3.490      4.854
REMARK  4 active torsions:
REMARK  status: ('A' for Active; 'I' for Inactive)
REMARK    1  A    between atoms: O_1  and  C_2 
REMARK    2  A    between atoms: O_1  and  C_4 
REMARK    3  A    between atoms: N_3  and  C_10 
REMARK    4  A    between atoms: C_5  and  C_10 
ROOT
HETATM    1  C   UNL     1      61.863   7.075   4.781  1.00  0.00     0.076 A 
HETATM    2  C   UNL     1      60.016   5.505   6.212  1.00  0.00    -0.033 A 
HETATM    3  C   UNL     1      60.546   6.960   4.337  1.00  0.00     0.038 A 
HETATM    4  C   UNL     1      62.278   6.339   5.892  1.00  0.00     0.038 A 
HETATM    5  C   UNL     1      61.362   5.555   6.601  1.00  0.00     0.011 A 
HETATM    6  C   UNL     1      59.620   6.215   5.070  1.00  0.00     0.011 A 
ENDROOT
BRANCH   1   7
HETATM    7  O   UNL     1      62.826   7.843   4.167  1.00  0.00    -0.311 OA
BRANCH   7   8
HETATM    8  C   UNL     1      62.482   9.026   3.555  1.00  0.00     0.076 A 
HETATM    9  C   UNL     1      62.287  10.238   4.224  1.00  0.00     0.037 A 
HETATM   10  C   UNL     1      61.900  11.377   3.514  1.00  0.00     0.003 A 
HETATM   11  C   UNL     1      61.767  11.323   2.128  1.00  0.00     0.000 A 
HETATM   12  C   UNL     1      62.027  10.132   1.450  1.00  0.00     0.003 A 
HETATM   13  C   UNL     1      62.383   8.985   2.163  1.00  0.00     0.037 A 
ENDBRANCH   7   8
ENDBRANCH   1   7
BRANCH   2  14
HETATM   14  C   UNL     1      59.002   4.735   7.027  1.00  0.00     0.270 C 
BRANCH  14  15
HETATM   15  N   UNL     1      59.595   4.167   8.238  1.00  0.00    -0.075 N 
HETATM   16  C   UNL     1      58.726   4.369   9.387  1.00  0.00     0.267 C 
HETATM   17  H   UNL     1      60.492   4.618   8.414  1.00  0.00     0.277 HD
HETATM   18  H   UNL     1      59.721   3.164   8.098  1.00  0.00     0.277 HD
ENDBRANCH  14  15
ENDBRANCH   2  14
TORSDOF 4
ENDMDL
MODEL 8
REMARK VINA RESULT:      -4.5      5.102      6.794
REMARK  4 active torsions:
REMARK  status: ('A' for Active; 'I' for Inactive)
REMARK    1  A    between atoms: O_1  and  C_2 
REMARK    2  A    between atoms: O_1  and  C_4 
REMARK    3  A    between atoms: N_3  and  C_10 
REMARK    4  A    between atoms: C_5  and  C_10 
ROOT
HETATM    1  C   UNL     1      59.764   6.973   4.172  1.00  0.00     0.076 A 
HETATM    2  C   UNL     1      57.175   6.468   5.155  1.00  0.00    -0.033 A 
HETATM    3  C   UNL     1      58.646   7.441   3.481  1.00  0.00     0.038 A 
HETATM    4  C   UNL     1      59.586   6.181   5.308  1.00  0.00     0.038 A 
HETATM    5  C   UNL     1      58.300   5.926   5.795  1.00  0.00     0.011 A 
HETATM    6  C   UNL     1      57.365   7.225   3.991  1.00  0.00     0.011 A 
ENDROOT
BRANCH   1   7
HETATM    7  O   UNL     1      61.066   7.197   3.786  1.00  0.00    -0.311 OA
BRANCH   7   8
HETATM    8  C   UNL     1      61.395   8.338   3.092  1.00  0.00     0.076 A 
HETATM    9  C   UNL     1      61.542   8.408   1.703  1.00  0.00     0.037 A 
HETATM   10  C   UNL     1      61.919   9.609   1.097  1.00  0.00     0.003 A 
HETATM   11  C   UNL     1      62.087  10.757   1.869  1.00  0.00     0.000 A 
HETATM   12  C   UNL     1      61.874  10.706   3.247  1.00  0.00     0.003 A 
HETATM   13  C   UNL     1      61.529   9.498   3.857  1.00  0.00     0.037 A 
ENDBRANCH   7   8
ENDBRANCH   1   7
BRANCH   2  14
HETATM   14  C   UNL     1      55.790   6.273   5.728  1.00  0.00     0.270 C 
BRANCH  14  15
HETATM   15  N   UNL     1      55.631   6.954   7.014  1.00  0.00    -0.075 N 
HETATM   16  C   UNL     1      54.678   6.253   7.860  1.00  0.00     0.267 C 
HETATM   17  H   UNL     1      55.296   7.903   6.850  1.00  0.00     0.277 HD
HETATM   18  H   UNL     1      56.535   6.972   7.486  1.00  0.00     0.277 HD
ENDBRANCH  14  15
ENDBRANCH   2  14
TORSDOF 4
ENDMDL
MODEL 9
REMARK VINA RESULT:      -4.4      4.584      7.342
REMARK  4 active torsions:
REMARK  status: ('A' for Active; 'I' for Inactive)
REMARK    1  A    between atoms: O_1  and  C_2 
REMARK    2  A    between atoms: O_1  and  C_4 
REMARK    3  A    between atoms: N_3  and  C_10 
REMARK    4  A    between atoms: C_5  and  C_10 
ROOT
HETATM    1  C   UNL     1      61.346   7.689   1.653  1.00  0.00     0.076 A 
HETATM    2  C   UNL     1      58.838   6.533   1.104  1.00  0.00    -0.033 A 
HETATM    3  C   UNL     1      60.600   8.115   0.553  1.00  0.00     0.038 A 
HETATM    4  C   UNL     1      60.876   6.627   2.429  1.00  0.00     0.038 A 
HETATM    5  C   UNL     1      59.632   6.050   2.155  1.00  0.00     0.011 A 
HETATM    6  C   UNL     1      59.339   7.570   0.306  1.00  0.00     0.011 A 
ENDROOT
BRANCH   1   7
HETATM    7  O   UNL     1      62.564   8.215   2.017  1.00  0.00    -0.311 OA
BRANCH   7   8
HETATM    8  C   UNL     1      62.653   9.085   3.078  1.00  0.00     0.076 A 
HETATM    9  C   UNL     1      61.940  10.284   3.185  1.00  0.00     0.037 A 
HETATM   10  C   UNL     1      62.131  11.119   4.288  1.00  0.00     0.003 A 
HETATM   11  C   UNL     1      62.987  10.729   5.317  1.00  0.00     0.000 A 
HETATM   12  C   UNL     1      63.648   9.503   5.246  1.00  0.00     0.003 A 
HETATM   13  C   UNL     1      63.481   8.683   4.128  1.00  0.00     0.037 A 
ENDBRANCH   7   8
ENDBRANCH   1   7
BRANCH   2  14
HETATM   14  C   UNL     1      57.455   5.976   0.861  1.00  0.00     0.270 C 
BRANCH  14  15
HETATM   15  N   UNL     1      56.414   6.830   1.433  1.00  0.00    -0.075 N 
HETATM   16  C   UNL     1      55.092   6.269   1.200  1.00  0.00     0.267 C 
HETATM   17  H   UNL     1      56.465   7.753   1.001  1.00  0.00     0.277 HD
HETATM   18  H   UNL     1      56.566   6.898   2.440  1.00  0.00     0.277 HD
ENDBRANCH  14  15
ENDBRANCH   2  14
TORSDOF 4
ENDMDL
