MODEL 1
REMARK VINA RESULT:      -5.6      0.000      0.000
REMARK  4 active torsions:
REMARK  status: ('A' for Active; 'I' for Inactive)
REMARK    1  A    between atoms: O_1  and  C_2 
REMARK    2  A    between atoms: O_1  and  C_3 
REMARK    3  A    between atoms: C_4  and  C_10 
REMARK    4  A    between atoms: O_9  and  C_10 
ROOT
HETATM    1  C   UNL     1      63.320   8.521   5.123  1.00  0.00     0.076 A 
HETATM    2  C   UNL     1      62.227   9.982   2.987  1.00  0.00    -0.035 A 
HETATM    3  C   UNL     1      63.050   7.890   3.909  1.00  0.00     0.038 A 
HETATM    4  C   UNL     1      62.967   9.864   5.294  1.00  0.00     0.038 A 
HETATM    5  C   UNL     1      62.424  10.591   4.233  1.00  0.00     0.012 A 
HETATM    6  C   UNL     1      62.534   8.621   2.840  1.00  0.00     0.012 A 
ENDROOT
BRANCH   1   7
HETATM    7  O   UNL     1      63.865   7.901   6.224  1.00  0.00    -0.311 OA
BRANCH   7   8
HETATM    8  C   UNL     1      65.160   7.430   6.181  1.00  0.00     0.076 A 
HETATM    9  C   UNL     1      66.202   8.035   5.471  1.00  0.00     0.037 A 
HETATM   10  C   UNL     1      67.474   7.459   5.472  1.00  0.00     0.003 A 
HETATM   11  C   UNL     1      67.723   6.312   6.225  1.00  0.00     0.000 A 
HETATM   12  C   UNL     1      66.702   5.745   6.987  1.00  0.00     0.003 A 
HETATM   13  C   UNL     1      65.423   6.304   6.966  1.00  0.00     0.037 A 
ENDBRANCH   7   8
ENDBRANCH   1   7
BRANCH   2  14
HETATM   14  C   UNL     1      61.704  10.768   1.815  1.00  0.00     0.202 C 
BRANCH  14  15
HETATM   15  O   UNL     1      62.087  12.134   1.924  1.00  0.00    -0.396 OA
HETATM   16  H   UNL     1      61.917  12.445   2.827  1.00  0.00     0.209 HD
ENDBRANCH  14  15
ENDBRANCH   2  14
TORSDOF 4
ENDMDL
MODEL 2
REMARK VINA RESULT:      -5.5      1.628      6.072
REMARK  4 active torsions:
REMARK  status: ('A' for Active; 'I' for Inactive)
REMARK    1  A    between atoms: O_1  and  C_2 
REMARK    2  A    between atoms: O_1  and  C_3 
REMARK    3  A    between atoms: C_4  and  C_10 
REMARK    4  A    between atoms: O_9  and  C_10 
ROOT
HETATM    1  C   UNL     1      63.716   7.981   5.455  1.00  0.00     0.076 A 
HETATM    2  C   UNL     1      66.183   6.900   6.249  1.00  0.00    -0.035 A 
HETATM    3  C   UNL     1      64.906   8.548   5.000  1.00  0.00     0.038 A 
HETATM    4  C   UNL     1      63.761   6.925   6.371  1.00  0.00     0.038 A 
HETATM    5  C   UNL     1      64.987   6.387   6.766  1.00  0.00     0.012 A 
HETATM    6  C   UNL     1      66.131   7.994   5.373  1.00  0.00     0.012 A 
ENDROOT
BRANCH   1   7
HETATM    7  O   UNL     1      62.458   8.425   5.116  1.00  0.00    -0.311 OA
BRANCH   7   8
HETATM    8  C   UNL     1      62.278   9.196   3.987  1.00  0.00     0.076 A 
HETATM    9  C   UNL     1      62.209   8.692   2.685  1.00  0.00     0.037 A 
HETATM   10  C   UNL     1      62.051   9.565   1.606  1.00  0.00     0.003 A 
HETATM   11  C   UNL     1      61.906  10.933   1.828  1.00  0.00     0.000 A 
HETATM   12  C   UNL     1      61.907  11.431   3.131  1.00  0.00     0.003 A 
HETATM   13  C   UNL     1      62.092  10.563   4.208  1.00  0.00     0.037 A 
ENDBRANCH   7   8
ENDBRANCH   1   7
BRANCH   2  14
HETATM   14  C   UNL     1      67.511   6.290   6.614  1.00  0.00     0.202 C 
BRANCH  14  15
HETATM   15  O   UNL     1      67.872   6.651   7.942  1.00  0.00    -0.396 OA
HETATM   16  H   UNL     1      68.641   6.129   8.220  1.00  0.00     0.209 HD
ENDBRANCH  14  15
ENDBRANCH   2  14
TORSDOF 4
ENDMDL
MODEL 3
REMARK VINA RESULT:      -4.8      1.709      2.689
REMARK  4 active torsions:
REMARK  status: ('A' for Active; 'I' for Inactive)
REMARK    1  A    between atoms: O_1  and  C_2 
REMARK    2  A    between atoms: O_1  and  C_3 
REMARK    3  A    between atoms: C_4  and  C_10 
REMARK    4  A    between atoms: O_9  and  C_10 
ROOT
HETATM    1  C   UNL     1      65.427   7.875   4.865  1.00  0.00     0.076 A 
HETATM    2  C   UNL     1      62.803   8.392   4.009  1.00  0.00    -0.035 A 
HETATM    3  C   UNL     1      64.750   9.002   5.329  1.00  0.00     0.038 A 
HETATM    4  C   UNL     1      64.822   7.052   3.910  1.00  0.00     0.038 A 
HETATM    5  C   UNL     1      63.517   7.308   3.484  1.00  0.00     0.012 A 
HETATM    6  C   UNL     1      63.436   9.244   4.925  1.00  0.00     0.012 A 
ENDROOT
BRANCH   1   7
HETATM    7  O   UNL     1      66.707   7.525   5.231  1.00  0.00    -0.311 OA
BRANCH   7   8
HETATM    8  C   UNL     1      66.917   6.741   6.345  1.00  0.00     0.076 A 
HETATM    9  C   UNL     1      66.529   7.086   7.643  1.00  0.00     0.037 A 
HETATM   10  C   UNL     1      66.814   6.230   8.709  1.00  0.00     0.003 A 
HETATM   11  C   UNL     1      67.435   5.004   8.474  1.00  0.00     0.000 A 
HETATM   12  C   UNL     1      67.762   4.627   7.172  1.00  0.00     0.003 A 
HETATM   13  C   UNL     1      67.502   5.494   6.109  1.00  0.00     0.037 A 
ENDBRANCH   7   8
ENDBRANCH   1   7
BRANCH   2  14
HETATM   14  C   UNL     1      61.373   8.644   3.610  1.00  0.00     0.202 C 
BRANCH  14  15
HETATM   15  O   UNL     1      61.087  10.037   3.651  1.00  0.00    -0.396 OA
HETATM   16  H   UNL     1      61.040  10.384   2.746  1.00  0.00     0.209 HD
ENDBRANCH  14  15
ENDBRANCH   2  14
TORSDOF 4
ENDMDL
MODEL 4
REMARK VINA RESULT:      -4.7      3.642      6.262
REMARK  4 active torsions:
REMARK  status: ('A' for Active; 'I' for Inactive)
REMARK    1  A    between atoms: O_1  and  C_2 
REMARK    2  A    between atoms: O_1  and  C_3 
REMARK    3  A    between atoms: C_4  and  C_10 
REMARK    4  A    between atoms: O_9  and  C_10 
ROOT
HETATM    1  C   UNL     1      61.268   6.695   4.878  1.00  0.00     0.076 A 
HETATM    2  C   UNL     1      59.229   5.880   6.630  1.00  0.00    -0.035 A 
HETATM    3  C   UNL     1      61.553   6.462   6.223  1.00  0.00     0.038 A 
HETATM    4  C   UNL     1      59.947   6.600   4.428  1.00  0.00     0.038 A 
HETATM    5  C   UNL     1      58.933   6.194   5.298  1.00  0.00     0.012 A 
HETATM    6  C   UNL     1      60.546   6.030   7.087  1.00  0.00     0.012 A 
ENDROOT
BRANCH   1   7
HETATM    7  O   UNL     1      62.194   7.084   3.938  1.00  0.00    -0.311 OA
BRANCH   7   8
HETATM    8  C   UNL     1      62.104   8.328   3.352  1.00  0.00     0.076 A 
HETATM    9  C   UNL     1      62.064   9.536   4.056  1.00  0.00     0.037 A 
HETATM   10  C   UNL     1      61.944  10.743   3.365  1.00  0.00     0.003 A 
HETATM   11  C   UNL     1      61.921  10.753   1.971  1.00  0.00     0.000 A 
HETATM   12  C   UNL     1      62.029   9.555   1.265  1.00  0.00     0.003 A 
HETATM   13  C   UNL     1      62.121   8.345   1.955  1.00  0.00     0.037 A 
ENDBRANCH   7   8
ENDBRANCH   1   7
BRANCH   2  14
HETATM   14  C   UNL     1      58.160   5.379   7.564  1.00  0.00     0.202 C 
BRANCH  14  15
HETATM   15  O   UNL     1      58.331   5.943   8.859  1.00  0.00    -0.396 OA
HETATM   16  H   UNL     1      57.464   6.050   9.281  1.00  0.00     0.209 HD
ENDBRANCH  14  15
ENDBRANCH   2  14
TORSDOF 4
ENDMDL
MODEL 5
REMARK VINA RESULT:      -4.5      1.879      6.195
REMARK  4 active torsions:
REMARK  status: ('A' for Active; 'I' for Inactive)
REMARK    1  A    between atoms: O_1  and  C_2 
REMARK    2  A    between atoms: O_1  and  C_3 
REMARK    3  A    between atoms: C_4  and  C_10 
REMARK    4  A    between atoms: O_9  and  C_10 
ROOT
HETATM    1  C   UNL     1      65.423   6.750   4.873  1.00  0.00     0.076 A 
HETATM    2  C   UNL     1      67.163   6.055   6.966  1.00  0.00    -0.035 A 
HETATM    3  C   UNL     1      64.925   6.138   6.023  1.00  0.00     0.038 A 
HETATM    4  C   UNL     1      66.803   6.939   4.736  1.00  0.00     0.038 A 
HETATM    5  C   UNL     1      67.668   6.594   5.776  1.00  0.00     0.012 A 
HETATM    6  C   UNL     1      65.785   5.818   7.074  1.00  0.00     0.012 A 
ENDROOT
BRANCH   1   7
HETATM    7  O   UNL     1      64.657   7.141   3.800  1.00  0.00    -0.311 OA
BRANCH   7   8
HETATM    8  C   UNL     1      63.821   8.232   3.908  1.00  0.00     0.076 A 
HETATM    9  C   UNL     1      62.792   8.535   3.012  1.00  0.00     0.037 A 
HETATM   10  C   UNL     1      62.018   9.683   3.199  1.00  0.00     0.003 A 
HETATM   11  C   UNL     1      62.232  10.498   4.310  1.00  0.00     0.000 A 
HETATM   12  C   UNL     1      63.213  10.160   5.242  1.00  0.00     0.003 A 
HETATM   13  C   UNL     1      64.005   9.028   5.041  1.00  0.00     0.037 A 
ENDBRANCH   7   8
ENDBRANCH   1   7
BRANCH   2  14
HETATM   14  C   UNL     1      68.075   5.737   8.121  1.00  0.00     0.202 C 
BRANCH  14  15
HETATM   15  O   UNL     1      67.609   6.371   9.307  1.00  0.00    -0.396 OA
HETATM   16  H   UNL     1      68.337   6.439   9.943  1.00  0.00     0.209 HD
ENDBRANCH  14  15
ENDBRANCH   2  14
TORSDOF 4
ENDMDL
MODEL 6
REMARK VINA RESULT:      -4.5      1.841      2.255
REMARK  4 active torsions:
REMARK  status: ('A' for Active; 'I' for Inactive)
REMARK    1  A    between atoms: O_1  and  C_2 
REMARK    2  A    between atoms: O_1  and  C_3 
REMARK    3  A    between atoms: C_4  and  C_10 
REMARK    4  A    between atoms: O_9  and  C_10 
ROOT
HETATM    1  C   UNL     1      63.512   8.376   5.140  1.00  0.00     0.076 A 
HETATM    2  C   UNL     1      61.077   7.747   3.890  1.00  0.00    -0.035 A 
HETATM    3  C   UNL     1      63.106   9.078   4.005  1.00  0.00     0.038 A 
HETATM    4  C   UNL     1      62.739   7.306   5.600  1.00  0.00     0.038 A 
HETATM    5  C   UNL     1      61.528   6.992   4.980  1.00  0.00     0.012 A 
HETATM    6  C   UNL     1      61.884   8.784   3.401  1.00  0.00     0.012 A 
ENDROOT
BRANCH   1   7
HETATM    7  O   UNL     1      64.677   8.614   5.832  1.00  0.00    -0.311 OA
BRANCH   7   8
HETATM    8  C   UNL     1      65.696   7.686   5.810  1.00  0.00     0.076 A 
HETATM    9  C   UNL     1      66.299   7.197   4.647  1.00  0.00     0.037 A 
HETATM   10  C   UNL     1      67.308   6.236   4.735  1.00  0.00     0.003 A 
HETATM   11  C   UNL     1      67.755   5.802   5.982  1.00  0.00     0.000 A 
HETATM   12  C   UNL     1      67.202   6.338   7.145  1.00  0.00     0.003 A 
HETATM   13  C   UNL     1      66.175   7.279   7.058  1.00  0.00     0.037 A 
ENDBRANCH   7   8
ENDBRANCH   1   7
BRANCH   2  14
HETATM   14  C   UNL     1      59.743   7.464   3.250  1.00  0.00     0.202 C 
BRANCH  14  15
HETATM   15  O   UNL     1      59.578   8.259   2.081  1.00  0.00    -0.396 OA
HETATM   16  H   UNL     1      59.575   7.685   1.299  1.00  0.00     0.209 HD
ENDBRANCH  14  15
ENDBRANCH   2  14
TORSDOF 4
ENDMDL
MODEL 7
REMARK VINA RESULT:      -4.4      4.573      6.732
REMARK  4 active torsions:
REMARK  status: ('A' for Active; 'I' for Inactive)
REMARK    1  A    between atoms: O_1  and  C_2 
REMARK    2  A    between atoms: O_1  and  C_3 
REMARK    3  A    between atoms: C_4  and  C_10 
REMARK    4  A    between atoms: O_9  and  C_10 
ROOT
HETATM    1  C   UNL     1      59.489   6.731   4.365  1.00  0.00     0.076 A 
HETATM    2  C   UNL     1      57.332   6.716   6.164  1.00  0.00    -0.035 A 
HETATM    3  C   UNL     1      58.284   7.340   4.016  1.00  0.00     0.038 A 
HETATM    4  C   UNL     1      59.588   6.044   5.579  1.00  0.00     0.038 A 
HETATM    5  C   UNL     1      58.516   6.036   6.474  1.00  0.00     0.012 A 
HETATM    6  C   UNL     1      57.221   7.356   4.921  1.00  0.00     0.012 A 
ENDROOT
BRANCH   1   7
HETATM    7  O   UNL     1      60.607   6.694   3.564  1.00  0.00    -0.311 OA
BRANCH   7   8
HETATM    8  C   UNL     1      61.087   7.853   2.993  1.00  0.00     0.076 A 
HETATM    9  C   UNL     1      61.501   8.979   3.711  1.00  0.00     0.037 A 
HETATM   10  C   UNL     1      61.946  10.115   3.032  1.00  0.00     0.003 A 
HETATM   11  C   UNL     1      62.034  10.110   1.641  1.00  0.00     0.000 A 
HETATM   12  C   UNL     1      61.686   8.964   0.926  1.00  0.00     0.003 A 
HETATM   13  C   UNL     1      61.215   7.837   1.601  1.00  0.00     0.037 A 
ENDBRANCH   7   8
ENDBRANCH   1   7
BRANCH   2  14
HETATM   14  C   UNL     1      56.191   6.772   7.144  1.00  0.00     0.202 C 
BRANCH  14  15
HETATM   15  O   UNL     1      56.278   5.693   8.067  1.00  0.00    -0.396 OA
HETATM   16  H   UNL     1      56.430   6.043   8.959  1.00  0.00     0.209 HD
ENDBRANCH  14  15
ENDBRANCH   2  14
TORSDOF 4
ENDMDL
MODEL 8
REMARK VINA RESULT:      -4.4      2.769      6.353
REMARK  4 active torsions:
REMARK  status: ('A' for Active; 'I' for Inactive)
REMARK    1  A    between atoms: O_1  and  C_2 
REMARK    2  A    between atoms: O_1  and  C_3 
REMARK    3  A    between atoms: C_4  and  C_10 
REMARK    4  A    between atoms: O_9  and  C_10 
ROOT
HETATM    1  C   UNL     1      62.796   8.279   2.913  1.00  0.00     0.076 A 
HETATM    2  C   UNL     1      64.679   7.884   4.960  1.00  0.00    -0.035 A 
HETATM    3  C   UNL     1      63.627   7.159   2.892  1.00  0.00     0.038 A 
HETATM    4  C   UNL     1      62.964   9.243   3.913  1.00  0.00     0.038 A 
HETATM    5  C   UNL     1      63.899   9.047   4.931  1.00  0.00     0.012 A 
HETATM    6  C   UNL     1      64.543   6.948   3.923  1.00  0.00     0.012 A 
ENDROOT
BRANCH   1   7
HETATM    7  O   UNL     1      61.835   8.558   1.969  1.00  0.00    -0.311 OA
BRANCH   7   8
HETATM    8  C   UNL     1      60.550   8.086   2.130  1.00  0.00     0.076 A 
HETATM    9  C   UNL     1      59.974   7.756   3.361  1.00  0.00     0.037 A 
HETATM   10  C   UNL     1      58.670   7.259   3.411  1.00  0.00     0.003 A 
HETATM   11  C   UNL     1      57.919   7.144   2.242  1.00  0.00     0.000 A 
HETATM   12  C   UNL     1      58.468   7.537   1.021  1.00  0.00     0.003 A 
HETATM   13  C   UNL     1      59.781   8.008   0.966  1.00  0.00     0.037 A 
ENDBRANCH   7   8
ENDBRANCH   1   7
BRANCH   2  14
HETATM   14  C   UNL     1      65.646   7.626   6.085  1.00  0.00     0.202 C 
BRANCH  14  15
HETATM   15  O   UNL     1      66.253   8.843   6.503  1.00  0.00    -0.396 OA
HETATM   16  H   UNL     1      66.404   8.815   7.461  1.00  0.00     0.209 HD
ENDBRANCH  14  15
ENDBRANCH   2  14
TORSDOF 4
ENDMDL
MODEL 9
REMARK VINA RESULT:      -4.3      3.248      5.840
REMARK  4 active torsions:
REMARK  status: ('A' for Active; 'I' for Inactive)
REMARK    1  A    between atoms: O_1  and  C_2 
REMARK    2  A    between atoms: O_1  and  C_3 
REMARK    3  A    between atoms: C_4  and  C_10 
REMARK    4  A    between atoms: O_9  and  C_10 
ROOT
HETATM    1  C   UNL     1      61.645   8.796   3.388  1.00  0.00     0.076 A 
HETATM    2  C   UNL     1      62.787  10.617   5.196  1.00  0.00    -0.035 A 
HETATM    3  C   UNL     1      62.459   8.336   4.423  1.00  0.00     0.038 A 
HETATM    4  C   UNL     1      61.468  10.172   3.209  1.00  0.00     0.038 A 
HETATM    5  C   UNL     1      62.036  11.078   4.108  1.00  0.00     0.012 A 
HETATM    6  C   UNL     1      63.004   9.238   5.337  1.00  0.00     0.012 A 
ENDROOT
BRANCH   1   7
HETATM    7  O   UNL     1      61.028   7.989   2.459  1.00  0.00    -0.311 OA
BRANCH   7   8
HETATM    8  C   UNL     1      60.103   7.051   2.864  1.00  0.00     0.076 A 
HETATM    9  C   UNL     1      60.419   5.756   3.286  1.00  0.00     0.037 A 
HETATM   10  C   UNL     1      59.401   4.872   3.651  1.00  0.00     0.003 A 
HETATM   11  C   UNL     1      58.073   5.297   3.650  1.00  0.00     0.000 A 
HETATM   12  C   UNL     1      57.761   6.609   3.296  1.00  0.00     0.003 A 
HETATM   13  C   UNL     1      58.776   7.484   2.904  1.00  0.00     0.037 A 
ENDBRANCH   7   8
ENDBRANCH   1   7
BRANCH   2  14
HETATM   14  C   UNL     1      63.351  11.575   6.211  1.00  0.00     0.202 C 
BRANCH  14  15
HETATM   15  O   UNL     1      64.730  11.307   6.431  1.00  0.00    -0.396 OA
HETATM   16  H   UNL     1      64.942  10.418   6.105  1.00  0.00     0.209 HD
ENDBRANCH  14  15
ENDBRANCH   2  14
TORSDOF 4
ENDMDL
