MODEL 1
REMARK VINA RESULT:      -4.4      0.000      0.000
REMARK  3 active torsions:
REMARK  status: ('A' for Active; 'I' for Inactive)
REMARK    1  A    between atoms: C_1  and  N_3 
REMARK    2  A    between atoms: C_5  and  C_10 
REMARK    3  A    between atoms: C_10  and  O_11 
ROOT
HETATM    1  C   UNL     1      63.937   8.189   4.755  1.00  0.00     0.072 A 
HETATM    2  S   UNL     1      63.325   9.765   5.112  1.00  0.00    -0.075 SA
HETATM    3  C   UNL     1      63.462   7.788   3.519  1.00  0.00     0.038 A 
HETATM    4  C   UNL     1      62.519   9.902   3.611  1.00  0.00     0.008 A 
HETATM    5  C   UNL     1      62.668   8.763   2.856  1.00  0.00     0.019 A 
ENDROOT
BRANCH   1   6
HETATM    6  N   UNL     1      64.732   7.448   5.594  1.00  0.00    -0.371 N 
HETATM    7  C   UNL     1      64.177   6.525   6.601  1.00  0.00     0.149 C 
HETATM    8  C   UNL     1      65.217   5.433   6.921  1.00  0.00     0.187 C 
HETATM    9  O   UNL     1      66.473   5.991   7.349  1.00  0.00    -0.388 OA
HETATM   10  C   UNL     1      67.001   6.852   6.329  1.00  0.00     0.187 C 
HETATM   11  C   UNL     1      66.036   8.001   6.018  1.00  0.00     0.149 C 
ENDBRANCH   1   6
BRANCH   4  12
HETATM   12  C   UNL     1      61.779  11.142   3.249  1.00  0.00     0.210 C 
BRANCH  12  13
HETATM   13  O   UNL     1      62.089  12.122   4.233  1.00  0.00    -0.396 OA
HETATM   14  H   UNL     1      63.000  12.428   4.108  1.00  0.00     0.209 HD
ENDBRANCH  12  13
ENDBRANCH   4  12
TORSDOF 3
ENDMDL
MODEL 2
REMARK VINA RESULT:      -4.4      0.504      1.337
REMARK  3 active torsions:
REMARK  status: ('A' for Active; 'I' for Inactive)
REMARK    1  A    between atoms: C_1  and  N_3 
REMARK    2  A    between atoms: C_5  and  C_10 
REMARK    3  A    between atoms: C_10  and  O_11 
ROOT
HETATM    1  C   UNL     1      63.990   8.184   4.780  1.00  0.00     0.072 A 
HETATM    2  S   UNL     1      63.375   9.757   5.147  1.00  0.00    -0.075 SA
HETATM    3  C   UNL     1      63.485   7.775   3.558  1.00  0.00     0.038 A 
HETATM    4  C   UNL     1      62.528   9.881   3.667  1.00  0.00     0.008 A 
HETATM    5  C   UNL     1      62.667   8.740   2.913  1.00  0.00     0.019 A 
ENDROOT
BRANCH   1   6
HETATM    6  N   UNL     1      64.813   7.453   5.600  1.00  0.00    -0.371 N 
HETATM    7  C   UNL     1      66.142   7.934   6.021  1.00  0.00     0.149 C 
HETATM    8  C   UNL     1      66.531   7.260   7.353  1.00  0.00     0.187 C 
HETATM    9  O   UNL     1      66.489   5.824   7.264  1.00  0.00    -0.388 OA
HETATM   10  C   UNL     1      65.173   5.391   6.891  1.00  0.00     0.187 C 
HETATM   11  C   UNL     1      64.759   5.977   5.536  1.00  0.00     0.149 C 
ENDBRANCH   1   6
BRANCH   4  12
HETATM   12  C   UNL     1      61.770  11.114   3.321  1.00  0.00     0.210 C 
BRANCH  12  13
HETATM   13  O   UNL     1      62.110  12.105   4.282  1.00  0.00    -0.396 OA
HETATM   14  H   UNL     1      61.737  12.959   4.012  1.00  0.00     0.209 HD
ENDBRANCH  12  13
ENDBRANCH   4  12
TORSDOF 3
ENDMDL
MODEL 3
REMARK VINA RESULT:      -4.4      1.418      2.128
REMARK  3 active torsions:
REMARK  status: ('A' for Active; 'I' for Inactive)
REMARK    1  A    between atoms: C_1  and  N_3 
REMARK    2  A    between atoms: C_5  and  C_10 
REMARK    3  A    between atoms: C_10  and  O_11 
ROOT
HETATM    1  C   UNL     1      63.416   8.906   4.889  1.00  0.00     0.072 A 
HETATM    2  S   UNL     1      62.815   8.862   3.269  1.00  0.00    -0.075 SA
HETATM    3  C   UNL     1      63.154  10.150   5.435  1.00  0.00     0.038 A 
HETATM    4  C   UNL     1      62.170  10.442   3.359  1.00  0.00     0.008 A 
HETATM    5  C   UNL     1      62.432  11.022   4.578  1.00  0.00     0.019 A 
ENDROOT
BRANCH   1   6
HETATM    6  N   UNL     1      64.083   7.877   5.506  1.00  0.00    -0.371 N 
HETATM    7  C   UNL     1      65.519   7.946   5.833  1.00  0.00     0.149 C 
HETATM    8  C   UNL     1      65.823   6.997   7.009  1.00  0.00     0.187 C 
HETATM    9  O   UNL     1      65.406   5.648   6.736  1.00  0.00    -0.388 OA
HETATM   10  C   UNL     1      63.997   5.613   6.461  1.00  0.00     0.187 C 
HETATM   11  C   UNL     1      63.646   6.487   5.253  1.00  0.00     0.149 C 
ENDBRANCH   1   6
BRANCH   4  12
HETATM   12  C   UNL     1      61.423  11.031   2.213  1.00  0.00     0.210 C 
BRANCH  12  13
HETATM   13  O   UNL     1      62.103  12.220   1.831  1.00  0.00    -0.396 OA
HETATM   14  H   UNL     1      62.543  12.604   2.606  1.00  0.00     0.209 HD
ENDBRANCH  12  13
ENDBRANCH   4  12
TORSDOF 3
ENDMDL
MODEL 4
REMARK VINA RESULT:      -4.3      2.703      3.121
REMARK  3 active torsions:
REMARK  status: ('A' for Active; 'I' for Inactive)
REMARK    1  A    between atoms: C_1  and  N_3 
REMARK    2  A    between atoms: C_5  and  C_10 
REMARK    3  A    between atoms: C_10  and  O_11 
ROOT
HETATM    1  C   UNL     1      62.313   8.252   3.409  1.00  0.00     0.072 A 
HETATM    2  S   UNL     1      61.106   7.210   2.742  1.00  0.00    -0.075 SA
HETATM    3  C   UNL     1      62.400   9.396   2.637  1.00  0.00     0.038 A 
HETATM    4  C   UNL     1      60.687   8.319   1.510  1.00  0.00     0.008 A 
HETATM    5  C   UNL     1      61.468   9.449   1.566  1.00  0.00     0.019 A 
ENDROOT
BRANCH   1   6
HETATM    6  N   UNL     1      63.084   7.956   4.506  1.00  0.00    -0.371 N 
HETATM    7  C   UNL     1      62.547   7.254   5.686  1.00  0.00     0.149 C 
HETATM    8  C   UNL     1      63.697   6.536   6.421  1.00  0.00     0.187 C 
HETATM    9  O   UNL     1      64.757   7.440   6.779  1.00  0.00    -0.388 OA
HETATM   10  C   UNL     1      65.281   8.076   5.603  1.00  0.00     0.187 C 
HETATM   11  C   UNL     1      64.193   8.865   4.867  1.00  0.00     0.149 C 
ENDBRANCH   1   6
BRANCH   4  12
HETATM   12  C   UNL     1      59.592   8.016   0.548  1.00  0.00     0.210 C 
BRANCH  12  13
HETATM   13  O   UNL     1      58.369   8.403   1.162  1.00  0.00    -0.396 OA
HETATM   14  H   UNL     1      57.961   7.630   1.583  1.00  0.00     0.209 HD
ENDBRANCH  12  13
ENDBRANCH   4  12
TORSDOF 3
ENDMDL
MODEL 5
REMARK VINA RESULT:      -4.3      3.458      4.666
REMARK  3 active torsions:
REMARK  status: ('A' for Active; 'I' for Inactive)
REMARK    1  A    between atoms: C_1  and  N_3 
REMARK    2  A    between atoms: C_5  and  C_10 
REMARK    3  A    between atoms: C_10  and  O_11 
ROOT
HETATM    1  C   UNL     1      61.421   8.660   2.712  1.00  0.00     0.072 A 
HETATM    2  S   UNL     1      60.117   7.573   3.039  1.00  0.00    -0.075 SA
HETATM    3  C   UNL     1      61.479   8.899   1.350  1.00  0.00     0.038 A 
HETATM    4  C   UNL     1      59.628   7.508   1.402  1.00  0.00     0.008 A 
HETATM    5  C   UNL     1      60.454   8.261   0.602  1.00  0.00     0.019 A 
ENDROOT
BRANCH   1   6
HETATM    6  N   UNL     1      62.279   9.161   3.658  1.00  0.00    -0.371 N 
HETATM    7  C   UNL     1      62.307  10.589   4.025  1.00  0.00     0.149 C 
HETATM    8  C   UNL     1      62.860  10.739   5.456  1.00  0.00     0.187 C 
HETATM    9  O   UNL     1      64.155  10.128   5.602  1.00  0.00    -0.388 OA
HETATM   10  C   UNL     1      64.081   8.732   5.275  1.00  0.00     0.187 C 
HETATM   11  C   UNL     1      63.601   8.524   3.835  1.00  0.00     0.149 C 
ENDBRANCH   1   6
BRANCH   4  12
HETATM   12  C   UNL     1      58.437   6.716   0.990  1.00  0.00     0.210 C 
BRANCH  12  13
HETATM   13  O   UNL     1      57.283   7.449   1.384  1.00  0.00    -0.396 OA
HETATM   14  H   UNL     1      56.493   6.903   1.250  1.00  0.00     0.209 HD
ENDBRANCH  12  13
ENDBRANCH   4  12
TORSDOF 3
ENDMDL
MODEL 6
REMARK VINA RESULT:      -4.3      1.809      5.479
REMARK  3 active torsions:
REMARK  status: ('A' for Active; 'I' for Inactive)
REMARK    1  A    between atoms: C_1  and  N_3 
REMARK    2  A    between atoms: C_5  and  C_10 
REMARK    3  A    between atoms: C_10  and  O_11 
ROOT
HETATM    1  C   UNL     1      64.462   7.993   4.381  1.00  0.00     0.072 A 
HETATM    2  S   UNL     1      65.668   7.985   5.620  1.00  0.00    -0.075 SA
HETATM    3  C   UNL     1      64.641   6.888   3.568  1.00  0.00     0.038 A 
HETATM    4  C   UNL     1      66.338   6.502   5.097  1.00  0.00     0.008 A 
HETATM    5  C   UNL     1      65.695   6.028   3.978  1.00  0.00     0.019 A 
ENDROOT
BRANCH   1   6
HETATM    6  N   UNL     1      63.512   8.971   4.219  1.00  0.00    -0.371 N 
HETATM    7  C   UNL     1      63.035   9.805   5.337  1.00  0.00     0.149 C 
HETATM    8  C   UNL     1      62.500  11.142   4.785  1.00  0.00     0.187 C 
HETATM    9  O   UNL     1      61.475  10.946   3.793  1.00  0.00    -0.388 OA
HETATM   10  C   UNL     1      61.987  10.164   2.704  1.00  0.00     0.187 C 
HETATM   11  C   UNL     1      62.471   8.792   3.185  1.00  0.00     0.149 C 
ENDBRANCH   1   6
BRANCH   4  12
HETATM   12  C   UNL     1      67.471   5.873   5.830  1.00  0.00     0.210 C 
BRANCH  12  13
HETATM   13  O   UNL     1      68.068   6.883   6.634  1.00  0.00    -0.396 OA
HETATM   14  H   UNL     1      67.625   6.914   7.496  1.00  0.00     0.209 HD
ENDBRANCH  12  13
ENDBRANCH   4  12
TORSDOF 3
ENDMDL
MODEL 7
REMARK VINA RESULT:      -4.0      1.712      1.929
REMARK  3 active torsions:
REMARK  status: ('A' for Active; 'I' for Inactive)
REMARK    1  A    between atoms: C_1  and  N_3 
REMARK    2  A    between atoms: C_5  and  C_10 
REMARK    3  A    between atoms: C_10  and  O_11 
ROOT
HETATM    1  C   UNL     1      63.617   8.325   4.523  1.00  0.00     0.072 A 
HETATM    2  S   UNL     1      63.191   7.758   2.946  1.00  0.00    -0.075 SA
HETATM    3  C   UNL     1      63.033   9.562   4.732  1.00  0.00     0.038 A 
HETATM    4  C   UNL     1      62.201   9.113   2.618  1.00  0.00     0.008 A 
HETATM    5  C   UNL     1      62.214  10.008   3.661  1.00  0.00     0.019 A 
ENDROOT
BRANCH   1   6
HETATM    6  N   UNL     1      64.439   7.661   5.399  1.00  0.00    -0.371 N 
HETATM    7  C   UNL     1      63.919   6.790   6.470  1.00  0.00     0.149 C 
HETATM    8  C   UNL     1      64.991   5.748   6.848  1.00  0.00     0.187 C 
HETATM    9  O   UNL     1      66.235   6.365   7.223  1.00  0.00    -0.388 OA
HETATM   10  C   UNL     1      66.731   7.172   6.144  1.00  0.00     0.187 C 
HETATM   11  C   UNL     1      65.732   8.273   5.771  1.00  0.00     0.149 C 
ENDBRANCH   1   6
BRANCH   4  12
HETATM   12  C   UNL     1      61.449   9.218   1.337  1.00  0.00     0.210 C 
BRANCH  12  13
HETATM   13  O   UNL     1      60.116   8.794   1.594  1.00  0.00    -0.396 OA
HETATM   14  H   UNL     1      59.615   9.524   1.991  1.00  0.00     0.209 HD
ENDBRANCH  12  13
ENDBRANCH   4  12
TORSDOF 3
ENDMDL
MODEL 8
REMARK VINA RESULT:      -3.9      1.518      1.807
REMARK  3 active torsions:
REMARK  status: ('A' for Active; 'I' for Inactive)
REMARK    1  A    between atoms: C_1  and  N_3 
REMARK    2  A    between atoms: C_5  and  C_10 
REMARK    3  A    between atoms: C_10  and  O_11 
ROOT
HETATM    1  C   UNL     1      64.088   7.260   5.523  1.00  0.00     0.072 A 
HETATM    2  S   UNL     1      63.781   8.522   4.382  1.00  0.00    -0.075 SA
HETATM    3  C   UNL     1      62.891   6.654   5.860  1.00  0.00     0.038 A 
HETATM    4  C   UNL     1      62.106   8.188   4.313  1.00  0.00     0.008 A 
HETATM    5  C   UNL     1      61.763   7.165   5.165  1.00  0.00     0.019 A 
ENDROOT
BRANCH   1   6
HETATM    6  N   UNL     1      65.324   6.950   6.034  1.00  0.00    -0.371 N 
HETATM    7  C   UNL     1      65.505   6.412   7.395  1.00  0.00     0.149 C 
HETATM    8  C   UNL     1      66.821   5.609   7.457  1.00  0.00     0.187 C 
HETATM    9  O   UNL     1      67.953   6.394   7.041  1.00  0.00    -0.388 OA
HETATM   10  C   UNL     1      67.758   6.868   5.700  1.00  0.00     0.187 C 
HETATM   11  C   UNL     1      66.498   7.733   5.594  1.00  0.00     0.149 C 
ENDBRANCH   1   6
BRANCH   4  12
HETATM   12  C   UNL     1      61.209   8.955   3.406  1.00  0.00     0.210 C 
BRANCH  12  13
HETATM   13  O   UNL     1      61.238  10.312   3.831  1.00  0.00    -0.396 OA
HETATM   14  H   UNL     1      62.064  10.726   3.535  1.00  0.00     0.209 HD
ENDBRANCH  12  13
ENDBRANCH   4  12
TORSDOF 3
ENDMDL
MODEL 9
REMARK VINA RESULT:      -3.8      1.755      5.642
REMARK  3 active torsions:
REMARK  status: ('A' for Active; 'I' for Inactive)
REMARK    1  A    between atoms: C_1  and  N_3 
REMARK    2  A    between atoms: C_5  and  C_10 
REMARK    3  A    between atoms: C_10  and  O_11 
ROOT
HETATM    1  C   UNL     1      64.432   7.841   5.116  1.00  0.00     0.072 A 
HETATM    2  S   UNL     1      64.069   6.753   6.409  1.00  0.00    -0.075 SA
HETATM    3  C   UNL     1      65.777   8.165   5.162  1.00  0.00     0.038 A 
HETATM    4  C   UNL     1      65.692   6.686   6.943  1.00  0.00     0.008 A 
HETATM    5  C   UNL     1      66.502   7.501   6.187  1.00  0.00     0.019 A 
ENDROOT
BRANCH   1   6
HETATM    6  N   UNL     1      63.513   8.329   4.221  1.00  0.00    -0.371 N 
HETATM    7  C   UNL     1      62.545   9.383   4.575  1.00  0.00     0.149 C 
HETATM    8  C   UNL     1      62.114  10.131   3.298  1.00  0.00     0.187 C 
HETATM    9  O   UNL     1      61.586   9.238   2.301  1.00  0.00    -0.388 OA
HETATM   10  C   UNL     1      62.567   8.251   1.953  1.00  0.00     0.187 C 
HETATM   11  C   UNL     1      62.983   7.427   3.176  1.00  0.00     0.149 C 
ENDBRANCH   1   6
BRANCH   4  12
HETATM   12  C   UNL     1      66.087   5.818   8.085  1.00  0.00     0.210 C 
BRANCH  12  13
HETATM   13  O   UNL     1      65.500   4.540   7.869  1.00  0.00    -0.396 OA
HETATM   14  H   UNL     1      64.626   4.651   7.463  1.00  0.00     0.209 HD
ENDBRANCH  12  13
ENDBRANCH   4  12
TORSDOF 3
ENDMDL
