MODEL 1
REMARK VINA RESULT:      -4.7      0.000      0.000
REMARK  1 active torsions:
REMARK  status: ('A' for Active; 'I' for Inactive)
REMARK    1  A    between atoms: C_9  and  N_10 
ROOT
HETATM    1  N   UNL     1      64.064   8.423   5.934  1.00  0.00    -0.353 N 
ATOM      2  HN  UNL     1      64.321   8.659   6.891  1.00  0.00     0.166 HD
HETATM    3  S   UNL     1      63.780   7.133   3.722  1.00  0.00    -0.075 SA
HETATM    4  C   UNL     1      64.343   7.286   5.335  1.00  0.00     0.048 A 
HETATM    5  C   UNL     1      63.114   8.718   3.805  1.00  0.00     0.035 A 
HETATM    6  C   UNL     1      63.368   9.251   5.069  1.00  0.00     0.050 A 
HETATM    7  C   UNL     1      62.425   9.445   2.817  1.00  0.00     0.050 A 
HETATM    8  C   UNL     1      62.929  10.559   5.348  1.00  0.00     0.033 A 
HETATM    9  C   UNL     1      61.947  10.723   3.124  1.00  0.00     0.027 A 
HETATM   10  C   UNL     1      62.245  11.286   4.365  1.00  0.00     0.031 A 
HETATM   11  C   UNL     1      65.102   6.170   5.963  1.00  0.00     0.076 C 
ENDROOT
BRANCH   9  12
HETATM   12  N   UNL     1      61.382  11.514   2.114  1.00  0.00    -0.399 N 
HETATM   13  H   UNL     1      60.868  11.093   1.388  1.00  0.00     0.156 HD
HETATM   14  H   UNL     1      61.500  12.491   2.131  1.00  0.00     0.156 HD
ENDBRANCH   9  12
TORSDOF 1
ENDMDL
MODEL 2
REMARK VINA RESULT:      -4.5      1.906      3.427
REMARK  1 active torsions:
REMARK  status: ('A' for Active; 'I' for Inactive)
REMARK    1  A    between atoms: C_9  and  N_10 
ROOT
HETATM    1  N   UNL     1      61.780   9.049   1.614  1.00  0.00    -0.353 N 
ATOM      2  HN  UNL     1      61.243   9.446   0.843  1.00  0.00     0.166 HD
HETATM    3  S   UNL     1      63.147   7.412   3.058  1.00  0.00    -0.075 SA
HETATM    4  C   UNL     1      62.262   7.826   1.649  1.00  0.00     0.048 A 
HETATM    5  C   UNL     1      62.864   8.985   3.698  1.00  0.00     0.035 A 
HETATM    6  C   UNL     1      62.111   9.718   2.780  1.00  0.00     0.050 A 
HETATM    7  C   UNL     1      63.267   9.528   4.931  1.00  0.00     0.050 A 
HETATM    8  C   UNL     1      61.742  11.035   3.113  1.00  0.00     0.033 A 
HETATM    9  C   UNL     1      62.938  10.855   5.229  1.00  0.00     0.027 A 
HETATM   10  C   UNL     1      62.140  11.578   4.343  1.00  0.00     0.031 A 
HETATM   11  C   UNL     1      62.077   6.819   0.568  1.00  0.00     0.076 C 
ENDROOT
BRANCH   9  12
HETATM   12  N   UNL     1      63.210  11.368   6.503  1.00  0.00    -0.399 N 
HETATM   13  H   UNL     1      62.470  11.602   7.110  1.00  0.00     0.156 HD
HETATM   14  H   UNL     1      64.143  11.496   6.794  1.00  0.00     0.156 HD
ENDBRANCH   9  12
TORSDOF 1
ENDMDL
MODEL 3
REMARK VINA RESULT:      -4.3      1.799      4.082
REMARK  1 active torsions:
REMARK  status: ('A' for Active; 'I' for Inactive)
REMARK    1  A    between atoms: C_9  and  N_10 
ROOT
HETATM    1  N   UNL     1      60.886   9.398   2.298  1.00  0.00    -0.353 N 
ATOM      2  HN  UNL     1      60.216  10.164   2.226  1.00  0.00     0.166 HD
HETATM    3  S   UNL     1      62.147   7.198   1.847  1.00  0.00    -0.075 SA
HETATM    4  C   UNL     1      60.901   8.332   1.528  1.00  0.00     0.048 A 
HETATM    5  C   UNL     1      62.720   8.189   3.132  1.00  0.00     0.035 A 
HETATM    6  C   UNL     1      61.915   9.325   3.221  1.00  0.00     0.050 A 
HETATM    7  C   UNL     1      63.798   7.972   4.009  1.00  0.00     0.050 A 
HETATM    8  C   UNL     1      62.192  10.269   4.229  1.00  0.00     0.033 A 
HETATM    9  C   UNL     1      64.096   8.942   4.972  1.00  0.00     0.027 A 
HETATM   10  C   UNL     1      63.264  10.053   5.106  1.00  0.00     0.031 A 
HETATM   11  C   UNL     1      59.922   8.070   0.437  1.00  0.00     0.076 C 
ENDROOT
BRANCH   9  12
HETATM   12  N   UNL     1      65.076   8.681   5.939  1.00  0.00    -0.399 N 
HETATM   13  H   UNL     1      64.850   8.157   6.741  1.00  0.00     0.156 HD
HETATM   14  H   UNL     1      65.992   9.023   5.816  1.00  0.00     0.156 HD
ENDBRANCH   9  12
TORSDOF 1
ENDMDL
MODEL 4
REMARK VINA RESULT:      -4.1      2.406      3.622
REMARK  1 active torsions:
REMARK  status: ('A' for Active; 'I' for Inactive)
REMARK    1  A    between atoms: C_9  and  N_10 
ROOT
HETATM    1  N   UNL     1      63.063   7.124   2.271  1.00  0.00    -0.353 N 
ATOM      2  HN  UNL     1      63.620   6.271   2.223  1.00  0.00     0.166 HD
HETATM    3  S   UNL     1      61.330   8.951   1.726  1.00  0.00    -0.075 SA
HETATM    4  C   UNL     1      62.135   7.470   1.406  1.00  0.00     0.048 A 
HETATM    5  C   UNL     1      62.300   9.173   3.131  1.00  0.00     0.035 A 
HETATM    6  C   UNL     1      63.171   8.090   3.256  1.00  0.00     0.050 A 
HETATM    7  C   UNL     1      62.299  10.237   4.051  1.00  0.00     0.050 A 
HETATM    8  C   UNL     1      64.079   8.079   4.332  1.00  0.00     0.033 A 
HETATM    9  C   UNL     1      63.170  10.188   5.146  1.00  0.00     0.027 A 
HETATM   10  C   UNL     1      64.082   9.138   5.250  1.00  0.00     0.031 A 
HETATM   11  C   UNL     1      61.768   6.673   0.203  1.00  0.00     0.076 C 
ENDROOT
BRANCH   9  12
HETATM   12  N   UNL     1      63.281  11.298   5.994  1.00  0.00    -0.399 N 
HETATM   13  H   UNL     1      62.521  11.562   6.562  1.00  0.00     0.156 HD
HETATM   14  H   UNL     1      64.119  11.814   6.022  1.00  0.00     0.156 HD
ENDBRANCH   9  12
TORSDOF 1
ENDMDL
MODEL 5
REMARK VINA RESULT:      -4.1      1.681      2.386
REMARK  1 active torsions:
REMARK  status: ('A' for Active; 'I' for Inactive)
REMARK    1  A    between atoms: C_9  and  N_10 
ROOT
HETATM    1  N   UNL     1      63.045   6.587   3.329  1.00  0.00    -0.353 N 
ATOM      2  HN  UNL     1      63.172   5.784   2.714  1.00  0.00     0.166 HD
HETATM    3  S   UNL     1      62.945   8.067   5.435  1.00  0.00    -0.075 SA
HETATM    4  C   UNL     1      63.203   6.573   4.635  1.00  0.00     0.048 A 
HETATM    5  C   UNL     1      62.575   8.810   3.927  1.00  0.00     0.035 A 
HETATM    6  C   UNL     1      62.680   7.857   2.914  1.00  0.00     0.050 A 
HETATM    7  C   UNL     1      62.204  10.140   3.660  1.00  0.00     0.050 A 
HETATM    8  C   UNL     1      62.394   8.246   1.592  1.00  0.00     0.033 A 
HETATM    9  C   UNL     1      61.973  10.528   2.335  1.00  0.00     0.027 A 
HETATM   10  C   UNL     1      62.022   9.570   1.323  1.00  0.00     0.031 A 
HETATM   11  C   UNL     1      63.575   5.365   5.423  1.00  0.00     0.076 C 
ENDROOT
BRANCH   9  12
HETATM   12  N   UNL     1      61.472  11.808   2.064  1.00  0.00    -0.399 N 
HETATM   13  H   UNL     1      62.089  12.568   1.960  1.00  0.00     0.156 HD
HETATM   14  H   UNL     1      60.500  11.947   1.977  1.00  0.00     0.156 HD
ENDBRANCH   9  12
TORSDOF 1
ENDMDL
MODEL 6
REMARK VINA RESULT:      -3.9      2.299      4.594
REMARK  1 active torsions:
REMARK  status: ('A' for Active; 'I' for Inactive)
REMARK    1  A    between atoms: C_9  and  N_10 
ROOT
HETATM    1  N   UNL     1      62.738   7.374   2.097  1.00  0.00    -0.353 N 
ATOM      2  HN  UNL     1      62.758   6.595   1.438  1.00  0.00     0.166 HD
HETATM    3  S   UNL     1      62.064   9.555   3.290  1.00  0.00    -0.075 SA
HETATM    4  C   UNL     1      61.895   8.382   2.050  1.00  0.00     0.048 A 
HETATM    5  C   UNL     1      63.381   8.665   3.951  1.00  0.00     0.035 A 
HETATM    6  C   UNL     1      63.595   7.527   3.173  1.00  0.00     0.050 A 
HETATM    7  C   UNL     1      64.179   8.961   5.072  1.00  0.00     0.050 A 
HETATM    8  C   UNL     1      64.650   6.662   3.522  1.00  0.00     0.033 A 
HETATM    9  C   UNL     1      65.190   8.066   5.440  1.00  0.00     0.027 A 
HETATM   10  C   UNL     1      65.447   6.955   4.637  1.00  0.00     0.031 A 
HETATM   11  C   UNL     1      60.846   8.552   1.008  1.00  0.00     0.076 C 
ENDROOT
BRANCH   9  12
HETATM   12  N   UNL     1      66.080   8.409   6.466  1.00  0.00    -0.399 N 
HETATM   13  H   UNL     1      65.739   8.602   7.370  1.00  0.00     0.156 HD
HETATM   14  H   UNL     1      67.046   8.457   6.284  1.00  0.00     0.156 HD
ENDBRANCH   9  12
TORSDOF 1
ENDMDL
MODEL 7
REMARK VINA RESULT:      -3.9      2.605      6.117
REMARK  1 active torsions:
REMARK  status: ('A' for Active; 'I' for Inactive)
REMARK    1  A    between atoms: C_9  and  N_10 
ROOT
HETATM    1  N   UNL     1      65.261   8.333   6.021  1.00  0.00    -0.353 N 
ATOM      2  HN  UNL     1      65.665   9.270   6.034  1.00  0.00     0.166 HD
HETATM    3  S   UNL     1      63.732   6.333   5.478  1.00  0.00    -0.075 SA
HETATM    4  C   UNL     1      64.193   7.979   5.341  1.00  0.00     0.048 A 
HETATM    5  C   UNL     1      65.052   6.053   6.546  1.00  0.00     0.035 A 
HETATM    6  C   UNL     1      65.757   7.244   6.718  1.00  0.00     0.050 A 
HETATM    7  C   UNL     1      65.430   4.865   7.198  1.00  0.00     0.050 A 
HETATM    8  C   UNL     1      66.870   7.249   7.580  1.00  0.00     0.033 A 
HETATM    9  C   UNL     1      66.570   4.869   8.010  1.00  0.00     0.027 A 
HETATM   10  C   UNL     1      67.248   6.067   8.232  1.00  0.00     0.031 A 
HETATM   11  C   UNL     1      63.392   8.905   4.494  1.00  0.00     0.076 C 
ENDROOT
BRANCH   9  12
HETATM   12  N   UNL     1      66.882   3.736   8.772  1.00  0.00    -0.399 N 
HETATM   13  H   UNL     1      66.223   3.011   8.872  1.00  0.00     0.156 HD
HETATM   14  H   UNL     1      67.762   3.664   9.209  1.00  0.00     0.156 HD
ENDBRANCH   9  12
TORSDOF 1
ENDMDL
MODEL 8
REMARK VINA RESULT:      -3.8      1.784      2.094
REMARK  1 active torsions:
REMARK  status: ('A' for Active; 'I' for Inactive)
REMARK    1  A    between atoms: C_9  and  N_10 
ROOT
HETATM    1  N   UNL     1      64.756   8.059   6.147  1.00  0.00    -0.353 N 
ATOM      2  HN  UNL     1      65.461   8.760   6.373  1.00  0.00     0.166 HD
HETATM    3  S   UNL     1      63.435   5.848   6.077  1.00  0.00    -0.075 SA
HETATM    4  C   UNL     1      64.748   6.822   6.595  1.00  0.00     0.048 A 
HETATM    5  C   UNL     1      62.818   7.169   5.161  1.00  0.00     0.035 A 
HETATM    6  C   UNL     1      63.663   8.267   5.323  1.00  0.00     0.050 A 
HETATM    7  C   UNL     1      61.673   7.226   4.346  1.00  0.00     0.050 A 
HETATM    8  C   UNL     1      63.358   9.458   4.636  1.00  0.00     0.033 A 
HETATM    9  C   UNL     1      61.351   8.431   3.711  1.00  0.00     0.027 A 
HETATM   10  C   UNL     1      62.219   9.517   3.821  1.00  0.00     0.031 A 
HETATM   11  C   UNL     1      65.788   6.248   7.492  1.00  0.00     0.076 C 
ENDROOT
BRANCH   9  12
HETATM   12  N   UNL     1      60.296   8.469   2.789  1.00  0.00    -0.399 N 
HETATM   13  H   UNL     1      60.185   9.249   2.198  1.00  0.00     0.156 HD
HETATM   14  H   UNL     1      59.665   7.715   2.733  1.00  0.00     0.156 HD
ENDBRANCH   9  12
TORSDOF 1
ENDMDL
MODEL 9
REMARK VINA RESULT:      -3.7      2.436      3.324
REMARK  1 active torsions:
REMARK  status: ('A' for Active; 'I' for Inactive)
REMARK    1  A    between atoms: C_9  and  N_10 
ROOT
HETATM    1  N   UNL     1      65.201   6.186   7.412  1.00  0.00    -0.353 N 
ATOM      2  HN  UNL     1      64.857   5.399   7.962  1.00  0.00     0.166 HD
HETATM    3  S   UNL     1      66.743   8.008   6.443  1.00  0.00    -0.075 SA
HETATM    4  C   UNL     1      66.412   6.694   7.494  1.00  0.00     0.048 A 
HETATM    5  C   UNL     1      65.140   7.917   5.825  1.00  0.00     0.035 A 
HETATM    6  C   UNL     1      64.464   6.879   6.468  1.00  0.00     0.050 A 
HETATM    7  C   UNL     1      64.518   8.717   4.849  1.00  0.00     0.050 A 
HETATM    8  C   UNL     1      63.118   6.642   6.130  1.00  0.00     0.033 A 
HETATM    9  C   UNL     1      63.196   8.437   4.484  1.00  0.00     0.027 A 
HETATM   10  C   UNL     1      62.495   7.439   5.159  1.00  0.00     0.031 A 
HETATM   11  C   UNL     1      67.466   6.205   8.425  1.00  0.00     0.076 C 
ENDROOT
BRANCH   9  12
HETATM   12  N   UNL     1      62.518   9.304   3.617  1.00  0.00    -0.399 N 
HETATM   13  H   UNL     1      63.020   9.969   3.092  1.00  0.00     0.156 HD
HETATM   14  H   UNL     1      61.538   9.249   3.533  1.00  0.00     0.156 HD
ENDBRANCH   9  12
TORSDOF 1
ENDMDL
