MODEL 1
REMARK VINA RESULT:      -4.7      0.000      0.000
REMARK  2 active torsions:
REMARK  status: ('A' for Active; 'I' for Inactive)
REMARK    1  A    between atoms: C_1  and  C_5 
REMARK    2  A    between atoms: C_11  and  N_12 
ROOT
HETATM    1  N   UNL     1      61.574  10.356   3.380  1.00  0.00    -0.363 N 
ATOM      2  HN  UNL     1      60.888  10.756   2.739  1.00  0.00     0.165 HD
HETATM    3  C   UNL     1      61.954   9.058   3.290  1.00  0.00     0.049 A 
HETATM    4  C   UNL     1      62.924   8.513   4.124  1.00  0.00     0.033 A 
HETATM    5  C   UNL     1      62.147  11.099   4.361  1.00  0.00     0.117 A 
HETATM    6  C   UNL     1      63.061  10.618   5.297  1.00  0.00     0.041 A 
HETATM    7  C   UNL     1      63.491   9.309   5.121  1.00  0.00     0.033 A 
ENDROOT
BRANCH   3   8
HETATM    8  C   UNL     1      61.271   8.290   2.239  1.00  0.00     0.031 A 
HETATM    9  S   UNL     1      60.622   6.729   2.564  1.00  0.00    -0.100 SA
HETATM   10  C   UNL     1      60.023   6.559   0.975  1.00  0.00     0.050 A 
HETATM   11  C   UNL     1      60.299   7.661   0.201  1.00  0.00     0.008 A 
HETATM   12  C   UNL     1      61.011   8.659   0.930  1.00  0.00     0.021 A 
ENDBRANCH   3   8
BRANCH   6  13
HETATM   13  N   UNL     1      63.702  11.456   6.216  1.00  0.00    -0.398 N 
HETATM   14  H   UNL     1      64.466  11.120   6.738  1.00  0.00     0.156 HD
HETATM   15  H   UNL     1      63.390  12.381   6.340  1.00  0.00     0.156 HD
ENDBRANCH   6  13
TORSDOF 2
ENDMDL
MODEL 2
REMARK VINA RESULT:      -4.6      3.701      4.885
REMARK  2 active torsions:
REMARK  status: ('A' for Active; 'I' for Inactive)
REMARK    1  A    between atoms: C_1  and  C_5 
REMARK    2  A    between atoms: C_11  and  N_12 
ROOT
HETATM    1  N   UNL     1      64.738   7.472   6.629  1.00  0.00    -0.363 N 
ATOM      2  HN  UNL     1      63.781   7.497   6.981  1.00  0.00     0.165 HD
HETATM    3  C   UNL     1      65.069   8.018   5.434  1.00  0.00     0.049 A 
HETATM    4  C   UNL     1      66.377   8.036   4.966  1.00  0.00     0.033 A 
HETATM    5  C   UNL     1      65.739   6.891   7.338  1.00  0.00     0.117 A 
HETATM    6  C   UNL     1      67.062   6.782   6.912  1.00  0.00     0.041 A 
HETATM    7  C   UNL     1      67.381   7.428   5.724  1.00  0.00     0.033 A 
ENDROOT
BRANCH   3   8
HETATM    8  C   UNL     1      63.939   8.595   4.690  1.00  0.00     0.031 A 
HETATM    9  S   UNL     1      63.157  10.026   5.240  1.00  0.00    -0.100 SA
HETATM   10  C   UNL     1      62.080  10.042   3.916  1.00  0.00     0.050 A 
HETATM   11  C   UNL     1      62.301   8.988   3.060  1.00  0.00     0.008 A 
HETATM   12  C   UNL     1      63.374   8.161   3.502  1.00  0.00     0.021 A 
ENDBRANCH   3   8
BRANCH   6  13
HETATM   13  N   UNL     1      68.074   6.272   7.733  1.00  0.00    -0.398 N 
HETATM   14  H   UNL     1      68.135   5.303   7.894  1.00  0.00     0.156 HD
HETATM   15  H   UNL     1      68.725   6.882   8.149  1.00  0.00     0.156 HD
ENDBRANCH   6  13
TORSDOF 2
ENDMDL
MODEL 3
REMARK VINA RESULT:      -4.5      3.306      5.460
REMARK  2 active torsions:
REMARK  status: ('A' for Active; 'I' for Inactive)
REMARK    1  A    between atoms: C_1  and  C_5 
REMARK    2  A    between atoms: C_11  and  N_12 
ROOT
HETATM    1  N   UNL     1      64.107   9.392   5.510  1.00  0.00    -0.363 N 
ATOM      2  HN  UNL     1      64.574   9.744   6.346  1.00  0.00     0.165 HD
HETATM    3  C   UNL     1      64.551   8.286   4.863  1.00  0.00     0.049 A 
HETATM    4  C   UNL     1      63.896   7.767   3.753  1.00  0.00     0.033 A 
HETATM    5  C   UNL     1      63.014  10.009   4.994  1.00  0.00     0.117 A 
HETATM    6  C   UNL     1      62.345   9.615   3.837  1.00  0.00     0.041 A 
HETATM    7  C   UNL     1      62.774   8.430   3.251  1.00  0.00     0.033 A 
ENDROOT
BRANCH   3   8
HETATM    8  C   UNL     1      65.762   7.684   5.440  1.00  0.00     0.031 A 
HETATM    9  S   UNL     1      65.694   6.802   6.917  1.00  0.00    -0.100 SA
HETATM   10  C   UNL     1      67.361   6.440   6.872  1.00  0.00     0.050 A 
HETATM   11  C   UNL     1      67.972   6.970   5.758  1.00  0.00     0.008 A 
HETATM   12  C   UNL     1      67.051   7.678   4.933  1.00  0.00     0.021 A 
ENDBRANCH   3   8
BRANCH   6  13
HETATM   13  N   UNL     1      61.157  10.223   3.414  1.00  0.00    -0.398 N 
HETATM   14  H   UNL     1      60.694   9.891   2.612  1.00  0.00     0.156 HD
HETATM   15  H   UNL     1      60.786  10.982   3.919  1.00  0.00     0.156 HD
ENDBRANCH   6  13
TORSDOF 2
ENDMDL
MODEL 4
REMARK VINA RESULT:      -4.5      2.624      4.865
REMARK  2 active torsions:
REMARK  status: ('A' for Active; 'I' for Inactive)
REMARK    1  A    between atoms: C_1  and  C_5 
REMARK    2  A    between atoms: C_11  and  N_12 
ROOT
HETATM    1  N   UNL     1      63.294   8.417   3.482  1.00  0.00    -0.363 N 
ATOM      2  HN  UNL     1      63.656   7.524   3.147  1.00  0.00     0.165 HD
HETATM    3  C   UNL     1      63.568   8.869   4.730  1.00  0.00     0.049 A 
HETATM    4  C   UNL     1      63.124  10.106   5.183  1.00  0.00     0.033 A 
HETATM    5  C   UNL     1      62.515   9.206   2.700  1.00  0.00     0.117 A 
HETATM    6  C   UNL     1      61.952  10.418   3.096  1.00  0.00     0.041 A 
HETATM    7  C   UNL     1      62.325  10.890   4.349  1.00  0.00     0.033 A 
ENDROOT
BRANCH   3   8
HETATM    8  C   UNL     1      64.379   7.955   5.549  1.00  0.00     0.031 A 
HETATM    9  S   UNL     1      63.676   6.563   6.278  1.00  0.00    -0.100 SA
HETATM   10  C   UNL     1      65.162   6.070   6.958  1.00  0.00     0.050 A 
HETATM   11  C   UNL     1      66.184   6.935   6.641  1.00  0.00     0.008 A 
HETATM   12  C   UNL     1      65.734   8.014   5.825  1.00  0.00     0.021 A 
ENDBRANCH   3   8
BRANCH   6  13
HETATM   13  N   UNL     1      61.249  11.243   2.210  1.00  0.00    -0.398 N 
HETATM   14  H   UNL     1      60.788  12.045   2.546  1.00  0.00     0.156 HD
HETATM   15  H   UNL     1      61.215  11.020   1.252  1.00  0.00     0.156 HD
ENDBRANCH   6  13
TORSDOF 2
ENDMDL
MODEL 5
REMARK VINA RESULT:      -4.3      2.972      3.883
REMARK  2 active torsions:
REMARK  status: ('A' for Active; 'I' for Inactive)
REMARK    1  A    between atoms: C_1  and  C_5 
REMARK    2  A    between atoms: C_11  and  N_12 
ROOT
HETATM    1  N   UNL     1      64.738   8.548   4.872  1.00  0.00    -0.363 N 
ATOM      2  HN  UNL     1      65.243   9.249   4.329  1.00  0.00     0.165 HD
HETATM    3  C   UNL     1      63.405   8.360   4.722  1.00  0.00     0.049 A 
HETATM    4  C   UNL     1      62.714   7.375   5.418  1.00  0.00     0.033 A 
HETATM    5  C   UNL     1      65.372   7.761   5.779  1.00  0.00     0.117 A 
HETATM    6  C   UNL     1      64.750   6.809   6.585  1.00  0.00     0.041 A 
HETATM    7  C   UNL     1      63.400   6.584   6.342  1.00  0.00     0.033 A 
ENDROOT
BRANCH   3   8
HETATM    8  C   UNL     1      62.762   9.268   3.759  1.00  0.00     0.031 A 
HETATM    9  S   UNL     1      62.296  10.859   4.221  1.00  0.00    -0.100 SA
HETATM   10  C   UNL     1      61.714  11.228   2.660  1.00  0.00     0.050 A 
HETATM   11  C   UNL     1      61.868  10.173   1.791  1.00  0.00     0.008 A 
HETATM   12  C   UNL     1      62.477   9.049   2.422  1.00  0.00     0.021 A 
ENDBRANCH   3   8
BRANCH   6  13
HETATM   13  N   UNL     1      65.471   5.950   7.422  1.00  0.00    -0.398 N 
HETATM   14  H   UNL     1      65.576   6.167   8.376  1.00  0.00     0.156 HD
HETATM   15  H   UNL     1      65.872   5.129   7.056  1.00  0.00     0.156 HD
ENDBRANCH   6  13
TORSDOF 2
ENDMDL
MODEL 6
REMARK VINA RESULT:      -3.9      4.516      6.599
REMARK  2 active torsions:
REMARK  status: ('A' for Active; 'I' for Inactive)
REMARK    1  A    between atoms: C_1  and  C_5 
REMARK    2  A    between atoms: C_11  and  N_12 
ROOT
HETATM    1  N   UNL     1      65.426   8.368   5.831  1.00  0.00    -0.363 N 
ATOM      2  HN  UNL     1      66.379   8.727   5.894  1.00  0.00     0.165 HD
HETATM    3  C   UNL     1      65.075   7.185   6.390  1.00  0.00     0.049 A 
HETATM    4  C   UNL     1      63.770   6.709   6.356  1.00  0.00     0.033 A 
HETATM    5  C   UNL     1      64.451   9.056   5.185  1.00  0.00     0.117 A 
HETATM    6  C   UNL     1      63.137   8.619   5.022  1.00  0.00     0.041 A 
HETATM    7  C   UNL     1      62.794   7.444   5.682  1.00  0.00     0.033 A 
ENDROOT
BRANCH   3   8
HETATM    8  C   UNL     1      66.180   6.463   7.040  1.00  0.00     0.031 A 
HETATM    9  S   UNL     1      66.330   6.434   8.755  1.00  0.00    -0.100 SA
HETATM   10  C   UNL     1      67.720   5.447   8.697  1.00  0.00     0.050 A 
HETATM   11  C   UNL     1      68.074   5.132   7.405  1.00  0.00     0.008 A 
HETATM   12  C   UNL     1      67.184   5.710   6.454  1.00  0.00     0.021 A 
ENDBRANCH   3   8
BRANCH   6  13
HETATM   13  N   UNL     1      62.147   9.420   4.443  1.00  0.00    -0.398 N 
HETATM   14  H   UNL     1      62.226   9.696   3.502  1.00  0.00     0.156 HD
HETATM   15  H   UNL     1      61.371   9.706   4.977  1.00  0.00     0.156 HD
ENDBRANCH   6  13
TORSDOF 2
ENDMDL
MODEL 7
REMARK VINA RESULT:      -3.9      3.937      5.193
REMARK  2 active torsions:
REMARK  status: ('A' for Active; 'I' for Inactive)
REMARK    1  A    between atoms: C_1  and  C_5 
REMARK    2  A    between atoms: C_11  and  N_12 
ROOT
HETATM    1  N   UNL     1      65.151   7.454   6.832  1.00  0.00    -0.363 N 
ATOM      2  HN  UNL     1      65.300   8.462   6.782  1.00  0.00     0.165 HD
HETATM    3  C   UNL     1      64.199   6.841   6.088  1.00  0.00     0.049 A 
HETATM    4  C   UNL     1      64.018   5.463   6.108  1.00  0.00     0.033 A 
HETATM    5  C   UNL     1      65.896   6.666   7.648  1.00  0.00     0.117 A 
HETATM    6  C   UNL     1      65.729   5.291   7.802  1.00  0.00     0.041 A 
HETATM    7  C   UNL     1      64.804   4.685   6.960  1.00  0.00     0.033 A 
ENDROOT
BRANCH   3   8
HETATM    8  C   UNL     1      63.393   7.748   5.255  1.00  0.00     0.031 A 
HETATM    9  S   UNL     1      61.982   7.184   4.446  1.00  0.00    -0.100 SA
HETATM   10  C   UNL     1      61.646   8.724   3.791  1.00  0.00     0.050 A 
HETATM   11  C   UNL     1      62.577   9.661   4.176  1.00  0.00     0.008 A 
HETATM   12  C   UNL     1      63.577   9.100   5.023  1.00  0.00     0.021 A 
ENDBRANCH   3   8
BRANCH   6  13
HETATM   13  N   UNL     1      66.599   4.512   8.573  1.00  0.00    -0.398 N 
HETATM   14  H   UNL     1      66.748   4.733   9.521  1.00  0.00     0.156 HD
HETATM   15  H   UNL     1      67.063   3.744   8.168  1.00  0.00     0.156 HD
ENDBRANCH   6  13
TORSDOF 2
ENDMDL
MODEL 8
REMARK VINA RESULT:      -3.8      3.482      5.640
REMARK  2 active torsions:
REMARK  status: ('A' for Active; 'I' for Inactive)
REMARK    1  A    between atoms: C_1  and  C_5 
REMARK    2  A    between atoms: C_11  and  N_12 
ROOT
HETATM    1  N   UNL     1      63.376   6.792   4.641  1.00  0.00    -0.363 N 
ATOM      2  HN  UNL     1      63.662   5.823   4.787  1.00  0.00     0.165 HD
HETATM    3  C   UNL     1      64.206   7.826   4.921  1.00  0.00     0.049 A 
HETATM    4  C   UNL     1      63.849   9.147   4.679  1.00  0.00     0.033 A 
HETATM    5  C   UNL     1      62.147   7.102   4.156  1.00  0.00     0.117 A 
HETATM    6  C   UNL     1      61.668   8.397   3.963  1.00  0.00     0.041 A 
HETATM    7  C   UNL     1      62.575   9.428   4.179  1.00  0.00     0.033 A 
ENDROOT
BRANCH   3   8
HETATM    8  C   UNL     1      65.507   7.433   5.483  1.00  0.00     0.031 A 
HETATM    9  S   UNL     1      65.612   6.683   7.029  1.00  0.00    -0.100 SA
HETATM   10  C   UNL     1      67.309   6.531   6.930  1.00  0.00     0.050 A 
HETATM   11  C   UNL     1      67.801   7.033   5.747  1.00  0.00     0.008 A 
HETATM   12  C   UNL     1      66.764   7.544   4.913  1.00  0.00     0.021 A 
ENDBRANCH   3   8
BRANCH   6  13
HETATM   13  N   UNL     1      60.434   8.657   3.357  1.00  0.00    -0.398 N 
HETATM   14  H   UNL     1      60.177   9.582   3.140  1.00  0.00     0.156 HD
HETATM   15  H   UNL     1      59.823   7.914   3.146  1.00  0.00     0.156 HD
ENDBRANCH   6  13
TORSDOF 2
ENDMDL
MODEL 9
REMARK VINA RESULT:      -3.8      3.665      5.846
REMARK  2 active torsions:
REMARK  status: ('A' for Active; 'I' for Inactive)
REMARK    1  A    between atoms: C_1  and  C_5 
REMARK    2  A    between atoms: C_11  and  N_12 
ROOT
HETATM    1  N   UNL     1      62.838   6.762   5.288  1.00  0.00    -0.363 N 
ATOM      2  HN  UNL     1      62.796   5.836   5.713  1.00  0.00     0.165 HD
HETATM    3  C   UNL     1      63.932   7.551   5.414  1.00  0.00     0.049 A 
HETATM    4  C   UNL     1      64.023   8.794   4.798  1.00  0.00     0.033 A 
HETATM    5  C   UNL     1      61.800   7.261   4.570  1.00  0.00     0.117 A 
HETATM    6  C   UNL     1      61.763   8.528   3.991  1.00  0.00     0.041 A 
HETATM    7  C   UNL     1      62.934   9.273   4.067  1.00  0.00     0.033 A 
ENDROOT
BRANCH   3   8
HETATM    8  C   UNL     1      65.009   6.979   6.237  1.00  0.00     0.031 A 
HETATM    9  S   UNL     1      66.493   7.822   6.462  1.00  0.00    -0.100 SA
HETATM   10  C   UNL     1      67.123   6.605   7.478  1.00  0.00     0.050 A 
HETATM   11  C   UNL     1      66.232   5.572   7.657  1.00  0.00     0.008 A 
HETATM   12  C   UNL     1      65.015   5.792   6.949  1.00  0.00     0.021 A 
ENDBRANCH   3   8
BRANCH   6  13
HETATM   13  N   UNL     1      60.711   8.947   3.168  1.00  0.00    -0.398 N 
HETATM   14  H   UNL     1      60.661   8.633   2.237  1.00  0.00     0.156 HD
HETATM   15  H   UNL     1      60.023   9.555   3.522  1.00  0.00     0.156 HD
ENDBRANCH   6  13
TORSDOF 2
ENDMDL
