MODEL 1
REMARK VINA RESULT:      -4.9      0.000      0.000
REMARK  3 active torsions:
REMARK  status: ('A' for Active; 'I' for Inactive)
REMARK    1  A    between atoms: C_1  and  C_5 
REMARK    2  A    between atoms: C_9  and  C_14 
REMARK    3  A    between atoms: O_13  and  C_14 
ROOT
HETATM    1  N   UNL     1      61.486  10.116   3.114  1.00  0.00    -0.364 N 
ATOM      2  HN  UNL     1      60.740  10.394   2.476  1.00  0.00     0.165 HD
HETATM    3  C   UNL     1      62.131   8.932   2.968  1.00  0.00     0.049 A 
HETATM    4  C   UNL     1      62.882  10.601   5.036  1.00  0.00    -0.019 A 
HETATM    5  C   UNL     1      61.871  10.915   4.136  1.00  0.00     0.097 A 
HETATM    6  C   UNL     1      63.181   8.552   3.797  1.00  0.00     0.031 A 
HETATM    7  C   UNL     1      63.556   9.395   4.842  1.00  0.00     0.013 A 
ENDROOT
BRANCH   3   8
HETATM    8  C   UNL     1      61.614   8.090   1.875  1.00  0.00     0.031 A 
HETATM    9  S   UNL     1      62.469   6.690   1.352  1.00  0.00    -0.100 SA
HETATM   10  C   UNL     1      61.274   6.293   0.200  1.00  0.00     0.050 A 
HETATM   11  C   UNL     1      60.238   7.197   0.200  1.00  0.00     0.008 A 
HETATM   12  C   UNL     1      60.430   8.226   1.169  1.00  0.00     0.021 A 
ENDBRANCH   3   8
BRANCH   4  13
HETATM   13  C   UNL     1      63.237  11.512   6.171  1.00  0.00     0.204 C 
BRANCH  13  14
HETATM   14  O   UNL     1      64.621  11.405   6.481  1.00  0.00    -0.396 OA
HETATM   15  H   UNL     1      64.767  10.625   7.039  1.00  0.00     0.209 HD
ENDBRANCH  13  14
ENDBRANCH   4  13
TORSDOF 3
ENDMDL
MODEL 2
REMARK VINA RESULT:      -4.7      3.686      5.442
REMARK  3 active torsions:
REMARK  status: ('A' for Active; 'I' for Inactive)
REMARK    1  A    between atoms: C_1  and  C_5 
REMARK    2  A    between atoms: C_9  and  C_14 
REMARK    3  A    between atoms: O_13  and  C_14 
ROOT
HETATM    1  N   UNL     1      64.402   9.102   5.722  1.00  0.00    -0.364 N 
ATOM      2  HN  UNL     1      64.866   9.375   6.589  1.00  0.00     0.165 HD
HETATM    3  C   UNL     1      64.712   7.940   5.095  1.00  0.00     0.049 A 
HETATM    4  C   UNL     1      62.780   9.570   3.983  1.00  0.00    -0.019 A 
HETATM    5  C   UNL     1      63.455   9.884   5.156  1.00  0.00     0.097 A 
HETATM    6  C   UNL     1      64.061   7.526   3.938  1.00  0.00     0.031 A 
HETATM    7  C   UNL     1      63.088   8.352   3.377  1.00  0.00     0.013 A 
ENDROOT
BRANCH   3   8
HETATM    8  C   UNL     1      65.796   7.175   5.734  1.00  0.00     0.031 A 
HETATM    9  S   UNL     1      65.631   6.569   7.337  1.00  0.00    -0.100 SA
HETATM   10  C   UNL     1      67.165   5.823   7.299  1.00  0.00     0.050 A 
HETATM   11  C   UNL     1      67.805   6.021   6.098  1.00  0.00     0.008 A 
HETATM   12  C   UNL     1      67.014   6.792   5.196  1.00  0.00     0.021 A 
ENDBRANCH   3   8
BRANCH   4  13
HETATM   13  C   UNL     1      61.765  10.496   3.385  1.00  0.00     0.204 C 
BRANCH  13  14
HETATM   14  O   UNL     1      61.828  11.773   4.008  1.00  0.00    -0.396 OA
HETATM   15  H   UNL     1      62.743  12.098   3.986  1.00  0.00     0.209 HD
ENDBRANCH  13  14
ENDBRANCH   4  13
TORSDOF 3
ENDMDL
MODEL 3
REMARK VINA RESULT:      -4.7      3.973      5.140
REMARK  3 active torsions:
REMARK  status: ('A' for Active; 'I' for Inactive)
REMARK    1  A    between atoms: C_1  and  C_5 
REMARK    2  A    between atoms: C_9  and  C_14 
REMARK    3  A    between atoms: O_13  and  C_14 
ROOT
HETATM    1  N   UNL     1      64.532   7.570   6.601  1.00  0.00    -0.364 N 
ATOM      2  HN  UNL     1      63.586   7.680   6.966  1.00  0.00     0.165 HD
HETATM    3  C   UNL     1      64.894   8.117   5.414  1.00  0.00     0.049 A 
HETATM    4  C   UNL     1      66.778   6.692   6.846  1.00  0.00    -0.019 A 
HETATM    5  C   UNL     1      65.471   6.874   7.282  1.00  0.00     0.097 A 
HETATM    6  C   UNL     1      66.190   8.018   4.918  1.00  0.00     0.031 A 
HETATM    7  C   UNL     1      67.138   7.296   5.641  1.00  0.00     0.013 A 
ENDROOT
BRANCH   3   8
HETATM    8  C   UNL     1      63.803   8.802   4.702  1.00  0.00     0.031 A 
HETATM    9  S   UNL     1      63.154  10.285   5.285  1.00  0.00    -0.100 SA
HETATM   10  C   UNL     1      62.073  10.422   3.972  1.00  0.00     0.050 A 
HETATM   11  C   UNL     1      62.189   9.368   3.097  1.00  0.00     0.008 A 
HETATM   12  C   UNL     1      63.189   8.440   3.513  1.00  0.00     0.021 A 
ENDBRANCH   3   8
BRANCH   4  13
HETATM   13  C   UNL     1      67.763   5.879   7.629  1.00  0.00     0.204 C 
BRANCH  13  14
HETATM   14  O   UNL     1      68.075   6.523   8.858  1.00  0.00    -0.396 OA
HETATM   15  H   UNL     1      68.287   7.455   8.690  1.00  0.00     0.209 HD
ENDBRANCH  13  14
ENDBRANCH   4  13
TORSDOF 3
ENDMDL
MODEL 4
REMARK VINA RESULT:      -4.4      4.587      6.565
REMARK  3 active torsions:
REMARK  status: ('A' for Active; 'I' for Inactive)
REMARK    1  A    between atoms: C_1  and  C_5 
REMARK    2  A    between atoms: C_9  and  C_14 
REMARK    3  A    between atoms: O_13  and  C_14 
ROOT
HETATM    1  N   UNL     1      63.866   6.898   6.785  1.00  0.00    -0.364 N 
ATOM      2  HN  UNL     1      63.544   6.237   7.492  1.00  0.00     0.165 HD
HETATM    3  C   UNL     1      65.187   7.114   6.575  1.00  0.00     0.049 A 
HETATM    4  C   UNL     1      63.359   8.501   5.039  1.00  0.00    -0.019 A 
HETATM    5  C   UNL     1      62.990   7.592   6.022  1.00  0.00     0.097 A 
HETATM    6  C   UNL     1      65.650   7.976   5.586  1.00  0.00     0.031 A 
HETATM    7  C   UNL     1      64.724   8.677   4.814  1.00  0.00     0.013 A 
ENDROOT
BRANCH   3   8
HETATM    8  C   UNL     1      66.077   6.373   7.485  1.00  0.00     0.031 A 
HETATM    9  S   UNL     1      66.158   4.654   7.446  1.00  0.00    -0.100 SA
HETATM   10  C   UNL     1      67.354   4.603   8.661  1.00  0.00     0.050 A 
HETATM   11  C   UNL     1      67.697   5.859   9.100  1.00  0.00     0.008 A 
HETATM   12  C   UNL     1      66.968   6.878   8.419  1.00  0.00     0.021 A 
ENDBRANCH   3   8
BRANCH   4  13
HETATM   13  C   UNL     1      62.340   9.267   4.251  1.00  0.00     0.204 C 
BRANCH  13  14
HETATM   14  O   UNL     1      62.404  10.652   4.566  1.00  0.00    -0.396 OA
HETATM   15  H   UNL     1      63.060  11.083   3.995  1.00  0.00     0.209 HD
ENDBRANCH  13  14
ENDBRANCH   4  13
TORSDOF 3
ENDMDL
MODEL 5
REMARK VINA RESULT:      -4.1      3.570      5.655
REMARK  3 active torsions:
REMARK  status: ('A' for Active; 'I' for Inactive)
REMARK    1  A    between atoms: C_1  and  C_5 
REMARK    2  A    between atoms: C_9  and  C_14 
REMARK    3  A    between atoms: O_13  and  C_14 
ROOT
HETATM    1  N   UNL     1      63.953   7.395   3.572  1.00  0.00    -0.364 N 
ATOM      2  HN  UNL     1      64.514   6.546   3.496  1.00  0.00     0.165 HD
HETATM    3  C   UNL     1      64.031   8.192   4.666  1.00  0.00     0.049 A 
HETATM    4  C   UNL     1      62.318   8.912   2.623  1.00  0.00    -0.019 A 
HETATM    5  C   UNL     1      63.105   7.767   2.586  1.00  0.00     0.097 A 
HETATM    6  C   UNL     1      63.310   9.377   4.772  1.00  0.00     0.031 A 
HETATM    7  C   UNL     1      62.444   9.736   3.741  1.00  0.00     0.013 A 
ENDROOT
BRANCH   3   8
HETATM    8  C   UNL     1      64.925   7.689   5.722  1.00  0.00     0.031 A 
HETATM    9  S   UNL     1      64.511   6.299   6.650  1.00  0.00    -0.100 SA
HETATM   10  C   UNL     1      65.971   6.352   7.530  1.00  0.00     0.050 A 
HETATM   11  C   UNL     1      66.771   7.400   7.140  1.00  0.00     0.008 A 
HETATM   12  C   UNL     1      66.172   8.164   6.095  1.00  0.00     0.021 A 
ENDBRANCH   3   8
BRANCH   4  13
HETATM   13  C   UNL     1      61.369   9.252   1.514  1.00  0.00     0.204 C 
BRANCH  13  14
HETATM   14  O   UNL     1      61.565   8.381   0.407  1.00  0.00    -0.396 OA
HETATM   15  H   UNL     1      61.377   8.859  -0.417  1.00  0.00     0.209 HD
ENDBRANCH  13  14
ENDBRANCH   4  13
TORSDOF 3
ENDMDL
MODEL 6
REMARK VINA RESULT:      -4.0      2.384      3.096
REMARK  3 active torsions:
REMARK  status: ('A' for Active; 'I' for Inactive)
REMARK    1  A    between atoms: C_1  and  C_5 
REMARK    2  A    between atoms: C_9  and  C_14 
REMARK    3  A    between atoms: O_13  and  C_14 
ROOT
HETATM    1  N   UNL     1      64.370   6.836   3.271  1.00  0.00    -0.364 N 
ATOM      2  HN  UNL     1      64.256   6.102   2.572  1.00  0.00     0.165 HD
HETATM    3  C   UNL     1      63.445   7.816   3.418  1.00  0.00     0.049 A 
HETATM    4  C   UNL     1      65.663   7.831   5.064  1.00  0.00    -0.019 A 
HETATM    5  C   UNL     1      65.449   6.866   4.087  1.00  0.00     0.097 A 
HETATM    6  C   UNL     1      63.557   8.801   4.395  1.00  0.00     0.031 A 
HETATM    7  C   UNL     1      64.679   8.807   5.223  1.00  0.00     0.013 A 
ENDROOT
BRANCH   3   8
HETATM    8  C   UNL     1      62.334   7.754   2.454  1.00  0.00     0.031 A 
HETATM    9  S   UNL     1      61.974   9.086   1.425  1.00  0.00    -0.100 SA
HETATM   10  C   UNL     1      60.706   8.249   0.650  1.00  0.00     0.050 A 
HETATM   11  C   UNL     1      60.545   6.979   1.152  1.00  0.00     0.008 A 
HETATM   12  C   UNL     1      61.486   6.692   2.184  1.00  0.00     0.021 A 
ENDBRANCH   3   8
BRANCH   4  13
HETATM   13  C   UNL     1      66.898   7.832   5.913  1.00  0.00     0.204 C 
BRANCH  13  14
HETATM   14  O   UNL     1      66.819   8.847   6.906  1.00  0.00    -0.396 OA
HETATM   15  H   UNL     1      66.614   9.696   6.484  1.00  0.00     0.209 HD
ENDBRANCH  13  14
ENDBRANCH   4  13
TORSDOF 3
ENDMDL
MODEL 7
REMARK VINA RESULT:      -3.9      5.627      6.930
REMARK  3 active torsions:
REMARK  status: ('A' for Active; 'I' for Inactive)
REMARK    1  A    between atoms: C_1  and  C_5 
REMARK    2  A    between atoms: C_9  and  C_14 
REMARK    3  A    between atoms: O_13  and  C_14 
ROOT
HETATM    1  N   UNL     1      65.395   5.043   6.448  1.00  0.00    -0.364 N 
ATOM      2  HN  UNL     1      64.728   4.718   5.748  1.00  0.00     0.165 HD
HETATM    3  C   UNL     1      65.480   6.354   6.782  1.00  0.00     0.049 A 
HETATM    4  C   UNL     1      67.154   4.556   8.043  1.00  0.00    -0.019 A 
HETATM    5  C   UNL     1      66.228   4.182   7.077  1.00  0.00     0.097 A 
HETATM    6  C   UNL     1      66.350   6.814   7.766  1.00  0.00     0.031 A 
HETATM    7  C   UNL     1      67.195   5.904   8.398  1.00  0.00     0.013 A 
ENDROOT
BRANCH   3   8
HETATM    8  C   UNL     1      64.590   7.237   6.009  1.00  0.00     0.031 A 
HETATM    9  S   UNL     1      62.889   6.973   5.972  1.00  0.00    -0.100 SA
HETATM   10  C   UNL     1      62.617   8.343   4.992  1.00  0.00     0.050 A 
HETATM   11  C   UNL     1      63.786   9.000   4.689  1.00  0.00     0.008 A 
HETATM   12  C   UNL     1      64.919   8.369   5.280  1.00  0.00     0.021 A 
ENDBRANCH   3   8
BRANCH   4  13
HETATM   13  C   UNL     1      68.075   3.559   8.679  1.00  0.00     0.204 C 
BRANCH  13  14
HETATM   14  O   UNL     1      67.346   2.675   9.522  1.00  0.00    -0.396 OA
HETATM   15  H   UNL     1      66.685   3.178  10.023  1.00  0.00     0.209 HD
ENDBRANCH  13  14
ENDBRANCH   4  13
TORSDOF 3
ENDMDL
MODEL 8
REMARK VINA RESULT:      -3.9      3.538      5.455
REMARK  3 active torsions:
REMARK  status: ('A' for Active; 'I' for Inactive)
REMARK    1  A    between atoms: C_1  and  C_5 
REMARK    2  A    between atoms: C_9  and  C_14 
REMARK    3  A    between atoms: O_13  and  C_14 
ROOT
HETATM    1  N   UNL     1      61.692   6.687   3.261  1.00  0.00    -0.364 N 
ATOM      2  HN  UNL     1      61.706   5.844   3.836  1.00  0.00     0.165 HD
HETATM    3  C   UNL     1      62.639   7.648   3.401  1.00  0.00     0.049 A 
HETATM    4  C   UNL     1      60.656   8.007   1.512  1.00  0.00    -0.019 A 
HETATM    5  C   UNL     1      60.730   6.888   2.331  1.00  0.00     0.097 A 
HETATM    6  C   UNL     1      62.666   8.784   2.598  1.00  0.00     0.031 A 
HETATM    7  C   UNL     1      61.663   8.964   1.647  1.00  0.00     0.013 A 
ENDROOT
BRANCH   3   8
HETATM    8  C   UNL     1      63.612   7.390   4.475  1.00  0.00     0.031 A 
HETATM    9  S   UNL     1      63.095   7.009   6.072  1.00  0.00    -0.100 SA
HETATM   10  C   UNL     1      64.695   6.817   6.632  1.00  0.00     0.050 A 
HETATM   11  C   UNL     1      65.618   7.036   5.637  1.00  0.00     0.008 A 
HETATM   12  C   UNL     1      64.995   7.357   4.395  1.00  0.00     0.021 A 
ENDBRANCH   3   8
BRANCH   4  13
HETATM   13  C   UNL     1      59.544   8.189   0.525  1.00  0.00     0.204 C 
BRANCH  13  14
HETATM   14  O   UNL     1      58.293   8.275   1.194  1.00  0.00    -0.396 OA
HETATM   15  H   UNL     1      58.092   9.205   1.387  1.00  0.00     0.209 HD
ENDBRANCH  13  14
ENDBRANCH   4  13
TORSDOF 3
ENDMDL
MODEL 9
REMARK VINA RESULT:      -3.8      3.142      3.818
REMARK  3 active torsions:
REMARK  status: ('A' for Active; 'I' for Inactive)
REMARK    1  A    between atoms: C_1  and  C_5 
REMARK    2  A    between atoms: C_9  and  C_14 
REMARK    3  A    between atoms: O_13  and  C_14 
ROOT
HETATM    1  N   UNL     1      63.210   6.461   5.921  1.00  0.00    -0.364 N 
ATOM      2  HN  UNL     1      62.647   5.679   6.257  1.00  0.00     0.165 HD
HETATM    3  C   UNL     1      62.698   7.377   5.062  1.00  0.00     0.049 A 
HETATM    4  C   UNL     1      65.313   7.666   5.903  1.00  0.00    -0.019 A 
HETATM    5  C   UNL     1      64.494   6.622   6.316  1.00  0.00     0.097 A 
HETATM    6  C   UNL     1      63.433   8.475   4.626  1.00  0.00     0.031 A 
HETATM    7  C   UNL     1      64.753   8.617   5.050  1.00  0.00     0.013 A 
ENDROOT
BRANCH   3   8
HETATM    8  C   UNL     1      61.319   7.099   4.627  1.00  0.00     0.031 A 
HETATM    9  S   UNL     1      60.693   7.771   3.172  1.00  0.00    -0.100 SA
HETATM   10  C   UNL     1      59.192   6.982   3.358  1.00  0.00     0.050 A 
HETATM   11  C   UNL     1      59.150   6.218   4.500  1.00  0.00     0.008 A 
HETATM   12  C   UNL     1      60.376   6.279   5.226  1.00  0.00     0.021 A 
ENDBRANCH   3   8
BRANCH   4  13
HETATM   13  C   UNL     1      66.740   7.770   6.348  1.00  0.00     0.204 C 
BRANCH  13  14
HETATM   14  O   UNL     1      66.942   8.962   7.097  1.00  0.00    -0.396 OA
HETATM   15  H   UNL     1      67.893   9.148   7.157  1.00  0.00     0.209 HD
ENDBRANCH  13  14
ENDBRANCH   4  13
TORSDOF 3
ENDMDL
