MODEL 1
REMARK VINA RESULT:      -3.6      0.000      0.000
REMARK  3 active torsions:
REMARK  status: ('A' for Active; 'I' for Inactive)
REMARK    1  A    between atoms: C_5  and  C_7 
REMARK    2  A    between atoms: C_7  and  C_10 
REMARK    3  A    between atoms: N_8  and  C_10 
ROOT
HETATM    1  N   UNL     1      60.920   9.449   2.407  1.00  0.00    -0.357 N 
ATOM      2  HN  UNL     1      60.159  10.128   2.435  1.00  0.00     0.166 HD
HETATM    3  C   UNL     1      60.972   8.413   1.597  1.00  0.00     0.046 A 
HETATM    4  S   UNL     1      62.348   7.401   1.782  1.00  0.00    -0.087 SA
HETATM    5  C   UNL     1      62.045   9.485   3.214  1.00  0.00     0.018 A 
HETATM    6  C   UNL     1      62.932   8.443   3.010  1.00  0.00     0.076 A 
HETATM    7  C   UNL     1      59.945   8.091   0.568  1.00  0.00     0.076 C 
ENDROOT
BRANCH   5   8
HETATM    8  C   UNL     1      62.205  10.615   4.183  1.00  0.00     0.084 C 
BRANCH   8   9
HETATM    9  C   UNL     1      63.084  10.239   5.380  1.00  0.00     0.235 C 
BRANCH   9  10
HETATM   10  N   UNL     1      63.502  11.421   6.137  1.00  0.00    -0.079 N 
HETATM   11  H   UNL     1      62.906  11.527   6.958  1.00  0.00     0.274 HD
HETATM   12  H   UNL     1      63.418  12.249   5.547  1.00  0.00     0.274 HD
HETATM   13  H   UNL     1      64.471  11.311   6.432  1.00  0.00     0.274 HD
ENDBRANCH   9  10
ENDBRANCH   8   9
ENDBRANCH   5   8
TORSDOF 3
ENDMDL
MODEL 2
REMARK VINA RESULT:      -3.5      2.587      4.513
REMARK  3 active torsions:
REMARK  status: ('A' for Active; 'I' for Inactive)
REMARK    1  A    between atoms: C_5  and  C_7 
REMARK    2  A    between atoms: C_7  and  C_10 
REMARK    3  A    between atoms: N_8  and  C_10 
ROOT
HETATM    1  N   UNL     1      64.697   9.150   5.699  1.00  0.00    -0.357 N 
ATOM      2  HN  UNL     1      64.818   9.904   6.375  1.00  0.00     0.166 HD
HETATM    3  C   UNL     1      65.489   8.105   5.589  1.00  0.00     0.046 A 
HETATM    4  S   UNL     1      65.082   7.001   4.337  1.00  0.00    -0.087 SA
HETATM    5  C   UNL     1      63.676   9.080   4.765  1.00  0.00     0.018 A 
HETATM    6  C   UNL     1      63.730   7.973   3.937  1.00  0.00     0.076 A 
HETATM    7  C   UNL     1      66.665   7.840   6.462  1.00  0.00     0.076 C 
ENDROOT
BRANCH   5   8
HETATM    8  C   UNL     1      62.635  10.155   4.748  1.00  0.00     0.084 C 
BRANCH   8   9
HETATM    9  C   UNL     1      61.717  10.062   3.525  1.00  0.00     0.235 C 
BRANCH   9  10
HETATM   10  N   UNL     1      61.671  11.326   2.786  1.00  0.00    -0.079 N 
HETATM   11  H   UNL     1      62.548  11.458   2.282  1.00  0.00     0.274 HD
HETATM   12  H   UNL     1      61.537  12.098   3.440  1.00  0.00     0.274 HD
HETATM   13  H   UNL     1      60.898  11.304   2.123  1.00  0.00     0.274 HD
ENDBRANCH   9  10
ENDBRANCH   8   9
ENDBRANCH   5   8
TORSDOF 3
ENDMDL
MODEL 3
REMARK VINA RESULT:      -3.4      2.202      2.666
REMARK  3 active torsions:
REMARK  status: ('A' for Active; 'I' for Inactive)
REMARK    1  A    between atoms: C_5  and  C_7 
REMARK    2  A    between atoms: C_7  and  C_10 
REMARK    3  A    between atoms: N_8  and  C_10 
ROOT
HETATM    1  N   UNL     1      62.349  10.269   3.650  1.00  0.00    -0.357 N 
ATOM      2  HN  UNL     1      62.336  10.918   4.436  1.00  0.00     0.166 HD
HETATM    3  C   UNL     1      62.008  10.576   2.416  1.00  0.00     0.046 A 
HETATM    4  S   UNL     1      62.081   9.282   1.288  1.00  0.00    -0.087 SA
HETATM    5  C   UNL     1      62.726   8.938   3.727  1.00  0.00     0.018 A 
HETATM    6  C   UNL     1      62.641   8.247   2.532  1.00  0.00     0.076 A 
HETATM    7  C   UNL     1      61.588  11.932   1.968  1.00  0.00     0.076 C 
ENDROOT
BRANCH   5   8
HETATM    8  C   UNL     1      63.193   8.393   5.041  1.00  0.00     0.084 C 
BRANCH   8   9
HETATM    9  C   UNL     1      64.717   8.448   5.188  1.00  0.00     0.235 C 
BRANCH   9  10
HETATM   10  N   UNL     1      65.166   7.784   6.414  1.00  0.00    -0.079 N 
HETATM   11  H   UNL     1      65.971   8.281   6.795  1.00  0.00     0.274 HD
HETATM   12  H   UNL     1      65.430   6.822   6.201  1.00  0.00     0.274 HD
HETATM   13  H   UNL     1      64.410   7.786   7.098  1.00  0.00     0.274 HD
ENDBRANCH   9  10
ENDBRANCH   8   9
ENDBRANCH   5   8
TORSDOF 3
ENDMDL
MODEL 4
REMARK VINA RESULT:      -3.4      2.892      4.095
REMARK  3 active torsions:
REMARK  status: ('A' for Active; 'I' for Inactive)
REMARK    1  A    between atoms: C_5  and  C_7 
REMARK    2  A    between atoms: C_7  and  C_10 
REMARK    3  A    between atoms: N_8  and  C_10 
ROOT
HETATM    1  N   UNL     1      63.946   9.243   5.531  1.00  0.00    -0.357 N 
ATOM      2  HN  UNL     1      64.269   9.683   6.392  1.00  0.00     0.166 HD
HETATM    3  C   UNL     1      63.081   9.775   4.694  1.00  0.00     0.046 A 
HETATM    4  S   UNL     1      62.676   8.804   3.336  1.00  0.00    -0.087 SA
HETATM    5  C   UNL     1      64.354   8.000   5.074  1.00  0.00     0.018 A 
HETATM    6  C   UNL     1      63.762   7.601   3.889  1.00  0.00     0.076 A 
HETATM    7  C   UNL     1      62.467  11.122   4.856  1.00  0.00     0.076 C 
ENDROOT
BRANCH   5   8
HETATM    8  C   UNL     1      65.375   7.239   5.860  1.00  0.00     0.084 C 
BRANCH   8   9
HETATM    9  C   UNL     1      66.729   7.954   5.908  1.00  0.00     0.235 C 
BRANCH   9  10
HETATM   10  N   UNL     1      66.977   8.556   7.220  1.00  0.00    -0.079 N 
HETATM   11  H   UNL     1      66.258   9.252   7.416  1.00  0.00     0.274 HD
HETATM   12  H   UNL     1      67.893   9.006   7.219  1.00  0.00     0.274 HD
HETATM   13  H   UNL     1      66.954   7.832   7.936  1.00  0.00     0.274 HD
ENDBRANCH   9  10
ENDBRANCH   8   9
ENDBRANCH   5   8
TORSDOF 3
ENDMDL
MODEL 5
REMARK VINA RESULT:      -3.4      5.843      6.958
REMARK  3 active torsions:
REMARK  status: ('A' for Active; 'I' for Inactive)
REMARK    1  A    between atoms: C_5  and  C_7 
REMARK    2  A    between atoms: C_7  and  C_10 
REMARK    3  A    between atoms: N_8  and  C_10 
ROOT
HETATM    1  N   UNL     1      65.698   7.589   6.941  1.00  0.00    -0.357 N 
ATOM      2  HN  UNL     1      64.950   7.836   7.588  1.00  0.00     0.166 HD
HETATM    3  C   UNL     1      65.699   7.863   5.654  1.00  0.00     0.046 A 
HETATM    4  S   UNL     1      67.068   7.299   4.781  1.00  0.00    -0.087 SA
HETATM    5  C   UNL     1      66.859   6.917   7.290  1.00  0.00     0.018 A 
HETATM    6  C   UNL     1      67.720   6.673   6.236  1.00  0.00     0.076 A 
HETATM    7  C   UNL     1      64.624   8.612   4.948  1.00  0.00     0.076 C 
ENDROOT
BRANCH   5   8
HETATM    8  C   UNL     1      67.078   6.548   8.724  1.00  0.00     0.084 C 
BRANCH   8   9
HETATM    9  C   UNL     1      67.875   5.249   8.878  1.00  0.00     0.235 C 
BRANCH   9  10
HETATM   10  N   UNL     1      67.013   4.069   8.771  1.00  0.00    -0.079 N 
HETATM   11  H   UNL     1      67.472   3.364   8.194  1.00  0.00     0.274 HD
HETATM   12  H   UNL     1      66.127   4.335   8.341  1.00  0.00     0.274 HD
HETATM   13  H   UNL     1      66.840   3.689   9.700  1.00  0.00     0.274 HD
ENDBRANCH   9  10
ENDBRANCH   8   9
ENDBRANCH   5   8
TORSDOF 3
ENDMDL
MODEL 6
REMARK VINA RESULT:      -3.3      4.376      6.118
REMARK  3 active torsions:
REMARK  status: ('A' for Active; 'I' for Inactive)
REMARK    1  A    between atoms: C_5  and  C_7 
REMARK    2  A    between atoms: C_7  and  C_10 
REMARK    3  A    between atoms: N_8  and  C_10 
ROOT
HETATM    1  N   UNL     1      65.937   7.684   7.062  1.00  0.00    -0.357 N 
ATOM      2  HN  UNL     1      66.311   8.603   7.298  1.00  0.00     0.166 HD
HETATM    3  C   UNL     1      66.101   6.598   7.787  1.00  0.00     0.046 A 
HETATM    4  S   UNL     1      65.399   5.169   7.140  1.00  0.00    -0.087 SA
HETATM    5  C   UNL     1      65.184   7.401   5.934  1.00  0.00     0.018 A 
HETATM    6  C   UNL     1      64.805   6.076   5.815  1.00  0.00     0.076 A 
HETATM    7  C   UNL     1      66.827   6.549   9.086  1.00  0.00     0.076 C 
ENDROOT
BRANCH   5   8
HETATM    8  C   UNL     1      64.844   8.513   4.993  1.00  0.00     0.084 C 
BRANCH   8   9
HETATM    9  C   UNL     1      63.395   8.985   5.145  1.00  0.00     0.235 C 
BRANCH   9  10
HETATM   10  N   UNL     1      63.322  10.327   5.729  1.00  0.00    -0.079 N 
HETATM   11  H   UNL     1      62.633  10.334   6.480  1.00  0.00     0.274 HD
HETATM   12  H   UNL     1      63.047  10.996   5.009  1.00  0.00     0.274 HD
HETATM   13  H   UNL     1      64.235  10.585   6.102  1.00  0.00     0.274 HD
ENDBRANCH   9  10
ENDBRANCH   8   9
ENDBRANCH   5   8
TORSDOF 3
ENDMDL
MODEL 7
REMARK VINA RESULT:      -3.3      4.079      5.682
REMARK  3 active torsions:
REMARK  status: ('A' for Active; 'I' for Inactive)
REMARK    1  A    between atoms: C_5  and  C_7 
REMARK    2  A    between atoms: C_7  and  C_10 
REMARK    3  A    between atoms: N_8  and  C_10 
ROOT
HETATM    1  N   UNL     1      64.710   7.162   7.002  1.00  0.00    -0.357 N 
ATOM      2  HN  UNL     1      63.930   6.943   7.621  1.00  0.00     0.166 HD
HETATM    3  C   UNL     1      65.977   6.952   7.288  1.00  0.00     0.046 A 
HETATM    4  S   UNL     1      67.096   7.450   6.082  1.00  0.00    -0.087 SA
HETATM    5  C   UNL     1      64.587   7.723   5.741  1.00  0.00     0.018 A 
HETATM    6  C   UNL     1      65.789   7.950   5.095  1.00  0.00     0.076 A 
HETATM    7  C   UNL     1      66.468   6.326   8.546  1.00  0.00     0.076 C 
ENDROOT
BRANCH   5   8
HETATM    8  C   UNL     1      63.219   8.003   5.203  1.00  0.00     0.084 C 
BRANCH   8   9
HETATM    9  C   UNL     1      63.069   9.445   4.710  1.00  0.00     0.235 C 
BRANCH   9  10
HETATM   10  N   UNL     1      63.152  10.405   5.813  1.00  0.00    -0.079 N 
HETATM   11  H   UNL     1      63.947  10.173   6.407  1.00  0.00     0.274 HD
HETATM   12  H   UNL     1      62.294  10.365   6.363  1.00  0.00     0.274 HD
HETATM   13  H   UNL     1      63.271  11.345   5.437  1.00  0.00     0.274 HD
ENDBRANCH   9  10
ENDBRANCH   8   9
ENDBRANCH   5   8
TORSDOF 3
ENDMDL
MODEL 8
REMARK VINA RESULT:      -3.3      1.821      4.249
REMARK  3 active torsions:
REMARK  status: ('A' for Active; 'I' for Inactive)
REMARK    1  A    between atoms: C_5  and  C_7 
REMARK    2  A    between atoms: C_7  and  C_10 
REMARK    3  A    between atoms: N_8  and  C_10 
ROOT
HETATM    1  N   UNL     1      62.131  10.262   3.037  1.00  0.00    -0.357 N 
ATOM      2  HN  UNL     1      61.721  11.119   2.665  1.00  0.00     0.166 HD
HETATM    3  C   UNL     1      62.614  10.128   4.253  1.00  0.00     0.046 A 
HETATM    4  S   UNL     1      63.286   8.588   4.613  1.00  0.00    -0.087 SA
HETATM    5  C   UNL     1      62.261   9.075   2.334  1.00  0.00     0.018 A 
HETATM    6  C   UNL     1      62.871   8.054   3.040  1.00  0.00     0.076 A 
HETATM    7  C   UNL     1      62.601  11.195   5.291  1.00  0.00     0.076 C 
ENDROOT
BRANCH   5   8
HETATM    8  C   UNL     1      61.732   9.000   0.936  1.00  0.00     0.084 C 
BRANCH   8   9
HETATM    9  C   UNL     1      60.598   7.981   0.793  1.00  0.00     0.235 C 
BRANCH   9  10
HETATM   10  N   UNL     1      59.296   8.573   1.105  1.00  0.00    -0.079 N 
HETATM   11  H   UNL     1      59.355   9.081   1.987  1.00  0.00     0.274 HD
HETATM   12  H   UNL     1      58.597   7.834   1.186  1.00  0.00     0.274 HD
HETATM   13  H   UNL     1      59.027   9.215   0.360  1.00  0.00     0.274 HD
ENDBRANCH   9  10
ENDBRANCH   8   9
ENDBRANCH   5   8
TORSDOF 3
ENDMDL
MODEL 9
REMARK VINA RESULT:      -3.3      2.322      4.433
REMARK  3 active torsions:
REMARK  status: ('A' for Active; 'I' for Inactive)
REMARK    1  A    between atoms: C_5  and  C_7 
REMARK    2  A    between atoms: C_7  and  C_10 
REMARK    3  A    between atoms: N_8  and  C_10 
ROOT
HETATM    1  N   UNL     1      63.110   8.509   3.128  1.00  0.00    -0.357 N 
ATOM      2  HN  UNL     1      63.425   7.674   2.634  1.00  0.00     0.166 HD
HETATM    3  C   UNL     1      63.503   8.863   4.333  1.00  0.00     0.046 A 
HETATM    4  S   UNL     1      62.786  10.297   4.950  1.00  0.00    -0.087 SA
HETATM    5  C   UNL     1      62.206   9.433   2.626  1.00  0.00     0.018 A 
HETATM    6  C   UNL     1      61.913  10.475   3.488  1.00  0.00     0.076 A 
HETATM    7  C   UNL     1      64.501   8.118   5.149  1.00  0.00     0.076 C 
ENDROOT
BRANCH   5   8
HETATM    8  C   UNL     1      61.666   9.240   1.244  1.00  0.00     0.084 C 
BRANCH   8   9
HETATM    9  C   UNL     1      60.665   8.083   1.164  1.00  0.00     0.235 C 
BRANCH   9  10
HETATM   10  N   UNL     1      59.283   8.567   1.098  1.00  0.00    -0.079 N 
HETATM   11  H   UNL     1      58.696   7.860   0.656  1.00  0.00     0.274 HD
HETATM   12  H   UNL     1      59.251   9.427   0.550  1.00  0.00     0.274 HD
HETATM   13  H   UNL     1      58.942   8.752   2.040  1.00  0.00     0.274 HD
ENDBRANCH   9  10
ENDBRANCH   8   9
ENDBRANCH   5   8
TORSDOF 3
ENDMDL
