MODEL 1
REMARK VINA RESULT:      -3.9      0.000      0.000
REMARK  3 active torsions:
REMARK  status: ('A' for Active; 'I' for Inactive)
REMARK    1  A    between atoms: C_5  and  C_7 
REMARK    2  A    between atoms: C_7  and  C_10 
REMARK    3  A    between atoms: O_8  and  C_10 
ROOT
HETATM    1  N   UNL     1      65.030   8.741   5.672  1.00  0.00    -0.357 N 
ATOM      2  HN  UNL     1      65.687   9.503   5.506  1.00  0.00     0.166 HD
HETATM    3  C   UNL     1      65.352   7.558   6.153  1.00  0.00     0.046 A 
HETATM    4  S   UNL     1      64.053   6.447   6.316  1.00  0.00    -0.087 SA
HETATM    5  C   UNL     1      63.667   8.799   5.425  1.00  0.00     0.018 A 
HETATM    6  C   UNL     1      62.978   7.637   5.717  1.00  0.00     0.076 A 
HETATM    7  C   UNL     1      66.729   7.150   6.544  1.00  0.00     0.076 C 
ENDROOT
BRANCH   5   8
HETATM    8  C   UNL     1      63.078  10.065   4.886  1.00  0.00     0.083 C 
BRANCH   8   9
HETATM    9  C   UNL     1      63.064  11.202   5.905  1.00  0.00     0.170 C 
BRANCH   9  10
HETATM   10  O   UNL     1      64.371  11.463   6.410  1.00  0.00    -0.400 OA
HETATM   11  H   UNL     1      64.398  11.257   7.357  1.00  0.00     0.209 HD
ENDBRANCH   9  10
ENDBRANCH   8   9
ENDBRANCH   5   8
TORSDOF 3
ENDMDL
MODEL 2
REMARK VINA RESULT:      -3.7      3.018      4.114
REMARK  3 active torsions:
REMARK  status: ('A' for Active; 'I' for Inactive)
REMARK    1  A    between atoms: C_5  and  C_7 
REMARK    2  A    between atoms: C_7  and  C_10 
REMARK    3  A    between atoms: O_8  and  C_10 
ROOT
HETATM    1  N   UNL     1      61.503  10.055   2.738  1.00  0.00    -0.357 N 
ATOM      2  HN  UNL     1      60.868  10.807   2.473  1.00  0.00     0.166 HD
HETATM    3  C   UNL     1      61.627   8.912   2.096  1.00  0.00     0.046 A 
HETATM    4  S   UNL     1      62.757   7.806   2.767  1.00  0.00    -0.087 SA
HETATM    5  C   UNL     1      62.362  10.086   3.826  1.00  0.00     0.018 A 
HETATM    6  C   UNL     1      63.121   8.943   3.994  1.00  0.00     0.076 A 
HETATM    7  C   UNL     1      60.866   8.542   0.871  1.00  0.00     0.076 C 
ENDROOT
BRANCH   5   8
HETATM    8  C   UNL     1      62.396  11.306   4.692  1.00  0.00     0.083 C 
BRANCH   8   9
HETATM    9  C   UNL     1      62.970  11.040   6.082  1.00  0.00     0.170 C 
BRANCH   9  10
HETATM   10  O   UNL     1      64.294  11.553   6.204  1.00  0.00    -0.400 OA
HETATM   11  H   UNL     1      64.902  11.006   5.683  1.00  0.00     0.209 HD
ENDBRANCH   9  10
ENDBRANCH   8   9
ENDBRANCH   5   8
TORSDOF 3
ENDMDL
MODEL 3
REMARK VINA RESULT:      -3.6      3.209      4.561
REMARK  3 active torsions:
REMARK  status: ('A' for Active; 'I' for Inactive)
REMARK    1  A    between atoms: C_5  and  C_7 
REMARK    2  A    between atoms: C_7  and  C_10 
REMARK    3  A    between atoms: O_8  and  C_10 
ROOT
HETATM    1  N   UNL     1      62.462   9.978   3.548  1.00  0.00    -0.357 N 
ATOM      2  HN  UNL     1      62.518  10.572   4.376  1.00  0.00     0.166 HD
HETATM    3  C   UNL     1      62.071  10.380   2.357  1.00  0.00     0.046 A 
HETATM    4  S   UNL     1      62.049   9.170   1.138  1.00  0.00    -0.087 SA
HETATM    5  C   UNL     1      62.787   8.631   3.513  1.00  0.00     0.018 A 
HETATM    6  C   UNL     1      62.620   8.030   2.280  1.00  0.00     0.076 A 
HETATM    7  C   UNL     1      61.658  11.772   2.027  1.00  0.00     0.076 C 
ENDROOT
BRANCH   5   8
HETATM    8  C   UNL     1      63.274   7.967   4.763  1.00  0.00     0.083 C 
BRANCH   8   9
HETATM    9  C   UNL     1      64.684   8.397   5.161  1.00  0.00     0.170 C 
BRANCH   9  10
HETATM   10  O   UNL     1      64.689   9.708   5.720  1.00  0.00    -0.400 OA
HETATM   11  H   UNL     1      63.850   9.867   6.178  1.00  0.00     0.209 HD
ENDBRANCH   9  10
ENDBRANCH   8   9
ENDBRANCH   5   8
TORSDOF 3
ENDMDL
MODEL 4
REMARK VINA RESULT:      -3.5      2.004      3.627
REMARK  3 active torsions:
REMARK  status: ('A' for Active; 'I' for Inactive)
REMARK    1  A    between atoms: C_5  and  C_7 
REMARK    2  A    between atoms: C_7  and  C_10 
REMARK    3  A    between atoms: O_8  and  C_10 
ROOT
HETATM    1  N   UNL     1      64.477   9.251   5.533  1.00  0.00    -0.357 N 
ATOM      2  HN  UNL     1      65.008   9.669   6.297  1.00  0.00     0.166 HD
HETATM    3  C   UNL     1      63.384   9.762   5.007  1.00  0.00     0.046 A 
HETATM    4  S   UNL     1      62.673   8.843   3.742  1.00  0.00    -0.087 SA
HETATM    5  C   UNL     1      64.801   8.063   4.898  1.00  0.00     0.018 A 
HETATM    6  C   UNL     1      63.925   7.687   3.896  1.00  0.00     0.076 A 
HETATM    7  C   UNL     1      62.755  11.041   5.437  1.00  0.00     0.076 C 
ENDROOT
BRANCH   5   8
HETATM    8  C   UNL     1      66.024   7.316   5.330  1.00  0.00     0.083 C 
BRANCH   8   9
HETATM    9  C   UNL     1      66.387   7.554   6.794  1.00  0.00     0.170 C 
BRANCH   9  10
HETATM   10  O   UNL     1      66.897   8.869   6.996  1.00  0.00    -0.400 OA
HETATM   11  H   UNL     1      67.581   9.055   6.336  1.00  0.00     0.209 HD
ENDBRANCH   9  10
ENDBRANCH   8   9
ENDBRANCH   5   8
TORSDOF 3
ENDMDL
MODEL 5
REMARK VINA RESULT:      -3.5      2.207      2.761
REMARK  3 active torsions:
REMARK  status: ('A' for Active; 'I' for Inactive)
REMARK    1  A    between atoms: C_5  and  C_7 
REMARK    2  A    between atoms: C_7  and  C_10 
REMARK    3  A    between atoms: O_8  and  C_10 
ROOT
HETATM    1  N   UNL     1      65.487   7.631   6.941  1.00  0.00    -0.357 N 
ATOM      2  HN  UNL     1      64.793   7.834   7.660  1.00  0.00     0.166 HD
HETATM    3  C   UNL     1      66.636   7.024   7.151  1.00  0.00     0.046 A 
HETATM    4  S   UNL     1      67.632   6.825   5.766  1.00  0.00    -0.087 SA
HETATM    5  C   UNL     1      65.357   7.952   5.598  1.00  0.00     0.018 A 
HETATM    6  C   UNL     1      66.433   7.588   4.811  1.00  0.00     0.076 A 
HETATM    7  C   UNL     1      67.101   6.528   8.476  1.00  0.00     0.076 C 
ENDROOT
BRANCH   5   8
HETATM    8  C   UNL     1      64.111   8.638   5.131  1.00  0.00     0.083 C 
BRANCH   8   9
HETATM    9  C   UNL     1      62.833   7.942   5.594  1.00  0.00     0.170 C 
BRANCH   9  10
HETATM   10  O   UNL     1      62.651   8.074   7.002  1.00  0.00    -0.400 OA
HETATM   11  H   UNL     1      62.110   8.858   7.185  1.00  0.00     0.209 HD
ENDBRANCH   9  10
ENDBRANCH   8   9
ENDBRANCH   5   8
TORSDOF 3
ENDMDL
MODEL 6
REMARK VINA RESULT:      -3.4      2.939      3.970
REMARK  3 active torsions:
REMARK  status: ('A' for Active; 'I' for Inactive)
REMARK    1  A    between atoms: C_5  and  C_7 
REMARK    2  A    between atoms: C_7  and  C_10 
REMARK    3  A    between atoms: O_8  and  C_10 
ROOT
HETATM    1  N   UNL     1      67.478   6.881   7.051  1.00  0.00    -0.357 N 
ATOM      2  HN  UNL     1      67.376   7.824   7.425  1.00  0.00     0.166 HD
HETATM    3  C   UNL     1      67.809   5.821   7.758  1.00  0.00     0.046 A 
HETATM    4  S   UNL     1      67.932   4.352   6.877  1.00  0.00    -0.087 SA
HETATM    5  C   UNL     1      67.289   6.528   5.724  1.00  0.00     0.018 A 
HETATM    6  C   UNL     1      67.495   5.189   5.448  1.00  0.00     0.076 A 
HETATM    7  C   UNL     1      68.075   5.830   9.223  1.00  0.00     0.076 C 
ENDROOT
BRANCH   5   8
HETATM    8  C   UNL     1      66.890   7.582   4.739  1.00  0.00     0.083 C 
BRANCH   8   9
HETATM    9  C   UNL     1      65.534   8.211   5.049  1.00  0.00     0.170 C 
BRANCH   9  10
HETATM   10  O   UNL     1      65.627   9.145   6.122  1.00  0.00    -0.400 OA
HETATM   11  H   UNL     1      66.531   9.145   6.472  1.00  0.00     0.209 HD
ENDBRANCH   9  10
ENDBRANCH   8   9
ENDBRANCH   5   8
TORSDOF 3
ENDMDL
MODEL 7
REMARK VINA RESULT:      -3.3      2.880      4.217
REMARK  3 active torsions:
REMARK  status: ('A' for Active; 'I' for Inactive)
REMARK    1  A    between atoms: C_5  and  C_7 
REMARK    2  A    between atoms: C_7  and  C_10 
REMARK    3  A    between atoms: O_8  and  C_10 
ROOT
HETATM    1  N   UNL     1      63.124   8.346   3.147  1.00  0.00    -0.357 N 
ATOM      2  HN  UNL     1      63.470   7.502   2.690  1.00  0.00     0.166 HD
HETATM    3  C   UNL     1      62.387   9.269   2.566  1.00  0.00     0.046 A 
HETATM    4  S   UNL     1      61.955  10.603   3.558  1.00  0.00    -0.087 SA
HETATM    5  C   UNL     1      63.362   8.688   4.469  1.00  0.00     0.018 A 
HETATM    6  C   UNL     1      62.800   9.888   4.863  1.00  0.00     0.076 A 
HETATM    7  C   UNL     1      61.930   9.220   1.150  1.00  0.00     0.076 C 
ENDROOT
BRANCH   5   8
HETATM    8  C   UNL     1      64.172   7.766   5.326  1.00  0.00     0.083 C 
BRANCH   8   9
HETATM    9  C   UNL     1      65.667   8.074   5.292  1.00  0.00     0.170 C 
BRANCH   9  10
HETATM   10  O   UNL     1      66.043   8.943   6.358  1.00  0.00    -0.400 OA
HETATM   11  H   UNL     1      65.601   8.663   7.174  1.00  0.00     0.209 HD
ENDBRANCH   9  10
ENDBRANCH   8   9
ENDBRANCH   5   8
TORSDOF 3
ENDMDL
MODEL 8
REMARK VINA RESULT:      -3.2      5.341      5.808
REMARK  3 active torsions:
REMARK  status: ('A' for Active; 'I' for Inactive)
REMARK    1  A    between atoms: C_5  and  C_7 
REMARK    2  A    between atoms: C_7  and  C_10 
REMARK    3  A    between atoms: O_8  and  C_10 
ROOT
HETATM    1  N   UNL     1      60.441   8.435   2.933  1.00  0.00    -0.357 N 
ATOM      2  HN  UNL     1      60.866   8.749   3.806  1.00  0.00     0.166 HD
HETATM    3  C   UNL     1      59.384   7.656   2.848  1.00  0.00     0.046 A 
HETATM    4  S   UNL     1      58.884   7.260   1.253  1.00  0.00    -0.087 SA
HETATM    5  C   UNL     1      60.892   8.768   1.665  1.00  0.00     0.018 A 
HETATM    6  C   UNL     1      60.162   8.214   0.630  1.00  0.00     0.076 A 
HETATM    7  C   UNL     1      58.632   7.117   4.015  1.00  0.00     0.076 C 
ENDROOT
BRANCH   5   8
HETATM    8  C   UNL     1      62.082   9.665   1.527  1.00  0.00     0.083 C 
BRANCH   8   9
HETATM    9  C   UNL     1      61.821  11.088   2.014  1.00  0.00     0.170 C 
BRANCH   9  10
HETATM   10  O   UNL     1      61.385  11.102   3.371  1.00  0.00    -0.400 OA
HETATM   11  H   UNL     1      60.419  11.175   3.399  1.00  0.00     0.209 HD
ENDBRANCH   9  10
ENDBRANCH   8   9
ENDBRANCH   5   8
TORSDOF 3
ENDMDL
MODEL 9
REMARK VINA RESULT:      -3.2      5.031      5.701
REMARK  3 active torsions:
REMARK  status: ('A' for Active; 'I' for Inactive)
REMARK    1  A    between atoms: C_5  and  C_7 
REMARK    2  A    between atoms: C_7  and  C_10 
REMARK    3  A    between atoms: O_8  and  C_10 
ROOT
HETATM    1  N   UNL     1      61.174   9.478   3.260  1.00  0.00    -0.357 N 
ATOM      2  HN  UNL     1      60.830   9.950   4.096  1.00  0.00     0.166 HD
HETATM    3  C   UNL     1      61.667  10.085   2.201  1.00  0.00     0.046 A 
HETATM    4  S   UNL     1      62.156   9.053   0.918  1.00  0.00    -0.087 SA
HETATM    5  C   UNL     1      61.189   8.105   3.072  1.00  0.00     0.018 A 
HETATM    6  C   UNL     1      61.691   7.695   1.851  1.00  0.00     0.076 A 
HETATM    7  C   UNL     1      61.813  11.560   2.061  1.00  0.00     0.076 C 
ENDROOT
BRANCH   5   8
HETATM    8  C   UNL     1      60.684   7.215   4.165  1.00  0.00     0.083 C 
BRANCH   8   9
HETATM    9  C   UNL     1      59.173   7.001   4.115  1.00  0.00     0.170 C 
BRANCH   9  10
HETATM   10  O   UNL     1      58.503   8.148   3.600  1.00  0.00    -0.400 OA
HETATM   11  H   UNL     1      57.796   7.867   3.000  1.00  0.00     0.209 HD
ENDBRANCH   9  10
ENDBRANCH   8   9
ENDBRANCH   5   8
TORSDOF 3
ENDMDL
