MODEL 1
REMARK VINA RESULT:      -5.0      0.000      0.000
REMARK  3 active torsions:
REMARK  status: ('A' for Active; 'I' for Inactive)
REMARK    1  A    between atoms: N_1  and  C_2 
REMARK    2  A    between atoms: C_2  and  C_3 
REMARK    3  A    between atoms: C_5  and  N_6 
ROOT
HETATM    1  C   UNL     1      63.547   8.895   4.543  1.00  0.00    -0.030 A 
HETATM    2  C   UNL     1      62.780   8.821   3.368  1.00  0.00     0.037 A 
HETATM    3  C   UNL     1      61.960   9.879   2.955  1.00  0.00     0.026 A 
HETATM    4  C   UNL     1      62.586  11.092   4.959  1.00  0.00     0.003 A 
HETATM    5  C   UNL     1      63.424  10.039   5.343  1.00  0.00     0.009 A 
HETATM    6  C   UNL     1      61.893  11.031   3.752  1.00  0.00     0.029 A 
ENDROOT
BRANCH   1   7
HETATM    7  C   UNL     1      64.578   7.826   4.883  1.00  0.00     0.273 C 
BRANCH   7   8
HETATM    8  N   UNL     1      65.134   7.888   6.243  1.00  0.00    -0.067 N 
HETATM    9  C   UNL     1      66.567   8.177   6.297  1.00  0.00     0.235 C 
HETATM   10  C   UNL     1      67.284   6.842   6.248  1.00  0.00     0.029 C 
HETATM   11  C   UNL     1      66.332   5.891   6.945  1.00  0.00     0.029 C 
HETATM   12  C   UNL     1      64.980   6.610   6.961  1.00  0.00     0.235 C 
HETATM   13  H   UNL     1      64.604   8.648   6.670  1.00  0.00     0.280 HD
ENDBRANCH   7   8
ENDBRANCH   1   7
BRANCH   3  14
HETATM   14  N   UNL     1      61.449   9.904   1.653  1.00  0.00    -0.399 N 
HETATM   15  H   UNL     1      61.740   9.229   0.998  1.00  0.00     0.156 HD
HETATM   16  H   UNL     1      60.800  10.595   1.392  1.00  0.00     0.156 HD
ENDBRANCH   3  14
TORSDOF 3
ENDMDL
MODEL 2
REMARK VINA RESULT:      -4.7      2.484      5.637
REMARK  3 active torsions:
REMARK  status: ('A' for Active; 'I' for Inactive)
REMARK    1  A    between atoms: N_1  and  C_2 
REMARK    2  A    between atoms: C_2  and  C_3 
REMARK    3  A    between atoms: C_5  and  N_6 
ROOT
HETATM    1  C   UNL     1      62.217   9.462   2.878  1.00  0.00    -0.030 A 
HETATM    2  C   UNL     1      63.068   8.728   3.722  1.00  0.00     0.037 A 
HETATM    3  C   UNL     1      63.488   9.228   4.962  1.00  0.00     0.026 A 
HETATM    4  C   UNL     1      62.278  11.278   4.498  1.00  0.00     0.003 A 
HETATM    5  C   UNL     1      61.843  10.753   3.276  1.00  0.00     0.009 A 
HETATM    6  C   UNL     1      63.059  10.505   5.354  1.00  0.00     0.029 A 
ENDROOT
BRANCH   1   7
HETATM    7  C   UNL     1      61.612   8.837   1.628  1.00  0.00     0.273 C 
BRANCH   7   8
HETATM    8  N   UNL     1      60.170   8.556   1.691  1.00  0.00    -0.067 N 
HETATM    9  C   UNL     1      59.797   7.531   2.667  1.00  0.00     0.235 C 
HETATM   10  C   UNL     1      59.852   6.200   1.944  1.00  0.00     0.029 C 
HETATM   11  C   UNL     1      59.473   6.542   0.517  1.00  0.00     0.029 C 
HETATM   12  C   UNL     1      59.647   8.060   0.405  1.00  0.00     0.235 C 
HETATM   13  H   UNL     1      59.775   9.458   1.957  1.00  0.00     0.280 HD
ENDBRANCH   7   8
ENDBRANCH   1   7
BRANCH   3  14
HETATM   14  N   UNL     1      64.079   8.375   5.899  1.00  0.00    -0.399 N 
HETATM   15  H   UNL     1      65.018   8.100   5.790  1.00  0.00     0.156 HD
HETATM   16  H   UNL     1      63.556   8.049   6.666  1.00  0.00     0.156 HD
ENDBRANCH   3  14
TORSDOF 3
ENDMDL
MODEL 3
REMARK VINA RESULT:      -4.7      1.318      1.901
REMARK  3 active torsions:
REMARK  status: ('A' for Active; 'I' for Inactive)
REMARK    1  A    between atoms: N_1  and  C_2 
REMARK    2  A    between atoms: C_2  and  C_3 
REMARK    3  A    between atoms: C_5  and  N_6 
ROOT
HETATM    1  C   UNL     1      63.762   8.203   4.656  1.00  0.00    -0.030 A 
HETATM    2  C   UNL     1      63.623   9.517   5.136  1.00  0.00     0.037 A 
HETATM    3  C   UNL     1      62.809  10.456   4.490  1.00  0.00     0.026 A 
HETATM    4  C   UNL     1      62.320   8.799   2.788  1.00  0.00     0.003 A 
HETATM    5  C   UNL     1      63.113   7.863   3.461  1.00  0.00     0.009 A 
HETATM    6  C   UNL     1      62.134  10.072   3.321  1.00  0.00     0.029 A 
ENDROOT
BRANCH   1   7
HETATM    7  C   UNL     1      64.490   7.138   5.466  1.00  0.00     0.273 C 
BRANCH   7   8
HETATM    8  N   UNL     1      65.456   7.640   6.454  1.00  0.00    -0.067 N 
HETATM    9  C   UNL     1      66.781   7.933   5.908  1.00  0.00     0.235 C 
HETATM   10  C   UNL     1      67.591   6.656   6.018  1.00  0.00     0.029 C 
HETATM   11  C   UNL     1      67.043   5.982   7.260  1.00  0.00     0.029 C 
HETATM   12  C   UNL     1      65.700   6.665   7.533  1.00  0.00     0.235 C 
HETATM   13  H   UNL     1      65.014   8.497   6.788  1.00  0.00     0.280 HD
ENDBRANCH   7   8
ENDBRANCH   1   7
BRANCH   3  14
HETATM   14  N   UNL     1      62.455  11.643   5.139  1.00  0.00    -0.399 N 
HETATM   15  H   UNL     1      62.804  12.504   4.814  1.00  0.00     0.156 HD
HETATM   16  H   UNL     1      61.859  11.617   5.921  1.00  0.00     0.156 HD
ENDBRANCH   3  14
TORSDOF 3
ENDMDL
MODEL 4
REMARK VINA RESULT:      -4.5      1.424      5.614
REMARK  3 active torsions:
REMARK  status: ('A' for Active; 'I' for Inactive)
REMARK    1  A    between atoms: N_1  and  C_2 
REMARK    2  A    between atoms: C_2  and  C_3 
REMARK    3  A    between atoms: C_5  and  N_6 
ROOT
HETATM    1  C   UNL     1      64.118   7.638   4.713  1.00  0.00    -0.030 A 
HETATM    2  C   UNL     1      65.272   8.266   5.211  1.00  0.00     0.037 A 
HETATM    3  C   UNL     1      65.951   7.778   6.335  1.00  0.00     0.026 A 
HETATM    4  C   UNL     1      64.260   6.053   6.555  1.00  0.00     0.003 A 
HETATM    5  C   UNL     1      63.611   6.535   5.414  1.00  0.00     0.009 A 
HETATM    6  C   UNL     1      65.446   6.644   6.988  1.00  0.00     0.029 A 
ENDROOT
BRANCH   1   7
HETATM    7  C   UNL     1      63.500   8.057   3.385  1.00  0.00     0.273 C 
BRANCH   7   8
HETATM    8  N   UNL     1      62.149   8.630   3.465  1.00  0.00    -0.067 N 
HETATM    9  C   UNL     1      61.406   8.602   2.205  1.00  0.00     0.235 C 
HETATM   10  C   UNL     1      61.727   9.893   1.479  1.00  0.00     0.029 C 
HETATM   11  C   UNL     1      61.951  10.894   2.596  1.00  0.00     0.029 C 
HETATM   12  C   UNL     1      62.175  10.052   3.855  1.00  0.00     0.235 C 
HETATM   13  H   UNL     1      61.692   8.038   4.158  1.00  0.00     0.280 HD
ENDBRANCH   7   8
ENDBRANCH   1   7
BRANCH   3  14
HETATM   14  N   UNL     1      67.241   8.231   6.628  1.00  0.00    -0.399 N 
HETATM   15  H   UNL     1      67.424   9.198   6.672  1.00  0.00     0.156 HD
HETATM   16  H   UNL     1      67.966   7.585   6.787  1.00  0.00     0.156 HD
ENDBRANCH   3  14
TORSDOF 3
ENDMDL
MODEL 5
REMARK VINA RESULT:      -4.5      1.435      2.543
REMARK  3 active torsions:
REMARK  status: ('A' for Active; 'I' for Inactive)
REMARK    1  A    between atoms: N_1  and  C_2 
REMARK    2  A    between atoms: C_2  and  C_3 
REMARK    3  A    between atoms: C_5  and  N_6 
ROOT
HETATM    1  C   UNL     1      62.876   8.118   3.534  1.00  0.00    -0.030 A 
HETATM    2  C   UNL     1      62.549   9.485   3.542  1.00  0.00     0.037 A 
HETATM    3  C   UNL     1      62.077  10.137   2.394  1.00  0.00     0.026 A 
HETATM    4  C   UNL     1      62.344   8.067   1.159  1.00  0.00     0.003 A 
HETATM    5  C   UNL     1      62.784   7.423   2.320  1.00  0.00     0.009 A 
HETATM    6  C   UNL     1      61.952   9.403   1.206  1.00  0.00     0.029 A 
ENDROOT
BRANCH   1   7
HETATM    7  C   UNL     1      63.199   7.376   4.824  1.00  0.00     0.273 C 
BRANCH   7   8
HETATM    8  N   UNL     1      64.507   6.704   4.861  1.00  0.00    -0.067 N 
HETATM    9  C   UNL     1      64.725   5.871   6.043  1.00  0.00     0.235 C 
HETATM   10  C   UNL     1      65.345   6.765   7.099  1.00  0.00     0.029 C 
HETATM   11  C   UNL     1      66.157   7.765   6.299  1.00  0.00     0.029 C 
HETATM   12  C   UNL     1      65.623   7.668   4.867  1.00  0.00     0.235 C 
HETATM   13  H   UNL     1      64.488   6.126   4.020  1.00  0.00     0.280 HD
ENDBRANCH   7   8
ENDBRANCH   1   7
BRANCH   3  14
HETATM   14  N   UNL     1      61.484  11.399   2.498  1.00  0.00    -0.399 N 
HETATM   15  H   UNL     1      61.212  11.743   3.380  1.00  0.00     0.156 HD
HETATM   16  H   UNL     1      61.338  11.942   1.691  1.00  0.00     0.156 HD
ENDBRANCH   3  14
TORSDOF 3
ENDMDL
MODEL 6
REMARK VINA RESULT:      -4.3      2.008      2.577
REMARK  3 active torsions:
REMARK  status: ('A' for Active; 'I' for Inactive)
REMARK    1  A    between atoms: N_1  and  C_2 
REMARK    2  A    between atoms: C_2  and  C_3 
REMARK    3  A    between atoms: C_5  and  N_6 
ROOT
HETATM    1  C   UNL     1      63.344   8.512   4.146  1.00  0.00    -0.030 A 
HETATM    2  C   UNL     1      63.717   9.413   5.157  1.00  0.00     0.037 A 
HETATM    3  C   UNL     1      63.161  10.697   5.243  1.00  0.00     0.026 A 
HETATM    4  C   UNL     1      61.901  10.241   3.221  1.00  0.00     0.003 A 
HETATM    5  C   UNL     1      62.442   8.952   3.167  1.00  0.00     0.009 A 
HETATM    6  C   UNL     1      62.225  11.092   4.276  1.00  0.00     0.029 A 
ENDROOT
BRANCH   1   7
HETATM    7  C   UNL     1      63.803   7.060   4.172  1.00  0.00     0.273 C 
BRANCH   7   8
HETATM    8  N   UNL     1      64.353   6.589   5.452  1.00  0.00    -0.067 N 
HETATM    9  C   UNL     1      65.677   5.976   5.352  1.00  0.00     0.235 C 
HETATM   10  C   UNL     1      65.455   4.498   5.099  1.00  0.00     0.029 C 
HETATM   11  C   UNL     1      64.160   4.193   5.825  1.00  0.00     0.029 C 
HETATM   12  C   UNL     1      63.504   5.555   6.071  1.00  0.00     0.235 C 
HETATM   13  H   UNL     1      64.401   7.445   6.006  1.00  0.00     0.280 HD
ENDBRANCH   7   8
ENDBRANCH   1   7
BRANCH   3  14
HETATM   14  N   UNL     1      63.319  11.453   6.408  1.00  0.00    -0.399 N 
HETATM   15  H   UNL     1      63.874  12.266   6.395  1.00  0.00     0.156 HD
HETATM   16  H   UNL     1      62.876  11.173   7.240  1.00  0.00     0.156 HD
ENDBRANCH   3  14
TORSDOF 3
ENDMDL
MODEL 7
REMARK VINA RESULT:      -4.2      3.135      4.602
REMARK  3 active torsions:
REMARK  status: ('A' for Active; 'I' for Inactive)
REMARK    1  A    between atoms: N_1  and  C_2 
REMARK    2  A    between atoms: C_2  and  C_3 
REMARK    3  A    between atoms: C_5  and  N_6 
ROOT
HETATM    1  C   UNL     1      62.613   8.939   3.067  1.00  0.00    -0.030 A 
HETATM    2  C   UNL     1      63.034   9.297   4.359  1.00  0.00     0.037 A 
HETATM    3  C   UNL     1      62.776  10.566   4.894  1.00  0.00     0.026 A 
HETATM    4  C   UNL     1      61.741  11.195   2.792  1.00  0.00     0.003 A 
HETATM    5  C   UNL     1      61.979   9.914   2.284  1.00  0.00     0.009 A 
HETATM    6  C   UNL     1      62.098  11.505   4.103  1.00  0.00     0.029 A 
ENDROOT
BRANCH   1   7
HETATM    7  C   UNL     1      62.725   7.504   2.568  1.00  0.00     0.273 C 
BRANCH   7   8
HETATM    8  N   UNL     1      62.015   6.495   3.369  1.00  0.00    -0.067 N 
HETATM    9  C   UNL     1      62.182   5.121   2.894  1.00  0.00     0.235 C 
HETATM   10  C   UNL     1      61.068   4.866   1.898  1.00  0.00     0.029 C 
HETATM   11  C   UNL     1      59.921   5.718   2.405  1.00  0.00     0.029 C 
HETATM   12  C   UNL     1      60.558   6.719   3.374  1.00  0.00     0.235 C 
HETATM   13  H   UNL     1      62.435   6.603   4.293  1.00  0.00     0.280 HD
ENDBRANCH   7   8
ENDBRANCH   1   7
BRANCH   3  14
HETATM   14  N   UNL     1      62.935  10.796   6.264  1.00  0.00    -0.399 N 
HETATM   15  H   UNL     1      62.525  10.182   6.916  1.00  0.00     0.156 HD
HETATM   16  H   UNL     1      63.455  11.570   6.576  1.00  0.00     0.156 HD
ENDBRANCH   3  14
TORSDOF 3
ENDMDL
MODEL 8
REMARK VINA RESULT:      -4.2      1.621      5.733
REMARK  3 active torsions:
REMARK  status: ('A' for Active; 'I' for Inactive)
REMARK    1  A    between atoms: N_1  and  C_2 
REMARK    2  A    between atoms: C_2  and  C_3 
REMARK    3  A    between atoms: C_5  and  N_6 
ROOT
HETATM    1  C   UNL     1      65.606   7.610   5.535  1.00  0.00    -0.030 A 
HETATM    2  C   UNL     1      65.284   6.802   6.639  1.00  0.00     0.037 A 
HETATM    3  C   UNL     1      66.148   5.797   7.095  1.00  0.00     0.026 A 
HETATM    4  C   UNL     1      67.656   6.325   5.271  1.00  0.00     0.003 A 
HETATM    5  C   UNL     1      66.797   7.344   4.846  1.00  0.00     0.009 A 
HETATM    6  C   UNL     1      67.355   5.586   6.413  1.00  0.00     0.029 A 
ENDROOT
BRANCH   1   7
HETATM    7  C   UNL     1      64.757   8.820   5.167  1.00  0.00     0.273 C 
BRANCH   7   8
HETATM    8  N   UNL     1      63.315   8.568   5.030  1.00  0.00    -0.067 N 
HETATM    9  C   UNL     1      62.967   7.606   3.984  1.00  0.00     0.235 C 
HETATM   10  C   UNL     1      62.776   8.401   2.707  1.00  0.00     0.029 C 
HETATM   11  C   UNL     1      62.247   9.739   3.185  1.00  0.00     0.029 C 
HETATM   12  C   UNL     1      62.571   9.791   4.681  1.00  0.00     0.235 C 
HETATM   13  H   UNL     1      63.062   8.199   5.947  1.00  0.00     0.280 HD
ENDBRANCH   7   8
ENDBRANCH   1   7
BRANCH   3  14
HETATM   14  N   UNL     1      65.949   5.218   8.352  1.00  0.00    -0.399 N 
HETATM   15  H   UNL     1      65.850   4.242   8.433  1.00  0.00     0.156 HD
HETATM   16  H   UNL     1      65.906   5.785   9.154  1.00  0.00     0.156 HD
ENDBRANCH   3  14
TORSDOF 3
ENDMDL
MODEL 9
REMARK VINA RESULT:      -4.1      2.556      3.504
REMARK  3 active torsions:
REMARK  status: ('A' for Active; 'I' for Inactive)
REMARK    1  A    between atoms: N_1  and  C_2 
REMARK    2  A    between atoms: C_2  and  C_3 
REMARK    3  A    between atoms: C_5  and  N_6 
ROOT
HETATM    1  C   UNL     1      63.137   8.776   3.947  1.00  0.00    -0.030 A 
HETATM    2  C   UNL     1      62.382   9.478   2.991  1.00  0.00     0.037 A 
HETATM    3  C   UNL     1      61.942  10.789   3.217  1.00  0.00     0.026 A 
HETATM    4  C   UNL     1      62.929  10.695   5.430  1.00  0.00     0.003 A 
HETATM    5  C   UNL     1      63.388   9.397   5.178  1.00  0.00     0.009 A 
HETATM    6  C   UNL     1      62.249  11.401   4.441  1.00  0.00     0.029 A 
ENDROOT
BRANCH   1   7
HETATM    7  C   UNL     1      63.774   7.432   3.619  1.00  0.00     0.273 C 
BRANCH   7   8
HETATM    8  N   UNL     1      63.086   6.252   4.163  1.00  0.00    -0.067 N 
HETATM    9  C   UNL     1      62.991   5.126   3.234  1.00  0.00     0.235 C 
HETATM   10  C   UNL     1      61.701   5.309   2.457  1.00  0.00     0.029 C 
HETATM   11  C   UNL     1      60.777   5.997   3.442  1.00  0.00     0.029 C 
HETATM   12  C   UNL     1      61.692   6.550   4.539  1.00  0.00     0.235 C 
HETATM   13  H   UNL     1      63.666   6.001   4.964  1.00  0.00     0.280 HD
ENDBRANCH   7   8
ENDBRANCH   1   7
BRANCH   3  14
HETATM   14  N   UNL     1      61.460  11.560   2.155  1.00  0.00    -0.399 N 
HETATM   15  H   UNL     1      61.658  11.296   1.227  1.00  0.00     0.156 HD
HETATM   16  H   UNL     1      60.925  12.365   2.334  1.00  0.00     0.156 HD
ENDBRANCH   3  14
TORSDOF 3
ENDMDL
