MODEL 1
REMARK VINA RESULT:      -5.5      0.000      0.000
REMARK  4 active torsions:
REMARK  status: ('A' for Active; 'I' for Inactive)
REMARK    1  A    between atoms: N_1  and  C_3 
REMARK    2  A    between atoms: C_3  and  C_7 
REMARK    3  A    between atoms: C_8  and  C_17 
REMARK    4  A    between atoms: N_11  and  C_17 
ROOT
HETATM    1  C   UNL     1      64.723   7.431   4.609  1.00  0.00    -0.033 A 
HETATM    2  C   UNL     1      62.725   8.888   3.221  1.00  0.00    -0.033 A 
HETATM    3  C   UNL     1      64.139   6.914   3.448  1.00  0.00     0.009 A 
HETATM    4  C   UNL     1      64.254   8.662   5.095  1.00  0.00     0.009 A 
HETATM    5  C   UNL     1      63.263   9.375   4.418  1.00  0.00     0.009 A 
HETATM    6  C   UNL     1      63.167   7.643   2.755  1.00  0.00     0.009 A 
ENDROOT
BRANCH   1   7
HETATM    7  C   UNL     1      65.839   6.687   5.336  1.00  0.00     0.273 C 
BRANCH   7   8
HETATM    8  N   UNL     1      65.638   6.552   6.797  1.00  0.00    -0.066 N 
HETATM    9  C   UNL     1      65.368   5.164   7.203  1.00  0.00     0.263 C 
HETATM   10  C   UNL     1      66.595   4.242   7.375  1.00  0.00     0.262 C 
HETATM   11  N   UNL     1      67.093   4.216   8.759  1.00  0.00    -0.073 N 
HETATM   12  C   UNL     1      67.773   5.458   9.147  1.00  0.00     0.236 C 
HETATM   13  C   UNL     1      67.989   3.075   8.955  1.00  0.00     0.269 C 
HETATM   14  H   UNL     1      66.275   4.124   9.361  1.00  0.00     0.279 HD
HETATM   15  C   UNL     1      66.950   6.744   9.000  1.00  0.00     0.055 C 
HETATM   16  C   UNL     1      66.755   7.170   7.534  1.00  0.00     0.237 C 
HETATM   17  H   UNL     1      64.795   7.068   7.048  1.00  0.00     0.280 HD
ENDBRANCH   7   8
ENDBRANCH   1   7
BRANCH   2  18
HETATM   18  C   UNL     1      61.700   9.680   2.451  1.00  0.00     0.268 C 
BRANCH  18  19
HETATM   19  N   UNL     1      61.666  11.073   2.881  1.00  0.00    -0.075 N 
HETATM   20  H   UNL     1      61.724  11.116   3.900  1.00  0.00     0.274 HD
HETATM   21  H   UNL     1      60.794  11.504   2.573  1.00  0.00     0.274 HD
HETATM   22  H   UNL     1      62.456  11.574   2.474  1.00  0.00     0.274 HD
ENDBRANCH  18  19
ENDBRANCH   2  18
TORSDOF 4
ENDMDL
MODEL 2
REMARK VINA RESULT:      -5.4      1.586      2.069
REMARK  4 active torsions:
REMARK  status: ('A' for Active; 'I' for Inactive)
REMARK    1  A    between atoms: N_1  and  C_3 
REMARK    2  A    between atoms: C_3  and  C_7 
REMARK    3  A    between atoms: C_8  and  C_17 
REMARK    4  A    between atoms: N_11  and  C_17 
ROOT
HETATM    1  C   UNL     1      63.045   8.138   5.003  1.00  0.00    -0.033 A 
HETATM    2  C   UNL     1      62.195   9.724   2.810  1.00  0.00    -0.033 A 
HETATM    3  C   UNL     1      62.801   7.558   3.753  1.00  0.00     0.009 A 
HETATM    4  C   UNL     1      62.806   9.514   5.152  1.00  0.00     0.009 A 
HETATM    5  C   UNL     1      62.378  10.293   4.076  1.00  0.00     0.009 A 
HETATM    6  C   UNL     1      62.400   8.345   2.669  1.00  0.00     0.009 A 
ENDROOT
BRANCH   1   7
HETATM    7  C   UNL     1      63.557   7.310   6.176  1.00  0.00     0.273 C 
BRANCH   7   8
HETATM    8  N   UNL     1      64.952   7.608   6.577  1.00  0.00    -0.066 N 
HETATM    9  C   UNL     1      65.486   6.623   7.530  1.00  0.00     0.263 C 
HETATM   10  C   UNL     1      66.031   5.307   6.934  1.00  0.00     0.262 C 
HETATM   11  N   UNL     1      67.477   5.363   6.667  1.00  0.00    -0.073 N 
HETATM   12  C   UNL     1      67.816   6.210   5.517  1.00  0.00     0.236 C 
HETATM   13  C   UNL     1      68.009   4.014   6.467  1.00  0.00     0.269 C 
HETATM   14  H   UNL     1      67.908   5.789   7.488  1.00  0.00     0.279 HD
HETATM   15  C   UNL     1      67.325   7.662   5.589  1.00  0.00     0.055 C 
HETATM   16  C   UNL     1      65.805   7.795   5.390  1.00  0.00     0.237 C 
HETATM   17  H   UNL     1      64.952   8.492   7.085  1.00  0.00     0.280 HD
ENDBRANCH   7   8
ENDBRANCH   1   7
BRANCH   2  18
HETATM   18  C   UNL     1      61.793  10.568   1.628  1.00  0.00     0.268 C 
BRANCH  18  19
HETATM   19  N   UNL     1      61.848  11.992   1.944  1.00  0.00    -0.075 N 
HETATM   20  H   UNL     1      61.226  12.504   1.317  1.00  0.00     0.274 HD
HETATM   21  H   UNL     1      62.802  12.330   1.826  1.00  0.00     0.274 HD
HETATM   22  H   UNL     1      61.552  12.137   2.910  1.00  0.00     0.274 HD
ENDBRANCH  18  19
ENDBRANCH   2  18
TORSDOF 4
ENDMDL
MODEL 3
REMARK VINA RESULT:      -4.7      2.052      7.158
REMARK  4 active torsions:
REMARK  status: ('A' for Active; 'I' for Inactive)
REMARK    1  A    between atoms: N_1  and  C_3 
REMARK    2  A    between atoms: C_3  and  C_7 
REMARK    3  A    between atoms: C_8  and  C_17 
REMARK    4  A    between atoms: N_11  and  C_17 
ROOT
HETATM    1  C   UNL     1      64.146   7.976   5.520  1.00  0.00    -0.033 A 
HETATM    2  C   UNL     1      66.331   6.762   6.860  1.00  0.00    -0.033 A 
HETATM    3  C   UNL     1      63.964   6.812   6.275  1.00  0.00     0.009 A 
HETATM    4  C   UNL     1      65.446   8.492   5.401  1.00  0.00     0.009 A 
HETATM    5  C   UNL     1      66.524   7.889   6.053  1.00  0.00     0.009 A 
HETATM    6  C   UNL     1      65.040   6.226   6.950  1.00  0.00     0.009 A 
ENDROOT
BRANCH   1   7
HETATM    7  C   UNL     1      62.972   8.673   4.840  1.00  0.00     0.273 C 
BRANCH   7   8
HETATM    8  N   UNL     1      63.077   8.756   3.365  1.00  0.00    -0.066 N 
HETATM    9  C   UNL     1      63.089   7.430   2.726  1.00  0.00     0.263 C 
HETATM   10  C   UNL     1      61.719   6.755   2.503  1.00  0.00     0.262 C 
HETATM   11  N   UNL     1      61.157   7.042   1.174  1.00  0.00    -0.073 N 
HETATM   12  C   UNL     1      60.677   8.423   1.039  1.00  0.00     0.236 C 
HETATM   13  C   UNL     1      60.074   6.106   0.868  1.00  0.00     0.269 C 
HETATM   14  H   UNL     1      61.918   6.925   0.505  1.00  0.00     0.279 HD
HETATM   15  C   UNL     1      61.710   9.520   1.325  1.00  0.00     0.055 C 
HETATM   16  C   UNL     1      62.045   9.657   2.821  1.00  0.00     0.237 C 
HETATM   17  H   UNL     1      63.982   9.167   3.135  1.00  0.00     0.280 HD
ENDBRANCH   7   8
ENDBRANCH   1   7
BRANCH   2  18
HETATM   18  C   UNL     1      67.478   6.142   7.616  1.00  0.00     0.268 C 
BRANCH  18  19
HETATM   19  N   UNL     1      67.700   6.809   8.894  1.00  0.00    -0.075 N 
HETATM   20  H   UNL     1      67.347   6.221   9.651  1.00  0.00     0.274 HD
HETATM   21  H   UNL     1      67.209   7.702   8.902  1.00  0.00     0.274 HD
HETATM   22  H   UNL     1      68.699   6.968   9.025  1.00  0.00     0.274 HD
ENDBRANCH  18  19
ENDBRANCH   2  18
TORSDOF 4
ENDMDL
MODEL 4
REMARK VINA RESULT:      -4.7      2.038      3.172
REMARK  4 active torsions:
REMARK  status: ('A' for Active; 'I' for Inactive)
REMARK    1  A    between atoms: N_1  and  C_3 
REMARK    2  A    between atoms: C_3  and  C_7 
REMARK    3  A    between atoms: C_8  and  C_17 
REMARK    4  A    between atoms: N_11  and  C_17 
ROOT
HETATM    1  C   UNL     1      62.695   8.088   4.078  1.00  0.00    -0.033 A 
HETATM    2  C   UNL     1      60.918   8.235   1.872  1.00  0.00    -0.033 A 
HETATM    3  C   UNL     1      61.632   7.187   3.954  1.00  0.00     0.009 A 
HETATM    4  C   UNL     1      62.823   9.097   3.110  1.00  0.00     0.009 A 
HETATM    5  C   UNL     1      61.942   9.177   2.029  1.00  0.00     0.009 A 
HETATM    6  C   UNL     1      60.769   7.250   2.856  1.00  0.00     0.009 A 
ENDROOT
BRANCH   1   7
HETATM    7  C   UNL     1      63.693   7.987   5.226  1.00  0.00     0.273 C 
BRANCH   7   8
HETATM    8  N   UNL     1      65.113   7.960   4.807  1.00  0.00    -0.066 N 
HETATM    9  C   UNL     1      66.035   8.219   5.924  1.00  0.00     0.263 C 
HETATM   10  C   UNL     1      66.372   7.021   6.836  1.00  0.00     0.262 C 
HETATM   11  N   UNL     1      67.589   6.311   6.411  1.00  0.00    -0.073 N 
HETATM   12  C   UNL     1      67.397   5.527   5.184  1.00  0.00     0.236 C 
HETATM   13  C   UNL     1      68.073   5.443   7.486  1.00  0.00     0.269 C 
HETATM   14  H   UNL     1      68.285   7.026   6.201  1.00  0.00     0.279 HD
HETATM   15  C   UNL     1      66.894   6.308   3.964  1.00  0.00     0.055 C 
HETATM   16  C   UNL     1      65.414   6.716   4.076  1.00  0.00     0.237 C 
HETATM   17  H   UNL     1      65.264   8.731   4.156  1.00  0.00     0.280 HD
ENDBRANCH   7   8
ENDBRANCH   1   7
BRANCH   2  18
HETATM   18  C   UNL     1      60.001   8.277   0.676  1.00  0.00     0.268 C 
BRANCH  18  19
HETATM   19  N   UNL     1      58.602   8.148   1.070  1.00  0.00    -0.075 N 
HETATM   20  H   UNL     1      58.291   9.015   1.509  1.00  0.00     0.274 HD
HETATM   21  H   UNL     1      58.504   7.379   1.732  1.00  0.00     0.274 HD
HETATM   22  H   UNL     1      58.033   7.962   0.244  1.00  0.00     0.274 HD
ENDBRANCH  18  19
ENDBRANCH   2  18
TORSDOF 4
ENDMDL
MODEL 5
REMARK VINA RESULT:      -4.3      1.689      7.239
REMARK  4 active torsions:
REMARK  status: ('A' for Active; 'I' for Inactive)
REMARK    1  A    between atoms: N_1  and  C_3 
REMARK    2  A    between atoms: C_3  and  C_7 
REMARK    3  A    between atoms: C_8  and  C_17 
REMARK    4  A    between atoms: N_11  and  C_17 
ROOT
HETATM    1  C   UNL     1      64.802   6.470   4.440  1.00  0.00    -0.033 A 
HETATM    2  C   UNL     1      65.702   6.394   7.129  1.00  0.00    -0.033 A 
HETATM    3  C   UNL     1      64.376   5.459   5.309  1.00  0.00     0.009 A 
HETATM    4  C   UNL     1      65.726   7.410   4.922  1.00  0.00     0.009 A 
HETATM    5  C   UNL     1      66.178   7.368   6.243  1.00  0.00     0.009 A 
HETATM    6  C   UNL     1      64.807   5.435   6.639  1.00  0.00     0.009 A 
ENDROOT
BRANCH   1   7
HETATM    7  C   UNL     1      64.284   6.559   3.009  1.00  0.00     0.273 C 
BRANCH   7   8
HETATM    8  N   UNL     1      62.842   6.877   2.895  1.00  0.00    -0.066 N 
HETATM    9  C   UNL     1      62.444   8.002   3.756  1.00  0.00     0.263 C 
HETATM   10  C   UNL     1      62.710   9.421   3.209  1.00  0.00     0.262 C 
HETATM   11  N   UNL     1      61.554   9.975   2.487  1.00  0.00    -0.073 N 
HETATM   12  C   UNL     1      61.335   9.340   1.181  1.00  0.00     0.236 C 
HETATM   13  C   UNL     1      61.706  11.422   2.319  1.00  0.00     0.269 C 
HETATM   14  H   UNL     1      60.732   9.775   3.057  1.00  0.00     0.279 HD
HETATM   15  C   UNL     1      61.152   7.818   1.201  1.00  0.00     0.055 C 
HETATM   16  C   UNL     1      62.460   7.057   1.483  1.00  0.00     0.237 C 
HETATM   17  H   UNL     1      62.314   6.078   3.246  1.00  0.00     0.280 HD
ENDBRANCH   7   8
ENDBRANCH   1   7
BRANCH   2  18
HETATM   18  C   UNL     1      66.137   6.377   8.572  1.00  0.00     0.268 C 
BRANCH  18  19
HETATM   19  N   UNL     1      66.611   5.057   8.973  1.00  0.00    -0.075 N 
HETATM   20  H   UNL     1      67.391   4.780   8.376  1.00  0.00     0.274 HD
HETATM   21  H   UNL     1      65.854   4.381   8.878  1.00  0.00     0.274 HD
HETATM   22  H   UNL     1      66.921   5.088   9.944  1.00  0.00     0.274 HD
ENDBRANCH  18  19
ENDBRANCH   2  18
TORSDOF 4
ENDMDL
MODEL 6
REMARK VINA RESULT:      -4.3      3.119      7.680
REMARK  4 active torsions:
REMARK  status: ('A' for Active; 'I' for Inactive)
REMARK    1  A    between atoms: N_1  and  C_3 
REMARK    2  A    between atoms: C_3  and  C_7 
REMARK    3  A    between atoms: C_8  and  C_17 
REMARK    4  A    between atoms: N_11  and  C_17 
ROOT
HETATM    1  C   UNL     1      63.039   8.285   3.468  1.00  0.00    -0.033 A 
HETATM    2  C   UNL     1      65.376   7.571   4.907  1.00  0.00    -0.033 A 
HETATM    3  C   UNL     1      63.798   7.172   3.091  1.00  0.00     0.009 A 
HETATM    4  C   UNL     1      63.497   9.066   4.541  1.00  0.00     0.009 A 
HETATM    5  C   UNL     1      64.653   8.722   5.244  1.00  0.00     0.009 A 
HETATM    6  C   UNL     1      64.940   6.811   3.814  1.00  0.00     0.009 A 
ENDROOT
BRANCH   1   7
HETATM    7  C   UNL     1      61.749   8.650   2.741  1.00  0.00     0.273 C 
BRANCH   7   8
HETATM    8  N   UNL     1      61.059   7.506   2.101  1.00  0.00    -0.066 N 
HETATM    9  C   UNL     1      60.333   6.672   3.072  1.00  0.00     0.263 C 
HETATM   10  C   UNL     1      58.934   7.164   3.499  1.00  0.00     0.262 C 
HETATM   11  N   UNL     1      57.857   6.590   2.676  1.00  0.00    -0.073 N 
HETATM   12  C   UNL     1      57.813   7.146   1.318  1.00  0.00     0.236 C 
HETATM   13  C   UNL     1      56.562   6.776   3.334  1.00  0.00     0.269 C 
HETATM   14  H   UNL     1      58.061   5.595   2.584  1.00  0.00     0.279 HD
HETATM   15  C   UNL     1      59.105   7.018   0.502  1.00  0.00     0.055 C 
HETATM   16  C   UNL     1      60.218   7.967   0.982  1.00  0.00     0.237 C 
HETATM   17  H   UNL     1      61.769   6.891   1.705  1.00  0.00     0.280 HD
ENDBRANCH   7   8
ENDBRANCH   1   7
BRANCH   2  18
HETATM   18  C   UNL     1      66.591   7.158   5.698  1.00  0.00     0.268 C 
BRANCH  18  19
HETATM   19  N   UNL     1      67.084   8.249   6.532  1.00  0.00    -0.075 N 
HETATM   20  H   UNL     1      67.219   7.914   7.486  1.00  0.00     0.274 HD
HETATM   21  H   UNL     1      66.405   9.010   6.533  1.00  0.00     0.274 HD
HETATM   22  H   UNL     1      67.972   8.586   6.160  1.00  0.00     0.274 HD
ENDBRANCH  18  19
ENDBRANCH   2  18
TORSDOF 4
ENDMDL
MODEL 7
REMARK VINA RESULT:      -4.3      8.650      9.599
REMARK  4 active torsions:
REMARK  status: ('A' for Active; 'I' for Inactive)
REMARK    1  A    between atoms: N_1  and  C_3 
REMARK    2  A    between atoms: C_3  and  C_7 
REMARK    3  A    between atoms: C_8  and  C_17 
REMARK    4  A    between atoms: N_11  and  C_17 
ROOT
HETATM    1  C   UNL     1      58.857   3.334   9.253  1.00  0.00    -0.033 A 
HETATM    2  C   UNL     1      60.199   5.081   7.466  1.00  0.00    -0.033 A 
HETATM    3  C   UNL     1      58.622   4.712   9.289  1.00  0.00     0.009 A 
HETATM    4  C   UNL     1      59.814   2.849   8.347  1.00  0.00     0.009 A 
HETATM    5  C   UNL     1      60.483   3.710   7.473  1.00  0.00     0.009 A 
HETATM    6  C   UNL     1      59.270   5.569   8.394  1.00  0.00     0.009 A 
ENDROOT
BRANCH   1   7
HETATM    7  C   UNL     1      58.103   2.374  10.167  1.00  0.00     0.273 C 
BRANCH   7   8
HETATM    8  N   UNL     1      58.179   2.709  11.608  1.00  0.00    -0.066 N 
HETATM    9  C   UNL     1      56.854   2.748  12.247  1.00  0.00     0.263 C 
HETATM   10  C   UNL     1      56.256   1.394  12.684  1.00  0.00     0.262 C 
HETATM   11  N   UNL     1      56.572   1.060  14.082  1.00  0.00    -0.073 N 
HETATM   12  C   UNL     1      57.978   0.683  14.278  1.00  0.00     0.236 C 
HETATM   13  C   UNL     1      55.697  -0.012  14.559  1.00  0.00     0.269 C 
HETATM   14  H   UNL     1      56.413   1.908  14.626  1.00  0.00     0.279 HD
HETATM   15  C   UNL     1      59.016   1.718  13.828  1.00  0.00     0.055 C 
HETATM   16  C   UNL     1      59.136   1.825  12.297  1.00  0.00     0.237 C 
HETATM   17  H   UNL     1      58.539   3.660  11.692  1.00  0.00     0.280 HD
ENDBRANCH   7   8
ENDBRANCH   1   7
BRANCH   2  18
HETATM   18  C   UNL     1      60.870   6.008   6.486  1.00  0.00     0.268 C 
BRANCH  18  19
HETATM   19  N   UNL     1      62.296   5.723   6.370  1.00  0.00    -0.075 N 
HETATM   20  H   UNL     1      62.788   6.565   6.067  1.00  0.00     0.274 HD
HETATM   21  H   UNL     1      62.441   4.981   5.685  1.00  0.00     0.274 HD
HETATM   22  H   UNL     1      62.658   5.425   7.276  1.00  0.00     0.274 HD
ENDBRANCH  18  19
ENDBRANCH   2  18
TORSDOF 4
ENDMDL
MODEL 8
REMARK VINA RESULT:      -4.2      9.357      9.959
REMARK  4 active torsions:
REMARK  status: ('A' for Active; 'I' for Inactive)
REMARK    1  A    between atoms: N_1  and  C_3 
REMARK    2  A    between atoms: C_3  and  C_7 
REMARK    3  A    between atoms: C_8  and  C_17 
REMARK    4  A    between atoms: N_11  and  C_17 
ROOT
HETATM    1  C   UNL     1      57.994   3.421   9.349  1.00  0.00    -0.033 A 
HETATM    2  C   UNL     1      57.521   5.548   7.533  1.00  0.00    -0.033 A 
HETATM    3  C   UNL     1      56.891   3.396   8.490  1.00  0.00     0.009 A 
HETATM    4  C   UNL     1      58.826   4.552   9.324  1.00  0.00     0.009 A 
HETATM    5  C   UNL     1      58.589   5.604   8.438  1.00  0.00     0.009 A 
HETATM    6  C   UNL     1      56.670   4.436   7.582  1.00  0.00     0.009 A 
ENDROOT
BRANCH   1   7
HETATM    7  C   UNL     1      58.295   2.261  10.292  1.00  0.00     0.273 C 
BRANCH   7   8
HETATM    8  N   UNL     1      58.284   2.616  11.729  1.00  0.00    -0.066 N 
HETATM    9  C   UNL     1      56.923   2.679  12.284  1.00  0.00     0.263 C 
HETATM   10  C   UNL     1      56.282   1.338  12.701  1.00  0.00     0.262 C 
HETATM   11  N   UNL     1      56.507   1.022  14.121  1.00  0.00    -0.073 N 
HETATM   12  C   UNL     1      57.893   0.633  14.410  1.00  0.00     0.236 C 
HETATM   13  C   UNL     1      55.591  -0.034  14.557  1.00  0.00     0.269 C 
HETATM   14  H   UNL     1      56.323   1.879  14.642  1.00  0.00     0.279 HD
HETATM   15  C   UNL     1      58.969   1.649  14.011  1.00  0.00     0.055 C 
HETATM   16  C   UNL     1      59.186   1.732  12.489  1.00  0.00     0.237 C 
HETATM   17  H   UNL     1      58.649   3.564  11.822  1.00  0.00     0.280 HD
ENDBRANCH   7   8
ENDBRANCH   1   7
BRANCH   2  18
HETATM   18  C   UNL     1      57.294   6.650   6.531  1.00  0.00     0.268 C 
BRANCH  18  19
HETATM   19  N   UNL     1      56.520   7.746   7.107  1.00  0.00    -0.075 N 
HETATM   20  H   UNL     1      56.301   8.426   6.379  1.00  0.00     0.274 HD
HETATM   21  H   UNL     1      57.066   8.198   7.840  1.00  0.00     0.274 HD
HETATM   22  H   UNL     1      55.654   7.379   7.502  1.00  0.00     0.274 HD
ENDBRANCH  18  19
ENDBRANCH   2  18
TORSDOF 4
ENDMDL
MODEL 9
REMARK VINA RESULT:      -4.2      2.137      7.218
REMARK  4 active torsions:
REMARK  status: ('A' for Active; 'I' for Inactive)
REMARK    1  A    between atoms: N_1  and  C_3 
REMARK    2  A    between atoms: C_3  and  C_7 
REMARK    3  A    between atoms: C_8  and  C_17 
REMARK    4  A    between atoms: N_11  and  C_17 
ROOT
HETATM    1  C   UNL     1      65.059   7.054   4.718  1.00  0.00    -0.033 A 
HETATM    2  C   UNL     1      66.656   6.040   6.832  1.00  0.00    -0.033 A 
HETATM    3  C   UNL     1      65.441   5.708   4.744  1.00  0.00     0.009 A 
HETATM    4  C   UNL     1      65.532   7.895   5.738  1.00  0.00     0.009 A 
HETATM    5  C   UNL     1      66.327   7.400   6.773  1.00  0.00     0.009 A 
HETATM    6  C   UNL     1      66.213   5.207   5.797  1.00  0.00     0.009 A 
ENDROOT
BRANCH   1   7
HETATM    7  C   UNL     1      64.154   7.602   3.621  1.00  0.00     0.273 C 
BRANCH   7   8
HETATM    8  N   UNL     1      62.788   7.957   4.069  1.00  0.00    -0.066 N 
HETATM    9  C   UNL     1      62.172   8.999   3.232  1.00  0.00     0.263 C 
HETATM   10  C   UNL     1      61.523   8.532   1.912  1.00  0.00     0.262 C 
HETATM   11  N   UNL     1      60.087   8.246   2.058  1.00  0.00    -0.073 N 
HETATM   12  C   UNL     1      59.821   7.013   2.810  1.00  0.00     0.236 C 
HETATM   13  C   UNL     1      59.446   8.177   0.743  1.00  0.00     0.269 C 
HETATM   14  H   UNL     1      59.691   9.015   2.599  1.00  0.00     0.279 HD
HETATM   15  C   UNL     1      60.429   6.944   4.216  1.00  0.00     0.055 C 
HETATM   16  C   UNL     1      61.955   6.748   4.205  1.00  0.00     0.237 C 
HETATM   17  H   UNL     1      62.859   8.374   4.998  1.00  0.00     0.280 HD
ENDBRANCH   7   8
ENDBRANCH   1   7
BRANCH   2  18
HETATM   18  C   UNL     1      67.461   5.484   7.978  1.00  0.00     0.268 C 
BRANCH  18  19
HETATM   19  N   UNL     1      67.949   6.545   8.854  1.00  0.00    -0.075 N 
HETATM   20  H   UNL     1      68.599   6.151   9.535  1.00  0.00     0.274 HD
HETATM   21  H   UNL     1      67.162   6.972   9.342  1.00  0.00     0.274 HD
HETATM   22  H   UNL     1      68.428   7.252   8.296  1.00  0.00     0.274 HD
ENDBRANCH  18  19
ENDBRANCH   2  18
TORSDOF 4
ENDMDL
