MODEL 1
REMARK VINA RESULT:      -5.1      0.000      0.000
REMARK  3 active torsions:
REMARK  status: ('A' for Active; 'I' for Inactive)
REMARK    1  A    between atoms: C_1  and  C_3 
REMARK    2  A    between atoms: N_2  and  C_5 
REMARK    3  A    between atoms: C_5  and  C_9 
ROOT
HETATM    1  C   UNL     1      62.465   9.304   3.118  1.00  0.00     0.040 A 
HETATM    2  C   UNL     1      62.874   7.990   2.868  1.00  0.00     0.019 A 
HETATM    3  C   UNL     1      62.534   9.816   4.417  1.00  0.00     0.019 A 
HETATM    4  C   UNL     1      63.587   7.762   5.177  1.00  0.00    -0.033 A 
HETATM    5  C   UNL     1      63.442   7.228   3.887  1.00  0.00     0.010 A 
HETATM    6  C   UNL     1      63.067   9.036   5.446  1.00  0.00     0.010 A 
ENDROOT
BRANCH   4   7
HETATM    7  C   UNL     1      64.380   7.021   6.235  1.00  0.00     0.273 C 
BRANCH   7   8
HETATM    8  N   UNL     1      65.642   7.601   6.691  1.00  0.00    -0.067 N 
HETATM    9  C   UNL     1      66.597   7.954   5.645  1.00  0.00     0.235 C 
HETATM   10  C   UNL     1      67.575   6.795   5.580  1.00  0.00     0.029 C 
HETATM   11  C   UNL     1      67.641   6.299   7.013  1.00  0.00     0.029 C 
HETATM   12  C   UNL     1      66.368   6.807   7.682  1.00  0.00     0.235 C 
HETATM   13  H   UNL     1      65.291   8.456   7.119  1.00  0.00     0.280 HD
ENDBRANCH   7   8
ENDBRANCH   4   7
BRANCH   1  14
HETATM   14  C   UNL     1      62.000  10.211   2.037  1.00  0.00     0.209 C 
HETATM   15  O   UNL     1      62.081  11.416   2.090  1.00  0.00    -0.644 OA
HETATM   16  O   UNL     1      61.573   9.540   0.936  1.00  0.00    -0.644 OA
ENDBRANCH   1  14
TORSDOF 3
ENDMDL
MODEL 2
REMARK VINA RESULT:      -5.1      3.517      5.892
REMARK  3 active torsions:
REMARK  status: ('A' for Active; 'I' for Inactive)
REMARK    1  A    between atoms: C_1  and  C_3 
REMARK    2  A    between atoms: N_2  and  C_5 
REMARK    3  A    between atoms: C_5  and  C_9 
ROOT
HETATM    1  C   UNL     1      65.083   8.086   5.001  1.00  0.00     0.040 A 
HETATM    2  C   UNL     1      64.628   7.149   4.066  1.00  0.00     0.019 A 
HETATM    3  C   UNL     1      64.305   9.212   5.288  1.00  0.00     0.019 A 
HETATM    4  C   UNL     1      62.542   8.371   3.842  1.00  0.00    -0.033 A 
HETATM    5  C   UNL     1      63.362   7.284   3.500  1.00  0.00     0.010 A 
HETATM    6  C   UNL     1      63.053   9.365   4.689  1.00  0.00     0.010 A 
ENDROOT
BRANCH   4   7
HETATM    7  C   UNL     1      61.096   8.421   3.390  1.00  0.00     0.273 C 
BRANCH   7   8
HETATM    8  N   UNL     1      60.804   8.927   2.051  1.00  0.00    -0.067 N 
HETATM    9  C   UNL     1      60.248   7.960   1.109  1.00  0.00     0.235 C 
HETATM   10  C   UNL     1      61.423   7.482   0.276  1.00  0.00     0.029 C 
HETATM   11  C   UNL     1      62.328   8.698   0.202  1.00  0.00     0.029 C 
HETATM   12  C   UNL     1      61.924   9.584   1.376  1.00  0.00     0.235 C 
HETATM   13  H   UNL     1      60.087   9.613   2.282  1.00  0.00     0.280 HD
ENDBRANCH   7   8
ENDBRANCH   4   7
BRANCH   1  14
HETATM   14  C   UNL     1      66.352   7.908   5.751  1.00  0.00     0.209 C 
HETATM   15  O   UNL     1      67.177   7.065   5.484  1.00  0.00    -0.644 OA
HETATM   16  O   UNL     1      66.540   8.860   6.701  1.00  0.00    -0.644 OA
ENDBRANCH   1  14
TORSDOF 3
ENDMDL
MODEL 3
REMARK VINA RESULT:      -5.1      3.969      5.969
REMARK  3 active torsions:
REMARK  status: ('A' for Active; 'I' for Inactive)
REMARK    1  A    between atoms: C_1  and  C_3 
REMARK    2  A    between atoms: N_2  and  C_5 
REMARK    3  A    between atoms: C_5  and  C_9 
ROOT
HETATM    1  C   UNL     1      62.486  10.003   3.632  1.00  0.00     0.040 A 
HETATM    2  C   UNL     1      62.918   8.672   3.654  1.00  0.00     0.019 A 
HETATM    3  C   UNL     1      61.987  10.550   2.445  1.00  0.00     0.019 A 
HETATM    4  C   UNL     1      62.188   8.386   1.356  1.00  0.00    -0.033 A 
HETATM    5  C   UNL     1      62.760   7.866   2.528  1.00  0.00     0.010 A 
HETATM    6  C   UNL     1      61.866   9.750   1.307  1.00  0.00     0.010 A 
ENDROOT
BRANCH   4   7
HETATM    7  C   UNL     1      61.828   7.473   0.201  1.00  0.00     0.273 C 
BRANCH   7   8
HETATM    8  N   UNL     1      60.524   6.814   0.216  1.00  0.00    -0.067 N 
HETATM    9  C   UNL     1      59.382   7.663   0.540  1.00  0.00     0.235 C 
HETATM   10  C   UNL     1      59.109   7.432   2.015  1.00  0.00     0.029 C 
HETATM   11  C   UNL     1      59.500   5.981   2.229  1.00  0.00     0.029 C 
HETATM   12  C   UNL     1      60.435   5.633   1.075  1.00  0.00     0.235 C 
HETATM   13  H   UNL     1      60.463   6.537  -0.763  1.00  0.00     0.280 HD
ENDBRANCH   7   8
ENDBRANCH   4   7
BRANCH   1  14
HETATM   14  C   UNL     1      62.486  10.858   4.846  1.00  0.00     0.209 C 
HETATM   15  O   UNL     1      63.006  10.541   5.890  1.00  0.00    -0.644 OA
HETATM   16  O   UNL     1      61.933  12.079   4.629  1.00  0.00    -0.644 OA
ENDBRANCH   1  14
TORSDOF 3
ENDMDL
MODEL 4
REMARK VINA RESULT:      -4.9      1.323      2.150
REMARK  3 active torsions:
REMARK  status: ('A' for Active; 'I' for Inactive)
REMARK    1  A    between atoms: C_1  and  C_3 
REMARK    2  A    between atoms: N_2  and  C_5 
REMARK    3  A    between atoms: C_5  and  C_9 
ROOT
HETATM    1  C   UNL     1      62.801   9.647   3.859  1.00  0.00     0.040 A 
HETATM    2  C   UNL     1      63.485   9.561   5.078  1.00  0.00     0.019 A 
HETATM    3  C   UNL     1      62.826   8.566   2.973  1.00  0.00     0.019 A 
HETATM    4  C   UNL     1      64.067   7.253   4.600  1.00  0.00    -0.033 A 
HETATM    5  C   UNL     1      64.103   8.369   5.450  1.00  0.00     0.010 A 
HETATM    6  C   UNL     1      63.481   7.385   3.333  1.00  0.00     0.010 A 
ENDROOT
BRANCH   4   7
HETATM    7  C   UNL     1      64.558   5.901   5.077  1.00  0.00     0.273 C 
BRANCH   7   8
HETATM    8  N   UNL     1      65.991   5.620   5.013  1.00  0.00    -0.067 N 
HETATM    9  C   UNL     1      66.684   5.541   6.295  1.00  0.00     0.235 C 
HETATM   10  C   UNL     1      67.330   6.900   6.493  1.00  0.00     0.029 C 
HETATM   11  C   UNL     1      67.669   7.345   5.082  1.00  0.00     0.029 C 
HETATM   12  C   UNL     1      66.765   6.527   4.165  1.00  0.00     0.235 C 
HETATM   13  H   UNL     1      65.963   4.692   4.595  1.00  0.00     0.280 HD
ENDBRANCH   7   8
ENDBRANCH   4   7
BRANCH   1  14
HETATM   14  C   UNL     1      61.995  10.836   3.484  1.00  0.00     0.209 C 
HETATM   15  O   UNL     1      61.709  11.724   4.253  1.00  0.00    -0.644 OA
HETATM   16  O   UNL     1      61.702  10.875   2.158  1.00  0.00    -0.644 OA
ENDBRANCH   1  14
TORSDOF 3
ENDMDL
MODEL 5
REMARK VINA RESULT:      -4.9      1.296      1.838
REMARK  3 active torsions:
REMARK  status: ('A' for Active; 'I' for Inactive)
REMARK    1  A    between atoms: C_1  and  C_3 
REMARK    2  A    between atoms: N_2  and  C_5 
REMARK    3  A    between atoms: C_5  and  C_9 
ROOT
HETATM    1  C   UNL     1      62.994   9.050   3.873  1.00  0.00     0.040 A 
HETATM    2  C   UNL     1      63.243   7.809   3.275  1.00  0.00     0.019 A 
HETATM    3  C   UNL     1      63.771   9.465   4.958  1.00  0.00     0.019 A 
HETATM    4  C   UNL     1      65.158   7.481   4.731  1.00  0.00    -0.033 A 
HETATM    5  C   UNL     1      64.324   7.036   3.693  1.00  0.00     0.010 A 
HETATM    6  C   UNL     1      64.830   8.668   5.401  1.00  0.00     0.010 A 
ENDROOT
BRANCH   4   7
HETATM    7  C   UNL     1      66.444   6.750   5.056  1.00  0.00     0.273 C 
BRANCH   7   8
HETATM    8  N   UNL     1      66.414   5.716   6.089  1.00  0.00    -0.067 N 
HETATM    9  C   UNL     1      65.508   5.957   7.208  1.00  0.00     0.235 C 
HETATM   10  C   UNL     1      66.375   6.526   8.317  1.00  0.00     0.029 C 
HETATM   11  C   UNL     1      67.716   5.845   8.110  1.00  0.00     0.029 C 
HETATM   12  C   UNL     1      67.716   5.370   6.661  1.00  0.00     0.235 C 
HETATM   13  H   UNL     1      66.058   4.936   5.538  1.00  0.00     0.280 HD
ENDBRANCH   7   8
ENDBRANCH   4   7
BRANCH   1  14
HETATM   14  C   UNL     1      61.956   9.983   3.364  1.00  0.00     0.209 C 
HETATM   15  O   UNL     1      61.503  10.900   4.009  1.00  0.00    -0.644 OA
HETATM   16  O   UNL     1      61.645   9.763   2.060  1.00  0.00    -0.644 OA
ENDBRANCH   1  14
TORSDOF 3
ENDMDL
MODEL 6
REMARK VINA RESULT:      -4.7      5.289      6.941
REMARK  3 active torsions:
REMARK  status: ('A' for Active; 'I' for Inactive)
REMARK    1  A    between atoms: C_1  and  C_3 
REMARK    2  A    between atoms: N_2  and  C_5 
REMARK    3  A    between atoms: C_5  and  C_9 
ROOT
HETATM    1  C   UNL     1      59.099   6.040   7.427  1.00  0.00     0.040 A 
HETATM    2  C   UNL     1      58.172   6.230   6.395  1.00  0.00     0.019 A 
HETATM    3  C   UNL     1      60.457   5.905   7.121  1.00  0.00     0.019 A 
HETATM    4  C   UNL     1      59.978   6.330   4.776  1.00  0.00    -0.033 A 
HETATM    5  C   UNL     1      58.609   6.386   5.082  1.00  0.00     0.010 A 
HETATM    6  C   UNL     1      60.888   6.023   5.798  1.00  0.00     0.010 A 
ENDROOT
BRANCH   4   7
HETATM    7  C   UNL     1      60.477   6.696   3.393  1.00  0.00     0.273 C 
BRANCH   7   8
HETATM    8  N   UNL     1      60.294   8.069   2.928  1.00  0.00    -0.067 N 
HETATM    9  C   UNL     1      60.251   8.254   1.481  1.00  0.00     0.235 C 
HETATM   10  C   UNL     1      61.648   8.693   1.085  1.00  0.00     0.029 C 
HETATM   11  C   UNL     1      62.128   9.490   2.285  1.00  0.00     0.029 C 
HETATM   12  C   UNL     1      61.258   9.037   3.453  1.00  0.00     0.235 C 
HETATM   13  H   UNL     1      59.369   8.256   3.313  1.00  0.00     0.280 HD
ENDBRANCH   7   8
ENDBRANCH   4   7
BRANCH   1  14
HETATM   14  C   UNL     1      58.703   6.025   8.858  1.00  0.00     0.209 C 
HETATM   15  O   UNL     1      58.806   5.056   9.573  1.00  0.00    -0.644 OA
HETATM   16  O   UNL     1      58.314   7.246   9.308  1.00  0.00    -0.644 OA
ENDBRANCH   1  14
TORSDOF 3
ENDMDL
MODEL 7
REMARK VINA RESULT:      -4.6      4.228      6.595
REMARK  3 active torsions:
REMARK  status: ('A' for Active; 'I' for Inactive)
REMARK    1  A    between atoms: C_1  and  C_3 
REMARK    2  A    between atoms: N_2  and  C_5 
REMARK    3  A    between atoms: C_5  and  C_9 
ROOT
HETATM    1  C   UNL     1      66.774   5.783   7.283  1.00  0.00     0.040 A 
HETATM    2  C   UNL     1      65.379   5.894   7.331  1.00  0.00     0.019 A 
HETATM    3  C   UNL     1      67.503   6.584   6.399  1.00  0.00     0.019 A 
HETATM    4  C   UNL     1      65.461   7.730   5.744  1.00  0.00    -0.033 A 
HETATM    5  C   UNL     1      64.729   6.868   6.576  1.00  0.00     0.010 A 
HETATM    6  C   UNL     1      66.844   7.533   5.614  1.00  0.00     0.010 A 
ENDROOT
BRANCH   4   7
HETATM    7  C   UNL     1      64.792   8.915   5.078  1.00  0.00     0.273 C 
BRANCH   7   8
HETATM    8  N   UNL     1      63.381   9.168   5.365  1.00  0.00    -0.067 N 
HETATM    9  C   UNL     1      62.423   8.559   4.447  1.00  0.00     0.235 C 
HETATM   10  C   UNL     1      62.045   9.655   3.468  1.00  0.00     0.029 C 
HETATM   11  C   UNL     1      62.122  10.922   4.301  1.00  0.00     0.029 C 
HETATM   12  C   UNL     1      63.015  10.579   5.489  1.00  0.00     0.235 C 
HETATM   13  H   UNL     1      63.308   8.709   6.271  1.00  0.00     0.280 HD
ENDBRANCH   7   8
ENDBRANCH   4   7
BRANCH   1  14
HETATM   14  C   UNL     1      67.529   4.872   8.180  1.00  0.00     0.209 C 
HETATM   15  O   UNL     1      68.072   5.231   9.199  1.00  0.00    -0.644 OA
HETATM   16  O   UNL     1      67.457   3.572   7.792  1.00  0.00    -0.644 OA
ENDBRANCH   1  14
TORSDOF 3
ENDMDL
MODEL 8
REMARK VINA RESULT:      -4.5      3.863      6.248
REMARK  3 active torsions:
REMARK  status: ('A' for Active; 'I' for Inactive)
REMARK    1  A    between atoms: C_1  and  C_3 
REMARK    2  A    between atoms: N_2  and  C_5 
REMARK    3  A    between atoms: C_5  and  C_9 
ROOT
HETATM    1  C   UNL     1      64.774   8.235   4.927  1.00  0.00     0.040 A 
HETATM    2  C   UNL     1      64.495   7.310   3.914  1.00  0.00     0.019 A 
HETATM    3  C   UNL     1      63.952   9.355   5.088  1.00  0.00     0.019 A 
HETATM    4  C   UNL     1      62.474   8.528   3.344  1.00  0.00    -0.033 A 
HETATM    5  C   UNL     1      63.348   7.449   3.137  1.00  0.00     0.010 A 
HETATM    6  C   UNL     1      62.823   9.512   4.280  1.00  0.00     0.010 A 
ENDROOT
BRANCH   4   7
HETATM    7  C   UNL     1      61.130   8.579   2.646  1.00  0.00     0.273 C 
BRANCH   7   8
HETATM    8  N   UNL     1      60.341   7.352   2.567  1.00  0.00    -0.067 N 
HETATM    9  C   UNL     1      59.793   7.029   1.253  1.00  0.00     0.235 C 
HETATM   10  C   UNL     1      58.356   7.518   1.281  1.00  0.00     0.029 C 
HETATM   11  C   UNL     1      57.939   7.327   2.728  1.00  0.00     0.029 C 
HETATM   12  C   UNL     1      59.238   7.260   3.524  1.00  0.00     0.235 C 
HETATM   13  H   UNL     1      61.062   6.671   2.800  1.00  0.00     0.280 HD
ENDBRANCH   7   8
ENDBRANCH   4   7
BRANCH   1  14
HETATM   14  C   UNL     1      65.894   8.051   5.885  1.00  0.00     0.209 C 
HETATM   15  O   UNL     1      65.752   7.636   7.011  1.00  0.00    -0.644 OA
HETATM   16  O   UNL     1      67.108   8.295   5.328  1.00  0.00    -0.644 OA
ENDBRANCH   1  14
TORSDOF 3
ENDMDL
MODEL 9
REMARK VINA RESULT:      -4.1      3.919      6.301
REMARK  3 active torsions:
REMARK  status: ('A' for Active; 'I' for Inactive)
REMARK    1  A    between atoms: C_1  and  C_3 
REMARK    2  A    between atoms: N_2  and  C_5 
REMARK    3  A    between atoms: C_5  and  C_9 
ROOT
HETATM    1  C   UNL     1      65.536   6.635   6.817  1.00  0.00     0.040 A 
HETATM    2  C   UNL     1      66.048   7.790   6.216  1.00  0.00     0.019 A 
HETATM    3  C   UNL     1      64.214   6.253   6.570  1.00  0.00     0.019 A 
HETATM    4  C   UNL     1      63.976   8.079   4.984  1.00  0.00    -0.033 A 
HETATM    5  C   UNL     1      65.278   8.500   5.297  1.00  0.00     0.010 A 
HETATM    6  C   UNL     1      63.431   6.990   5.679  1.00  0.00     0.010 A 
ENDROOT
BRANCH   4   7
HETATM    7  C   UNL     1      63.208   8.721   3.846  1.00  0.00     0.273 C 
BRANCH   7   8
HETATM    8  N   UNL     1      62.308   7.884   3.055  1.00  0.00    -0.067 N 
HETATM    9  C   UNL     1      62.826   7.426   1.770  1.00  0.00     0.235 C 
HETATM   10  C   UNL     1      62.254   8.381   0.738  1.00  0.00     0.029 C 
HETATM   11  C   UNL     1      60.900   8.760   1.310  1.00  0.00     0.029 C 
HETATM   12  C   UNL     1      60.986   8.459   2.803  1.00  0.00     0.235 C 
HETATM   13  H   UNL     1      62.226   7.085   3.682  1.00  0.00     0.280 HD
ENDBRANCH   7   8
ENDBRANCH   4   7
BRANCH   1  14
HETATM   14  C   UNL     1      66.365   5.755   7.680  1.00  0.00     0.209 C 
HETATM   15  O   UNL     1      67.034   6.157   8.603  1.00  0.00    -0.644 OA
HETATM   16  O   UNL     1      66.209   4.437   7.391  1.00  0.00    -0.644 OA
ENDBRANCH   1  14
TORSDOF 3
ENDMDL
