MODEL 1
REMARK VINA RESULT:      -5.2      0.000      0.000
REMARK  4 active torsions:
REMARK  status: ('A' for Active; 'I' for Inactive)
REMARK    1  A    between atoms: N_1  and  C_2 
REMARK    2  A    between atoms: C_2  and  C_3 
REMARK    3  A    between atoms: C_4  and  C_12 
REMARK    4  A    between atoms: O_11  and  C_12 
ROOT
HETATM    1  C   UNL     1      63.426   8.119   4.896  1.00  0.00    -0.033 A 
HETATM    2  C   UNL     1      62.303   9.732   2.870  1.00  0.00    -0.035 A 
HETATM    3  C   UNL     1      63.262   7.622   3.597  1.00  0.00     0.009 A 
HETATM    4  C   UNL     1      62.963   9.412   5.184  1.00  0.00     0.009 A 
HETATM    5  C   UNL     1      62.416  10.215   4.179  1.00  0.00     0.010 A 
HETATM    6  C   UNL     1      62.708   8.421   2.595  1.00  0.00     0.010 A 
ENDROOT
BRANCH   1   7
HETATM    7  C   UNL     1      64.120   7.297   5.962  1.00  0.00     0.273 C 
BRANCH   7   8
HETATM    8  N   UNL     1      65.441   7.752   6.420  1.00  0.00    -0.067 N 
HETATM    9  C   UNL     1      66.429   7.986   5.366  1.00  0.00     0.235 C 
HETATM   10  C   UNL     1      67.254   6.714   5.281  1.00  0.00     0.029 C 
HETATM   11  C   UNL     1      67.203   6.133   6.683  1.00  0.00     0.029 C 
HETATM   12  C   UNL     1      66.092   6.887   7.405  1.00  0.00     0.235 C 
HETATM   13  H   UNL     1      65.176   8.639   6.849  1.00  0.00     0.280 HD
ENDBRANCH   7   8
ENDBRANCH   1   7
BRANCH   2  14
HETATM   14  C   UNL     1      61.776  10.610   1.768  1.00  0.00     0.202 C 
BRANCH  14  15
HETATM   15  O   UNL     1      62.110  11.971   2.011  1.00  0.00    -0.396 OA
HETATM   16  H   UNL     1      61.318  12.521   1.913  1.00  0.00     0.209 HD
ENDBRANCH  14  15
ENDBRANCH   2  14
TORSDOF 4
ENDMDL
MODEL 2
REMARK VINA RESULT:      -4.9      0.578      1.410
REMARK  4 active torsions:
REMARK  status: ('A' for Active; 'I' for Inactive)
REMARK    1  A    between atoms: N_1  and  C_2 
REMARK    2  A    between atoms: C_2  and  C_3 
REMARK    3  A    between atoms: C_4  and  C_12 
REMARK    4  A    between atoms: O_11  and  C_12 
ROOT
HETATM    1  C   UNL     1      63.726   7.799   4.993  1.00  0.00    -0.033 A 
HETATM    2  C   UNL     1      62.476   9.173   2.868  1.00  0.00    -0.035 A 
HETATM    3  C   UNL     1      63.188   9.078   5.188  1.00  0.00     0.009 A 
HETATM    4  C   UNL     1      63.686   7.243   3.706  1.00  0.00     0.009 A 
HETATM    5  C   UNL     1      63.059   7.918   2.655  1.00  0.00     0.010 A 
HETATM    6  C   UNL     1      62.569   9.756   4.136  1.00  0.00     0.010 A 
ENDROOT
BRANCH   1   7
HETATM    7  C   UNL     1      64.306   7.015   6.152  1.00  0.00     0.273 C 
BRANCH   7   8
HETATM    8  N   UNL     1      65.529   7.536   6.781  1.00  0.00    -0.067 N 
HETATM    9  C   UNL     1      66.587   7.950   5.859  1.00  0.00     0.235 C 
HETATM   10  C   UNL     1      67.532   6.766   5.754  1.00  0.00     0.029 C 
HETATM   11  C   UNL     1      67.401   6.055   7.089  1.00  0.00     0.029 C 
HETATM   12  C   UNL     1      66.160   6.642   7.752  1.00  0.00     0.235 C 
HETATM   13  H   UNL     1      65.142   8.354   7.253  1.00  0.00     0.280 HD
ENDBRANCH   7   8
ENDBRANCH   1   7
BRANCH   2  14
HETATM   14  C   UNL     1      61.742   9.879   1.760  1.00  0.00     0.202 C 
BRANCH  14  15
HETATM   15  O   UNL     1      61.372  11.192   2.166  1.00  0.00    -0.396 OA
HETATM   16  H   UNL     1      60.430  11.206   2.396  1.00  0.00     0.209 HD
ENDBRANCH  14  15
ENDBRANCH   2  14
TORSDOF 4
ENDMDL
MODEL 3
REMARK VINA RESULT:      -4.8      3.376      5.029
REMARK  4 active torsions:
REMARK  status: ('A' for Active; 'I' for Inactive)
REMARK    1  A    between atoms: N_1  and  C_2 
REMARK    2  A    between atoms: C_2  and  C_3 
REMARK    3  A    between atoms: C_4  and  C_12 
REMARK    4  A    between atoms: O_11  and  C_12 
ROOT
HETATM    1  C   UNL     1      62.411   8.965   2.633  1.00  0.00    -0.033 A 
HETATM    2  C   UNL     1      62.881  10.547   4.923  1.00  0.00    -0.035 A 
HETATM    3  C   UNL     1      63.244   8.503   3.660  1.00  0.00     0.009 A 
HETATM    4  C   UNL     1      61.867  10.254   2.738  1.00  0.00     0.009 A 
HETATM    5  C   UNL     1      62.090  11.034   3.875  1.00  0.00     0.010 A 
HETATM    6  C   UNL     1      63.475   9.286   4.794  1.00  0.00     0.010 A 
ENDROOT
BRANCH   1   7
HETATM    7  C   UNL     1      62.073   8.082   1.450  1.00  0.00     0.273 C 
BRANCH   7   8
HETATM    8  N   UNL     1      60.929   7.168   1.588  1.00  0.00    -0.067 N 
HETATM    9  C   UNL     1      59.844   7.640   2.448  1.00  0.00     0.235 C 
HETATM   10  C   UNL     1      60.092   7.017   3.810  1.00  0.00     0.029 C 
HETATM   11  C   UNL     1      60.822   5.720   3.507  1.00  0.00     0.029 C 
HETATM   12  C   UNL     1      61.260   5.820   2.051  1.00  0.00     0.235 C 
HETATM   13  H   UNL     1      60.615   7.142   0.618  1.00  0.00     0.280 HD
ENDBRANCH   7   8
ENDBRANCH   1   7
BRANCH   2  14
HETATM   14  C   UNL     1      63.076  11.351   6.180  1.00  0.00     0.202 C 
BRANCH  14  15
HETATM   15  O   UNL     1      64.460  11.481   6.478  1.00  0.00    -0.396 OA
HETATM   16  H   UNL     1      64.765  12.366   6.221  1.00  0.00     0.209 HD
ENDBRANCH  14  15
ENDBRANCH   2  14
TORSDOF 4
ENDMDL
MODEL 4
REMARK VINA RESULT:      -4.7      3.032      5.571
REMARK  4 active torsions:
REMARK  status: ('A' for Active; 'I' for Inactive)
REMARK    1  A    between atoms: N_1  and  C_2 
REMARK    2  A    between atoms: C_2  and  C_3 
REMARK    3  A    between atoms: C_4  and  C_12 
REMARK    4  A    between atoms: O_11  and  C_12 
ROOT
HETATM    1  C   UNL     1      62.449   8.270   3.851  1.00  0.00    -0.033 A 
HETATM    2  C   UNL     1      65.051   8.101   4.932  1.00  0.00    -0.035 A 
HETATM    3  C   UNL     1      63.276   7.179   3.553  1.00  0.00     0.009 A 
HETATM    4  C   UNL     1      62.964   9.306   4.646  1.00  0.00     0.009 A 
HETATM    5  C   UNL     1      64.248   9.218   5.190  1.00  0.00     0.010 A 
HETATM    6  C   UNL     1      64.563   7.096   4.090  1.00  0.00     0.010 A 
ENDROOT
BRANCH   1   7
HETATM    7  C   UNL     1      61.018   8.318   3.358  1.00  0.00     0.273 C 
BRANCH   7   8
HETATM    8  N   UNL     1      60.768   8.952   2.056  1.00  0.00    -0.067 N 
HETATM    9  C   UNL     1      60.144   8.097   1.046  1.00  0.00     0.235 C 
HETATM   10  C   UNL     1      61.282   7.552   0.201  1.00  0.00     0.029 C 
HETATM   11  C   UNL     1      62.357   8.622   0.278  1.00  0.00     0.029 C 
HETATM   12  C   UNL     1      61.942   9.547   1.416  1.00  0.00     0.235 C 
HETATM   13  H   UNL     1      60.115   9.681   2.343  1.00  0.00     0.280 HD
ENDBRANCH   7   8
ENDBRANCH   1   7
BRANCH   2  14
HETATM   14  C   UNL     1      66.410   7.966   5.565  1.00  0.00     0.202 C 
BRANCH  14  15
HETATM   15  O   UNL     1      66.543   8.869   6.656  1.00  0.00    -0.396 OA
HETATM   16  H   UNL     1      66.423   8.389   7.490  1.00  0.00     0.209 HD
ENDBRANCH  14  15
ENDBRANCH   2  14
TORSDOF 4
ENDMDL
MODEL 5
REMARK VINA RESULT:      -4.5      3.175      6.029
REMARK  4 active torsions:
REMARK  status: ('A' for Active; 'I' for Inactive)
REMARK    1  A    between atoms: N_1  and  C_2 
REMARK    2  A    between atoms: C_2  and  C_3 
REMARK    3  A    between atoms: C_4  and  C_12 
REMARK    4  A    between atoms: O_11  and  C_12 
ROOT
HETATM    1  C   UNL     1      64.294   7.573   4.777  1.00  0.00    -0.033 A 
HETATM    2  C   UNL     1      65.771   6.881   7.081  1.00  0.00    -0.035 A 
HETATM    3  C   UNL     1      65.431   8.305   5.141  1.00  0.00     0.009 A 
HETATM    4  C   UNL     1      63.869   6.531   5.615  1.00  0.00     0.009 A 
HETATM    5  C   UNL     1      64.605   6.181   6.750  1.00  0.00     0.010 A 
HETATM    6  C   UNL     1      66.163   7.961   6.280  1.00  0.00     0.010 A 
ENDROOT
BRANCH   1   7
HETATM    7  C   UNL     1      63.555   7.874   3.490  1.00  0.00     0.273 C 
BRANCH   7   8
HETATM    8  N   UNL     1      62.228   8.496   3.596  1.00  0.00    -0.067 N 
HETATM    9  C   UNL     1      61.469   8.584   2.348  1.00  0.00     0.235 C 
HETATM   10  C   UNL     1      61.724   9.979   1.804  1.00  0.00     0.029 C 
HETATM   11  C   UNL     1      61.987  10.825   3.038  1.00  0.00     0.029 C 
HETATM   12  C   UNL     1      62.213   9.838   4.178  1.00  0.00     0.235 C 
HETATM   13  H   UNL     1      61.779   7.832   4.227  1.00  0.00     0.280 HD
ENDBRANCH   7   8
ENDBRANCH   1   7
BRANCH   2  14
HETATM   14  C   UNL     1      66.607   6.473   8.264  1.00  0.00     0.202 C 
BRANCH  14  15
HETATM   15  O   UNL     1      66.091   5.284   8.851  1.00  0.00    -0.396 OA
HETATM   16  H   UNL     1      66.097   4.570   8.194  1.00  0.00     0.209 HD
ENDBRANCH  14  15
ENDBRANCH   2  14
TORSDOF 4
ENDMDL
MODEL 6
REMARK VINA RESULT:      -4.3      1.574      1.850
REMARK  4 active torsions:
REMARK  status: ('A' for Active; 'I' for Inactive)
REMARK    1  A    between atoms: N_1  and  C_2 
REMARK    2  A    between atoms: C_2  and  C_3 
REMARK    3  A    between atoms: C_4  and  C_12 
REMARK    4  A    between atoms: O_11  and  C_12 
ROOT
HETATM    1  C   UNL     1      64.315   8.128   4.355  1.00  0.00    -0.033 A 
HETATM    2  C   UNL     1      62.139   8.651   2.635  1.00  0.00    -0.035 A 
HETATM    3  C   UNL     1      63.999   7.245   3.315  1.00  0.00     0.009 A 
HETATM    4  C   UNL     1      63.489   9.243   4.563  1.00  0.00     0.009 A 
HETATM    5  C   UNL     1      62.418   9.509   3.706  1.00  0.00     0.010 A 
HETATM    6  C   UNL     1      62.924   7.506   2.463  1.00  0.00     0.010 A 
ENDROOT
BRANCH   1   7
HETATM    7  C   UNL     1      65.540   7.908   5.218  1.00  0.00     0.273 C 
BRANCH   7   8
HETATM    8  N   UNL     1      65.324   7.516   6.618  1.00  0.00    -0.067 N 
HETATM    9  C   UNL     1      66.537   7.319   7.413  1.00  0.00     0.235 C 
HETATM   10  C   UNL     1      66.819   5.827   7.377  1.00  0.00     0.029 C 
HETATM   11  C   UNL     1      65.453   5.186   7.208  1.00  0.00     0.029 C 
HETATM   12  C   UNL     1      64.509   6.316   6.812  1.00  0.00     0.235 C 
HETATM   13  H   UNL     1      64.824   8.341   6.950  1.00  0.00     0.280 HD
ENDBRANCH   7   8
ENDBRANCH   1   7
BRANCH   2  14
HETATM   14  C   UNL     1      61.029   8.962   1.668  1.00  0.00     0.202 C 
BRANCH  14  15
HETATM   15  O   UNL     1      59.836   8.285   2.045  1.00  0.00    -0.396 OA
HETATM   16  H   UNL     1      59.438   8.731   2.808  1.00  0.00     0.209 HD
ENDBRANCH  14  15
ENDBRANCH   2  14
TORSDOF 4
ENDMDL
MODEL 7
REMARK VINA RESULT:      -4.1      1.584      2.441
REMARK  4 active torsions:
REMARK  status: ('A' for Active; 'I' for Inactive)
REMARK    1  A    between atoms: N_1  and  C_2 
REMARK    2  A    between atoms: C_2  and  C_3 
REMARK    3  A    between atoms: C_4  and  C_12 
REMARK    4  A    between atoms: O_11  and  C_12 
ROOT
HETATM    1  C   UNL     1      62.814   7.328   3.558  1.00  0.00    -0.033 A 
HETATM    2  C   UNL     1      62.184   9.929   2.663  1.00  0.00    -0.035 A 
HETATM    3  C   UNL     1      62.724   8.392   4.465  1.00  0.00     0.009 A 
HETATM    4  C   UNL     1      62.648   7.595   2.191  1.00  0.00     0.009 A 
HETATM    5  C   UNL     1      62.325   8.880   1.748  1.00  0.00     0.010 A 
HETATM    6  C   UNL     1      62.410   9.679   4.021  1.00  0.00     0.010 A 
ENDROOT
BRANCH   1   7
HETATM    7  C   UNL     1      63.052   5.912   4.042  1.00  0.00     0.273 C 
BRANCH   7   8
HETATM    8  N   UNL     1      64.445   5.473   4.201  1.00  0.00    -0.067 N 
HETATM    9  C   UNL     1      64.904   5.314   5.582  1.00  0.00     0.235 C 
HETATM   10  C   UNL     1      65.611   6.611   5.935  1.00  0.00     0.029 C 
HETATM   11  C   UNL     1      66.147   7.125   4.610  1.00  0.00     0.029 C 
HETATM   12  C   UNL     1      65.443   6.308   3.533  1.00  0.00     0.235 C 
HETATM   13  H   UNL     1      64.388   4.560   3.749  1.00  0.00     0.280 HD
ENDBRANCH   7   8
ENDBRANCH   1   7
BRANCH   2  14
HETATM   14  C   UNL     1      61.774  11.303   2.205  1.00  0.00     0.202 C 
BRANCH  14  15
HETATM   15  O   UNL     1      61.803  12.220   3.291  1.00  0.00    -0.396 OA
HETATM   16  H   UNL     1      61.587  11.754   4.114  1.00  0.00     0.209 HD
ENDBRANCH  14  15
ENDBRANCH   2  14
TORSDOF 4
ENDMDL
MODEL 8
REMARK VINA RESULT:      -4.1      4.812      6.573
REMARK  4 active torsions:
REMARK  status: ('A' for Active; 'I' for Inactive)
REMARK    1  A    between atoms: N_1  and  C_2 
REMARK    2  A    between atoms: C_2  and  C_3 
REMARK    3  A    between atoms: C_4  and  C_12 
REMARK    4  A    between atoms: O_11  and  C_12 
ROOT
HETATM    1  C   UNL     1      59.967   6.483   4.700  1.00  0.00    -0.033 A 
HETATM    2  C   UNL     1      59.214   5.758   7.322  1.00  0.00    -0.035 A 
HETATM    3  C   UNL     1      60.937   6.146   5.653  1.00  0.00     0.009 A 
HETATM    4  C   UNL     1      58.620   6.514   5.094  1.00  0.00     0.009 A 
HETATM    5  C   UNL     1      58.246   6.145   6.389  1.00  0.00     0.010 A 
HETATM    6  C   UNL     1      60.563   5.785   6.950  1.00  0.00     0.010 A 
ENDROOT
BRANCH   1   7
HETATM    7  C   UNL     1      60.355   6.774   3.265  1.00  0.00     0.273 C 
BRANCH   7   8
HETATM    8  N   UNL     1      60.348   8.178   2.830  1.00  0.00    -0.067 N 
HETATM    9  C   UNL     1      60.544   8.396   1.397  1.00  0.00     0.235 C 
HETATM   10  C   UNL     1      62.025   8.684   1.219  1.00  0.00     0.029 C 
HETATM   11  C   UNL     1      62.450   9.314   2.534  1.00  0.00     0.029 C 
HETATM   12  C   UNL     1      61.310   9.046   3.511  1.00  0.00     0.235 C 
HETATM   13  H   UNL     1      59.396   8.433   3.092  1.00  0.00     0.280 HD
ENDBRANCH   7   8
ENDBRANCH   1   7
BRANCH   2  14
HETATM   14  C   UNL     1      58.818   5.297   8.699  1.00  0.00     0.202 C 
BRANCH  14  15
HETATM   15  O   UNL     1      58.700   6.407   9.581  1.00  0.00    -0.396 OA
HETATM   16  H   UNL     1      57.803   6.435   9.947  1.00  0.00     0.209 HD
ENDBRANCH  14  15
ENDBRANCH   2  14
TORSDOF 4
ENDMDL
MODEL 9
REMARK VINA RESULT:      -4.1      2.156      2.639
REMARK  4 active torsions:
REMARK  status: ('A' for Active; 'I' for Inactive)
REMARK    1  A    between atoms: N_1  and  C_2 
REMARK    2  A    between atoms: C_2  and  C_3 
REMARK    3  A    between atoms: C_4  and  C_12 
REMARK    4  A    between atoms: O_11  and  C_12 
ROOT
HETATM    1  C   UNL     1      62.822   8.370   3.989  1.00  0.00    -0.033 A 
HETATM    2  C   UNL     1      60.412   7.866   2.611  1.00  0.00    -0.035 A 
HETATM    3  C   UNL     1      61.847   7.531   4.542  1.00  0.00     0.009 A 
HETATM    4  C   UNL     1      62.549   9.004   2.768  1.00  0.00     0.009 A 
HETATM    5  C   UNL     1      61.360   8.747   2.080  1.00  0.00     0.010 A 
HETATM    6  C   UNL     1      60.655   7.280   3.859  1.00  0.00     0.010 A 
ENDROOT
BRANCH   1   7
HETATM    7  C   UNL     1      64.159   8.565   4.674  1.00  0.00     0.273 C 
BRANCH   7   8
HETATM    8  N   UNL     1      64.914   7.361   5.049  1.00  0.00    -0.067 N 
HETATM    9  C   UNL     1      65.294   7.266   6.459  1.00  0.00     0.235 C 
HETATM   10  C   UNL     1      66.716   7.791   6.541  1.00  0.00     0.029 C 
HETATM   11  C   UNL     1      67.314   7.484   5.179  1.00  0.00     0.029 C 
HETATM   12  C   UNL     1      66.136   7.126   4.280  1.00  0.00     0.235 C 
HETATM   13  H   UNL     1      64.217   6.649   4.831  1.00  0.00     0.280 HD
ENDBRANCH   7   8
ENDBRANCH   1   7
BRANCH   2  14
HETATM   14  C   UNL     1      59.158   7.531   1.849  1.00  0.00     0.202 C 
BRANCH  14  15
HETATM   15  O   UNL     1      58.722   8.653   1.090  1.00  0.00    -0.396 OA
HETATM   16  H   UNL     1      59.487   9.079   0.675  1.00  0.00     0.209 HD
ENDBRANCH  14  15
ENDBRANCH   2  14
TORSDOF 4
ENDMDL
