MODEL 1
REMARK VINA RESULT:      -3.8      0.000      0.000
REMARK  2 active torsions:
REMARK  status: ('A' for Active; 'I' for Inactive)
REMARK    1  A    between atoms: C_1  and  C_6 
REMARK    2  A    between atoms: C_6  and  N_7 
ROOT
HETATM    1  C   UNL     1      62.238   9.698   3.386  1.00  0.00    -0.002 A 
HETATM    2  C   UNL     1      62.324  10.855   4.146  1.00  0.00     0.056 A 
HETATM    3  O   UNL     1      61.999  11.944   3.394  1.00  0.00    -0.327 OA
HETATM    4  C   UNL     1      61.702  11.498   2.150  1.00  0.00     0.142 A 
HETATM    5  C   UNL     1      61.836  10.134   2.088  1.00  0.00     0.036 A 
HETATM    6  C   UNL     1      62.686  11.141   5.550  1.00  0.00     0.077 C 
ENDROOT
BRANCH   1   7
HETATM    7  C   UNL     1      62.521   8.301   3.810  1.00  0.00     0.270 C 
BRANCH   7   8
HETATM    8  N   UNL     1      63.958   8.155   3.997  1.00  0.00    -0.075 N 
HETATM    9  H   UNL     1      64.304   7.406   3.397  1.00  0.00     0.274 HD
HETATM   10  H   UNL     1      64.152   7.927   4.972  1.00  0.00     0.274 HD
HETATM   11  H   UNL     1      64.423   9.028   3.752  1.00  0.00     0.274 HD
ENDBRANCH   7   8
ENDBRANCH   1   7
TORSDOF 2
ENDMDL
MODEL 2
REMARK VINA RESULT:      -3.7      1.739      2.912
REMARK  2 active torsions:
REMARK  status: ('A' for Active; 'I' for Inactive)
REMARK    1  A    between atoms: C_1  and  C_6 
REMARK    2  A    between atoms: C_6  and  N_7 
ROOT
HETATM    1  C   UNL     1      62.421  10.355   4.203  1.00  0.00    -0.002 A 
HETATM    2  C   UNL     1      62.087  10.531   2.869  1.00  0.00     0.056 A 
HETATM    3  O   UNL     1      62.124   9.341   2.207  1.00  0.00    -0.327 OA
HETATM    4  C   UNL     1      62.480   8.393   3.107  1.00  0.00     0.142 A 
HETATM    5  C   UNL     1      62.679   8.958   4.342  1.00  0.00     0.036 A 
HETATM    6  C   UNL     1      61.716  11.702   2.045  1.00  0.00     0.077 C 
ENDROOT
BRANCH   1   7
HETATM    7  C   UNL     1      62.517  11.389   5.267  1.00  0.00     0.270 C 
BRANCH   7   8
HETATM    8  N   UNL     1      63.718  11.136   6.054  1.00  0.00    -0.075 N 
HETATM    9  H   UNL     1      64.539  11.425   5.523  1.00  0.00     0.274 HD
HETATM   10  H   UNL     1      63.782  10.140   6.264  1.00  0.00     0.274 HD
HETATM   11  H   UNL     1      63.672  11.665   6.924  1.00  0.00     0.274 HD
ENDBRANCH   7   8
ENDBRANCH   1   7
TORSDOF 2
ENDMDL
MODEL 3
REMARK VINA RESULT:      -3.7      1.763      2.536
REMARK  2 active torsions:
REMARK  status: ('A' for Active; 'I' for Inactive)
REMARK    1  A    between atoms: C_1  and  C_6 
REMARK    2  A    between atoms: C_6  and  N_7 
ROOT
HETATM    1  C   UNL     1      62.413  10.298   3.901  1.00  0.00    -0.002 A 
HETATM    2  C   UNL     1      62.409   9.444   2.808  1.00  0.00     0.056 A 
HETATM    3  O   UNL     1      61.967  10.096   1.697  1.00  0.00    -0.327 OA
HETATM    4  C   UNL     1      61.683  11.368   2.064  1.00  0.00     0.142 A 
HETATM    5  C   UNL     1      61.933  11.546   3.401  1.00  0.00     0.036 A 
HETATM    6  C   UNL     1      62.771   8.025   2.608  1.00  0.00     0.077 C 
ENDROOT
BRANCH   1   7
HETATM    7  C   UNL     1      62.806   9.991   5.302  1.00  0.00     0.270 C 
BRANCH   7   8
HETATM    8  N   UNL     1      63.320  11.208   5.917  1.00  0.00    -0.075 N 
HETATM    9  H   UNL     1      63.433  11.928   5.204  1.00  0.00     0.274 HD
HETATM   10  H   UNL     1      64.223  11.014   6.350  1.00  0.00     0.274 HD
HETATM   11  H   UNL     1      62.665  11.533   6.627  1.00  0.00     0.274 HD
ENDBRANCH   7   8
ENDBRANCH   1   7
TORSDOF 2
ENDMDL
MODEL 4
REMARK VINA RESULT:      -3.6      2.351      3.052
REMARK  2 active torsions:
REMARK  status: ('A' for Active; 'I' for Inactive)
REMARK    1  A    between atoms: C_1  and  C_6 
REMARK    2  A    between atoms: C_6  and  N_7 
ROOT
HETATM    1  C   UNL     1      62.794   9.099   4.225  1.00  0.00    -0.002 A 
HETATM    2  C   UNL     1      63.326   9.992   5.142  1.00  0.00     0.056 A 
HETATM    3  O   UNL     1      64.544   9.562   5.574  1.00  0.00    -0.327 OA
HETATM    4  C   UNL     1      64.804   8.393   4.942  1.00  0.00     0.142 A 
HETATM    5  C   UNL     1      63.766   8.060   4.108  1.00  0.00     0.036 A 
HETATM    6  C   UNL     1      62.861  11.267   5.728  1.00  0.00     0.077 C 
ENDROOT
BRANCH   1   7
HETATM    7  C   UNL     1      61.486   9.178   3.522  1.00  0.00     0.270 C 
BRANCH   7   8
HETATM    8  N   UNL     1      61.547  10.258   2.547  1.00  0.00    -0.075 N 
HETATM    9  H   UNL     1      61.890  11.106   2.999  1.00  0.00     0.274 HD
HETATM   10  H   UNL     1      60.615  10.428   2.169  1.00  0.00     0.274 HD
HETATM   11  H   UNL     1      62.179   9.998   1.790  1.00  0.00     0.274 HD
ENDBRANCH   7   8
ENDBRANCH   1   7
TORSDOF 2
ENDMDL
MODEL 5
REMARK VINA RESULT:      -3.4      2.149      2.933
REMARK  2 active torsions:
REMARK  status: ('A' for Active; 'I' for Inactive)
REMARK    1  A    between atoms: C_1  and  C_6 
REMARK    2  A    between atoms: C_6  and  N_7 
ROOT
HETATM    1  C   UNL     1      62.609   9.526   3.796  1.00  0.00    -0.002 A 
HETATM    2  C   UNL     1      63.613   9.049   4.624  1.00  0.00     0.056 A 
HETATM    3  O   UNL     1      63.829   9.912   5.656  1.00  0.00    -0.327 OA
HETATM    4  C   UNL     1      62.969  10.948   5.500  1.00  0.00     0.142 A 
HETATM    5  C   UNL     1      62.203  10.765   4.376  1.00  0.00     0.036 A 
HETATM    6  C   UNL     1      64.468   7.844   4.619  1.00  0.00     0.077 C 
ENDROOT
BRANCH   1   7
HETATM    7  C   UNL     1      62.074   8.906   2.554  1.00  0.00     0.270 C 
BRANCH   7   8
HETATM    8  N   UNL     1      61.320   9.913   1.820  1.00  0.00    -0.075 N 
HETATM    9  H   UNL     1      60.372   9.575   1.653  1.00  0.00     0.274 HD
HETATM   10  H   UNL     1      61.778  10.095   0.927  1.00  0.00     0.274 HD
HETATM   11  H   UNL     1      61.283  10.774   2.365  1.00  0.00     0.274 HD
ENDBRANCH   7   8
ENDBRANCH   1   7
TORSDOF 2
ENDMDL
MODEL 6
REMARK VINA RESULT:      -3.3      2.743      3.423
REMARK  2 active torsions:
REMARK  status: ('A' for Active; 'I' for Inactive)
REMARK    1  A    between atoms: C_1  and  C_6 
REMARK    2  A    between atoms: C_6  and  N_7 
ROOT
HETATM    1  C   UNL     1      62.182   9.386   2.371  1.00  0.00    -0.002 A 
HETATM    2  C   UNL     1      62.915   8.293   2.807  1.00  0.00     0.056 A 
HETATM    3  O   UNL     1      62.949   7.329   1.845  1.00  0.00    -0.327 OA
HETATM    4  C   UNL     1      62.240   7.792   0.788  1.00  0.00     0.142 A 
HETATM    5  C   UNL     1      61.745   9.043   1.056  1.00  0.00     0.036 A 
HETATM    6  C   UNL     1      63.638   7.968   4.054  1.00  0.00     0.077 C 
ENDROOT
BRANCH   1   7
HETATM    7  C   UNL     1      61.885  10.643   3.109  1.00  0.00     0.270 C 
BRANCH   7   8
HETATM    8  N   UNL     1      61.596  11.693   2.141  1.00  0.00    -0.075 N 
HETATM    9  H   UNL     1      61.694  11.321   1.196  1.00  0.00     0.274 HD
HETATM   10  H   UNL     1      62.250  12.464   2.272  1.00  0.00     0.274 HD
HETATM   11  H   UNL     1      60.642  12.027   2.277  1.00  0.00     0.274 HD
ENDBRANCH   7   8
ENDBRANCH   1   7
TORSDOF 2
ENDMDL
MODEL 7
REMARK VINA RESULT:      -3.3      1.600      2.671
REMARK  2 active torsions:
REMARK  status: ('A' for Active; 'I' for Inactive)
REMARK    1  A    between atoms: C_1  and  C_6 
REMARK    2  A    between atoms: C_6  and  N_7 
ROOT
HETATM    1  C   UNL     1      63.357   9.205   4.712  1.00  0.00    -0.002 A 
HETATM    2  C   UNL     1      62.730   9.155   3.476  1.00  0.00     0.056 A 
HETATM    3  O   UNL     1      62.021  10.298   3.256  1.00  0.00    -0.327 OA
HETATM    4  C   UNL     1      62.185  11.088   4.344  1.00  0.00     0.142 A 
HETATM    5  C   UNL     1      62.989  10.468   5.266  1.00  0.00     0.036 A 
HETATM    6  C   UNL     1      62.671   8.155   2.390  1.00  0.00     0.077 C 
ENDROOT
BRANCH   1   7
HETATM    7  C   UNL     1      64.212   8.168   5.347  1.00  0.00     0.270 C 
BRANCH   7   8
HETATM    8  N   UNL     1      63.490   7.599   6.478  1.00  0.00    -0.075 N 
HETATM    9  H   UNL     1      63.257   6.627   6.278  1.00  0.00     0.274 HD
HETATM   10  H   UNL     1      62.633   8.130   6.634  1.00  0.00     0.274 HD
HETATM   11  H   UNL     1      64.075   7.644   7.312  1.00  0.00     0.274 HD
ENDBRANCH   7   8
ENDBRANCH   1   7
TORSDOF 2
ENDMDL
MODEL 8
REMARK VINA RESULT:      -3.1      1.827      2.498
REMARK  2 active torsions:
REMARK  status: ('A' for Active; 'I' for Inactive)
REMARK    1  A    between atoms: C_1  and  C_6 
REMARK    2  A    between atoms: C_6  and  N_7 
ROOT
HETATM    1  C   UNL     1      61.644   9.559   1.874  1.00  0.00    -0.002 A 
HETATM    2  C   UNL     1      61.432   9.226   3.203  1.00  0.00     0.056 A 
HETATM    3  O   UNL     1      61.567  10.325   3.997  1.00  0.00    -0.327 OA
HETATM    4  C   UNL     1      61.867  11.369   3.188  1.00  0.00     0.142 A 
HETATM    5  C   UNL     1      61.931  10.957   1.880  1.00  0.00     0.036 A 
HETATM    6  C   UNL     1      61.103   7.971   3.911  1.00  0.00     0.077 C 
ENDROOT
BRANCH   1   7
HETATM    7  C   UNL     1      61.608   8.662   0.688  1.00  0.00     0.270 C 
BRANCH   7   8
HETATM    8  N   UNL     1      62.662   7.666   0.827  1.00  0.00    -0.075 N 
HETATM    9  H   UNL     1      62.543   6.943   0.117  1.00  0.00     0.274 HD
HETATM   10  H   UNL     1      62.610   7.244   1.754  1.00  0.00     0.274 HD
HETATM   11  H   UNL     1      63.570   8.113   0.707  1.00  0.00     0.274 HD
ENDBRANCH   7   8
ENDBRANCH   1   7
TORSDOF 2
ENDMDL
MODEL 9
REMARK VINA RESULT:      -3.1      2.990      3.704
REMARK  2 active torsions:
REMARK  status: ('A' for Active; 'I' for Inactive)
REMARK    1  A    between atoms: C_1  and  C_6 
REMARK    2  A    between atoms: C_6  and  N_7 
ROOT
HETATM    1  C   UNL     1      61.713   9.305   2.096  1.00  0.00    -0.002 A 
HETATM    2  C   UNL     1      60.941   8.189   2.381  1.00  0.00     0.056 A 
HETATM    3  O   UNL     1      60.974   7.309   1.342  1.00  0.00    -0.327 OA
HETATM    4  C   UNL     1      61.763   7.850   0.383  1.00  0.00     0.142 A 
HETATM    5  C   UNL     1      62.238   9.071   0.789  1.00  0.00     0.036 A 
HETATM    6  C   UNL     1      60.118   7.773   3.536  1.00  0.00     0.077 C 
ENDROOT
BRANCH   1   7
HETATM    7  C   UNL     1      61.938  10.505   2.945  1.00  0.00     0.270 C 
BRANCH   7   8
HETATM    8  N   UNL     1      61.602  11.692   2.170  1.00  0.00    -0.075 N 
HETATM    9  H   UNL     1      61.215  12.404   2.789  1.00  0.00     0.274 HD
HETATM   10  H   UNL     1      60.913  11.449   1.458  1.00  0.00     0.274 HD
HETATM   11  H   UNL     1      62.443  12.053   1.720  1.00  0.00     0.274 HD
ENDBRANCH   7   8
ENDBRANCH   1   7
TORSDOF 2
ENDMDL
