MODEL 1
REMARK VINA RESULT:      -5.1      0.000      0.000
REMARK  4 active torsions:
REMARK  status: ('A' for Active; 'I' for Inactive)
REMARK    1  A    between atoms: N_1  and  C_2 
REMARK    2  A    between atoms: C_2  and  C_3 
REMARK    3  A    between atoms: C_5  and  C_11 
REMARK    4  A    between atoms: N_6  and  C_11 
ROOT
HETATM    1  C   UNL     1      65.469   7.746   5.052  1.00  0.00    -0.032 A 
HETATM    2  C   UNL     1      64.727   8.904   5.339  1.00  0.00     0.017 A 
HETATM    3  C   UNL     1      63.545   9.207   4.644  1.00  0.00    -0.033 A 
HETATM    4  C   UNL     1      63.845   7.192   3.330  1.00  0.00     0.001 A 
HETATM    5  C   UNL     1      65.011   6.894   4.039  1.00  0.00     0.009 A 
HETATM    6  C   UNL     1      63.116   8.341   3.632  1.00  0.00     0.009 A 
ENDROOT
BRANCH   1   7
HETATM    7  C   UNL     1      66.700   7.408   5.866  1.00  0.00     0.273 C 
BRANCH   7   8
HETATM    8  N   UNL     1      66.720   6.149   6.618  1.00  0.00    -0.067 N 
HETATM    9  C   UNL     1      65.723   6.032   7.680  1.00  0.00     0.235 C 
HETATM   10  C   UNL     1      66.445   6.402   8.962  1.00  0.00     0.029 C 
HETATM   11  C   UNL     1      67.892   6.015   8.711  1.00  0.00     0.029 C 
HETATM   12  C   UNL     1      68.009   5.795   7.208  1.00  0.00     0.235 C 
HETATM   13  H   UNL     1      66.495   5.497   5.866  1.00  0.00     0.280 HD
ENDBRANCH   7   8
ENDBRANCH   1   7
BRANCH   3  14
HETATM   14  C   UNL     1      62.750  10.439   4.998  1.00  0.00     0.268 C 
BRANCH  14  15
HETATM   15  N   UNL     1      63.435  11.239   6.007  1.00  0.00    -0.075 N 
HETATM   16  H   UNL     1      62.993  11.093   6.915  1.00  0.00     0.274 HD
HETATM   17  H   UNL     1      63.378  12.225   5.755  1.00  0.00     0.274 HD
HETATM   18  H   UNL     1      64.414  10.957   6.056  1.00  0.00     0.274 HD
ENDBRANCH  14  15
ENDBRANCH   3  14
TORSDOF 4
ENDMDL
MODEL 2
REMARK VINA RESULT:      -5.0      2.217      3.508
REMARK  4 active torsions:
REMARK  status: ('A' for Active; 'I' for Inactive)
REMARK    1  A    between atoms: N_1  and  C_2 
REMARK    2  A    between atoms: C_2  and  C_3 
REMARK    3  A    between atoms: C_5  and  C_11 
REMARK    4  A    between atoms: N_6  and  C_11 
ROOT
HETATM    1  C   UNL     1      63.127   8.773   4.803  1.00  0.00    -0.032 A 
HETATM    2  C   UNL     1      62.678   8.543   3.492  1.00  0.00     0.017 A 
HETATM    3  C   UNL     1      62.114   9.571   2.720  1.00  0.00    -0.033 A 
HETATM    4  C   UNL     1      62.418  11.088   4.586  1.00  0.00     0.001 A 
HETATM    5  C   UNL     1      62.990  10.060   5.339  1.00  0.00     0.009 A 
HETATM    6  C   UNL     1      61.983  10.845   3.284  1.00  0.00     0.009 A 
ENDROOT
BRANCH   1   7
HETATM    7  C   UNL     1      63.796   7.664   5.587  1.00  0.00     0.273 C 
BRANCH   7   8
HETATM    8  N   UNL     1      65.146   7.892   6.113  1.00  0.00    -0.067 N 
HETATM    9  C   UNL     1      66.195   8.055   5.110  1.00  0.00     0.235 C 
HETATM   10  C   UNL     1      66.854   6.695   4.981  1.00  0.00     0.029 C 
HETATM   11  C   UNL     1      66.674   6.052   6.346  1.00  0.00     0.029 C 
HETATM   12  C   UNL     1      65.622   6.889   7.063  1.00  0.00     0.235 C 
HETATM   13  H   UNL     1      64.995   8.778   6.595  1.00  0.00     0.280 HD
ENDBRANCH   7   8
ENDBRANCH   1   7
BRANCH   3  14
HETATM   14  C   UNL     1      61.673   9.303   1.303  1.00  0.00     0.268 C 
BRANCH  14  15
HETATM   15  N   UNL     1      60.316   8.769   1.263  1.00  0.00    -0.075 N 
HETATM   16  H   UNL     1      60.093   8.477   0.311  1.00  0.00     0.274 HD
HETATM   17  H   UNL     1      59.659   9.489   1.561  1.00  0.00     0.274 HD
HETATM   18  H   UNL     1      60.248   7.967   1.889  1.00  0.00     0.274 HD
ENDBRANCH  14  15
ENDBRANCH   3  14
TORSDOF 4
ENDMDL
MODEL 3
REMARK VINA RESULT:      -5.0      1.565      2.132
REMARK  4 active torsions:
REMARK  status: ('A' for Active; 'I' for Inactive)
REMARK    1  A    between atoms: N_1  and  C_2 
REMARK    2  A    between atoms: C_2  and  C_3 
REMARK    3  A    between atoms: C_5  and  C_11 
REMARK    4  A    between atoms: N_6  and  C_11 
ROOT
HETATM    1  C   UNL     1      63.868   7.675   4.973  1.00  0.00    -0.032 A 
HETATM    2  C   UNL     1      63.286   8.954   4.982  1.00  0.00     0.017 A 
HETATM    3  C   UNL     1      62.649   9.476   3.845  1.00  0.00    -0.033 A 
HETATM    4  C   UNL     1      63.192   7.437   2.650  1.00  0.00     0.001 A 
HETATM    5  C   UNL     1      63.811   6.924   3.792  1.00  0.00     0.009 A 
HETATM    6  C   UNL     1      62.614   8.706   2.677  1.00  0.00     0.009 A 
ENDROOT
BRANCH   1   7
HETATM    7  C   UNL     1      64.485   7.108   6.234  1.00  0.00     0.273 C 
BRANCH   7   8
HETATM    8  N   UNL     1      65.772   7.645   6.688  1.00  0.00    -0.067 N 
HETATM    9  C   UNL     1      66.755   7.901   5.637  1.00  0.00     0.235 C 
HETATM   10  C   UNL     1      67.665   6.687   5.624  1.00  0.00     0.029 C 
HETATM   11  C   UNL     1      67.633   6.169   7.051  1.00  0.00     0.029 C 
HETATM   12  C   UNL     1      66.448   6.859   7.717  1.00  0.00     0.235 C 
HETATM   13  H   UNL     1      65.458   8.532   7.083  1.00  0.00     0.280 HD
ENDBRANCH   7   8
ENDBRANCH   1   7
BRANCH   3  14
HETATM   14  C   UNL     1      62.003  10.837   3.894  1.00  0.00     0.268 C 
BRANCH  14  15
HETATM   15  N   UNL     1      61.595  11.277   2.564  1.00  0.00    -0.075 N 
HETATM   16  H   UNL     1      60.586  11.164   2.463  1.00  0.00     0.274 HD
HETATM   17  H   UNL     1      62.072  10.717   1.859  1.00  0.00     0.274 HD
HETATM   18  H   UNL     1      61.840  12.260   2.441  1.00  0.00     0.274 HD
ENDBRANCH  14  15
ENDBRANCH   3  14
TORSDOF 4
ENDMDL
MODEL 4
REMARK VINA RESULT:      -4.7      3.172      6.724
REMARK  4 active torsions:
REMARK  status: ('A' for Active; 'I' for Inactive)
REMARK    1  A    between atoms: N_1  and  C_2 
REMARK    2  A    between atoms: C_2  and  C_3 
REMARK    3  A    between atoms: C_5  and  C_11 
REMARK    4  A    between atoms: N_6  and  C_11 
ROOT
HETATM    1  C   UNL     1      62.147   9.480   2.778  1.00  0.00    -0.032 A 
HETATM    2  C   UNL     1      63.019   8.588   3.426  1.00  0.00     0.017 A 
HETATM    3  C   UNL     1      63.586   8.896   4.673  1.00  0.00    -0.033 A 
HETATM    4  C   UNL     1      62.428  11.025   4.633  1.00  0.00     0.001 A 
HETATM    5  C   UNL     1      61.859  10.702   3.399  1.00  0.00     0.009 A 
HETATM    6  C   UNL     1      63.285  10.127   5.266  1.00  0.00     0.009 A 
ENDROOT
BRANCH   1   7
HETATM    7  C   UNL     1      61.494   9.092   1.468  1.00  0.00     0.273 C 
BRANCH   7   8
HETATM    8  N   UNL     1      60.125   8.567   1.494  1.00  0.00    -0.067 N 
HETATM    9  C   UNL     1      59.827   7.636   2.580  1.00  0.00     0.235 C 
HETATM   10  C   UNL     1      59.972   6.250   1.983  1.00  0.00     0.029 C 
HETATM   11  C   UNL     1      59.635   6.430   0.513  1.00  0.00     0.029 C 
HETATM   12  C   UNL     1      59.677   7.931   0.258  1.00  0.00     0.235 C 
HETATM   13  H   UNL     1      59.611   9.436   1.640  1.00  0.00     0.280 HD
ENDBRANCH   7   8
ENDBRANCH   1   7
BRANCH   3  14
HETATM   14  C   UNL     1      64.490   7.905   5.361  1.00  0.00     0.268 C 
BRANCH  14  15
HETATM   15  N   UNL     1      65.533   8.582   6.124  1.00  0.00    -0.075 N 
HETATM   16  H   UNL     1      65.135   9.392   6.600  1.00  0.00     0.274 HD
HETATM   17  H   UNL     1      66.272   8.888   5.492  1.00  0.00     0.274 HD
HETATM   18  H   UNL     1      65.920   7.939   6.815  1.00  0.00     0.274 HD
ENDBRANCH  14  15
ENDBRANCH   3  14
TORSDOF 4
ENDMDL
MODEL 5
REMARK VINA RESULT:      -4.3      1.558      5.488
REMARK  4 active torsions:
REMARK  status: ('A' for Active; 'I' for Inactive)
REMARK    1  A    between atoms: N_1  and  C_2 
REMARK    2  A    between atoms: C_2  and  C_3 
REMARK    3  A    between atoms: C_5  and  C_11 
REMARK    4  A    between atoms: N_6  and  C_11 
ROOT
HETATM    1  C   UNL     1      65.451   7.350   4.975  1.00  0.00    -0.032 A 
HETATM    2  C   UNL     1      65.290   6.990   6.324  1.00  0.00     0.017 A 
HETATM    3  C   UNL     1      66.388   6.635   7.123  1.00  0.00    -0.033 A 
HETATM    4  C   UNL     1      67.840   6.970   5.210  1.00  0.00     0.001 A 
HETATM    5  C   UNL     1      66.741   7.335   4.430  1.00  0.00     0.009 A 
HETATM    6  C   UNL     1      67.665   6.622   6.549  1.00  0.00     0.009 A 
ENDROOT
BRANCH   1   7
HETATM    7  C   UNL     1      64.258   7.798   4.157  1.00  0.00     0.273 C 
BRANCH   7   8
HETATM    8  N   UNL     1      63.097   8.357   4.857  1.00  0.00    -0.067 N 
HETATM    9  C   UNL     1      61.803   8.122   4.221  1.00  0.00     0.235 C 
HETATM   10  C   UNL     1      61.497   9.384   3.436  1.00  0.00     0.029 C 
HETATM   11  C   UNL     1      62.206  10.490   4.199  1.00  0.00     0.029 C 
HETATM   12  C   UNL     1      63.172   9.788   5.145  1.00  0.00     0.235 C 
HETATM   13  H   UNL     1      63.150   7.828   5.727  1.00  0.00     0.280 HD
ENDBRANCH   7   8
ENDBRANCH   1   7
BRANCH   3  14
HETATM   14  C   UNL     1      66.190   6.288   8.577  1.00  0.00     0.268 C 
BRANCH  14  15
HETATM   15  N   UNL     1      66.290   4.849   8.795  1.00  0.00    -0.075 N 
HETATM   16  H   UNL     1      65.525   4.377   8.313  1.00  0.00     0.274 HD
HETATM   17  H   UNL     1      66.236   4.652   9.794  1.00  0.00     0.274 HD
HETATM   18  H   UNL     1      67.181   4.511   8.430  1.00  0.00     0.274 HD
ENDBRANCH  14  15
ENDBRANCH   3  14
TORSDOF 4
ENDMDL
MODEL 6
REMARK VINA RESULT:      -4.3      2.145      6.253
REMARK  4 active torsions:
REMARK  status: ('A' for Active; 'I' for Inactive)
REMARK    1  A    between atoms: N_1  and  C_2 
REMARK    2  A    between atoms: C_2  and  C_3 
REMARK    3  A    between atoms: C_5  and  C_11 
REMARK    4  A    between atoms: N_6  and  C_11 
ROOT
HETATM    1  C   UNL     1      66.048   5.934   7.082  1.00  0.00    -0.032 A 
HETATM    2  C   UNL     1      66.496   4.606   7.187  1.00  0.00     0.017 A 
HETATM    3  C   UNL     1      67.395   4.215   8.192  1.00  0.00    -0.033 A 
HETATM    4  C   UNL     1      67.435   6.503   8.994  1.00  0.00     0.001 A 
HETATM    5  C   UNL     1      66.529   6.876   8.000  1.00  0.00     0.009 A 
HETATM    6  C   UNL     1      67.865   5.180   9.090  1.00  0.00     0.009 A 
ENDROOT
BRANCH   1   7
HETATM    7  C   UNL     1      65.022   6.312   6.033  1.00  0.00     0.273 C 
BRANCH   7   8
HETATM    8  N   UNL     1      64.317   7.590   6.170  1.00  0.00    -0.067 N 
HETATM    9  C   UNL     1      62.858   7.508   6.181  1.00  0.00     0.235 C 
HETATM   10  C   UNL     1      62.419   7.818   4.763  1.00  0.00     0.029 C 
HETATM   11  C   UNL     1      63.503   8.732   4.219  1.00  0.00     0.029 C 
HETATM   12  C   UNL     1      64.675   8.609   5.186  1.00  0.00     0.235 C 
HETATM   13  H   UNL     1      64.649   7.872   7.092  1.00  0.00     0.280 HD
ENDBRANCH   7   8
ENDBRANCH   1   7
BRANCH   3  14
HETATM   14  C   UNL     1      67.832   2.776   8.303  1.00  0.00     0.268 C 
BRANCH  14  15
HETATM   15  N   UNL     1      67.450   2.205   9.590  1.00  0.00    -0.075 N 
HETATM   16  H   UNL     1      67.864   1.278   9.687  1.00  0.00     0.274 HD
HETATM   17  H   UNL     1      66.434   2.132   9.641  1.00  0.00     0.274 HD
HETATM   18  H   UNL     1      67.786   2.808  10.341  1.00  0.00     0.274 HD
ENDBRANCH  14  15
ENDBRANCH   3  14
TORSDOF 4
ENDMDL
MODEL 7
REMARK VINA RESULT:      -4.2      5.126      6.557
REMARK  4 active torsions:
REMARK  status: ('A' for Active; 'I' for Inactive)
REMARK    1  A    between atoms: N_1  and  C_2 
REMARK    2  A    between atoms: C_2  and  C_3 
REMARK    3  A    between atoms: C_5  and  C_11 
REMARK    4  A    between atoms: N_6  and  C_11 
ROOT
HETATM    1  C   UNL     1      61.044   8.005   3.041  1.00  0.00    -0.032 A 
HETATM    2  C   UNL     1      61.448   8.977   3.972  1.00  0.00     0.017 A 
HETATM    3  C   UNL     1      61.938  10.226   3.560  1.00  0.00    -0.033 A 
HETATM    4  C   UNL     1      61.650   9.537   1.253  1.00  0.00     0.001 A 
HETATM    5  C   UNL     1      61.151   8.303   1.676  1.00  0.00     0.009 A 
HETATM    6  C   UNL     1      62.041  10.493   2.190  1.00  0.00     0.009 A 
ENDROOT
BRANCH   1   7
HETATM    7  C   UNL     1      60.453   6.694   3.514  1.00  0.00     0.273 C 
BRANCH   7   8
HETATM    8  N   UNL     1      59.050   6.404   3.202  1.00  0.00    -0.067 N 
HETATM    9  C   UNL     1      58.106   7.486   3.474  1.00  0.00     0.235 C 
HETATM   10  C   UNL     1      57.503   7.173   4.831  1.00  0.00     0.029 C 
HETATM   11  C   UNL     1      57.560   5.659   4.933  1.00  0.00     0.029 C 
HETATM   12  C   UNL     1      58.507   5.202   3.830  1.00  0.00     0.235 C 
HETATM   13  H   UNL     1      59.124   6.262   2.195  1.00  0.00     0.280 HD
ENDBRANCH   7   8
ENDBRANCH   1   7
BRANCH   3  14
HETATM   14  C   UNL     1      62.332  11.263   4.582  1.00  0.00     0.268 C 
BRANCH  14  15
HETATM   15  N   UNL     1      63.059  10.661   5.694  1.00  0.00    -0.075 N 
HETATM   16  H   UNL     1      62.394  10.308   6.383  1.00  0.00     0.274 HD
HETATM   17  H   UNL     1      63.658  11.362   6.127  1.00  0.00     0.274 HD
HETATM   18  H   UNL     1      63.631   9.891   5.348  1.00  0.00     0.274 HD
ENDBRANCH  14  15
ENDBRANCH   3  14
TORSDOF 4
ENDMDL
MODEL 8
REMARK VINA RESULT:      -3.9      4.240      6.516
REMARK  4 active torsions:
REMARK  status: ('A' for Active; 'I' for Inactive)
REMARK    1  A    between atoms: N_1  and  C_2 
REMARK    2  A    between atoms: C_2  and  C_3 
REMARK    3  A    between atoms: C_5  and  C_11 
REMARK    4  A    between atoms: N_6  and  C_11 
ROOT
HETATM    1  C   UNL     1      62.300   8.777   1.928  1.00  0.00    -0.032 A 
HETATM    2  C   UNL     1      62.677   8.800   3.282  1.00  0.00     0.017 A 
HETATM    3  C   UNL     1      62.580   9.972   4.049  1.00  0.00    -0.033 A 
HETATM    4  C   UNL     1      61.745  11.137   2.094  1.00  0.00     0.001 A 
HETATM    5  C   UNL     1      61.832   9.962   1.346  1.00  0.00     0.009 A 
HETATM    6  C   UNL     1      62.117  11.142   3.438  1.00  0.00     0.009 A 
ENDROOT
BRANCH   1   7
HETATM    7  C   UNL     1      62.347   7.482   1.145  1.00  0.00     0.273 C 
BRANCH   7   8
HETATM    8  N   UNL     1      61.143   6.646   1.099  1.00  0.00    -0.067 N 
HETATM    9  C   UNL     1      60.088   7.108   0.200  1.00  0.00     0.235 C 
HETATM   10  C   UNL     1      59.105   7.862   1.075  1.00  0.00     0.029 C 
HETATM   11  C   UNL     1      59.232   7.210   2.442  1.00  0.00     0.029 C 
HETATM   12  C   UNL     1      60.514   6.387   2.391  1.00  0.00     0.235 C 
HETATM   13  H   UNL     1      61.547   5.783   0.734  1.00  0.00     0.280 HD
ENDBRANCH   7   8
ENDBRANCH   1   7
BRANCH   3  14
HETATM   14  C   UNL     1      62.959   9.958   5.508  1.00  0.00     0.268 C 
BRANCH  14  15
HETATM   15  N   UNL     1      63.291  11.297   5.981  1.00  0.00    -0.075 N 
HETATM   16  H   UNL     1      63.578  11.252   6.959  1.00  0.00     0.274 HD
HETATM   17  H   UNL     1      62.474  11.901   5.894  1.00  0.00     0.274 HD
HETATM   18  H   UNL     1      64.055  11.675   5.421  1.00  0.00     0.274 HD
ENDBRANCH  14  15
ENDBRANCH   3  14
TORSDOF 4
ENDMDL
MODEL 9
REMARK VINA RESULT:      -3.8      1.789      2.468
REMARK  4 active torsions:
REMARK  status: ('A' for Active; 'I' for Inactive)
REMARK    1  A    between atoms: N_1  and  C_2 
REMARK    2  A    between atoms: C_2  and  C_3 
REMARK    3  A    between atoms: C_5  and  C_11 
REMARK    4  A    between atoms: N_6  and  C_11 
ROOT
HETATM    1  C   UNL     1      64.861   7.620   4.318  1.00  0.00    -0.032 A 
HETATM    2  C   UNL     1      63.763   7.225   3.536  1.00  0.00     0.017 A 
HETATM    3  C   UNL     1      62.576   7.974   3.509  1.00  0.00    -0.033 A 
HETATM    4  C   UNL     1      63.566   9.528   5.085  1.00  0.00     0.001 A 
HETATM    5  C   UNL     1      64.746   8.783   5.091  1.00  0.00     0.009 A 
HETATM    6  C   UNL     1      62.487   9.127   4.298  1.00  0.00     0.009 A 
ENDROOT
BRANCH   1   7
HETATM    7  C   UNL     1      66.154   6.833   4.272  1.00  0.00     0.273 C 
BRANCH   7   8
HETATM    8  N   UNL     1      66.479   5.951   5.397  1.00  0.00    -0.067 N 
HETATM    9  C   UNL     1      65.361   5.604   6.271  1.00  0.00     0.235 C 
HETATM   10  C   UNL     1      65.449   6.557   7.448  1.00  0.00     0.029 C 
HETATM   11  C   UNL     1      66.928   6.882   7.567  1.00  0.00     0.029 C 
HETATM   12  C   UNL     1      67.562   6.416   6.261  1.00  0.00     0.235 C 
HETATM   13  H   UNL     1      66.780   5.122   4.884  1.00  0.00     0.280 HD
ENDBRANCH   7   8
ENDBRANCH   1   7
BRANCH   3  14
HETATM   14  C   UNL     1      61.426   7.545   2.633  1.00  0.00     0.268 C 
BRANCH  14  15
HETATM   15  N   UNL     1      60.249   8.376   2.861  1.00  0.00    -0.075 N 
HETATM   16  H   UNL     1      59.478   8.040   2.284  1.00  0.00     0.274 HD
HETATM   17  H   UNL     1      60.462   9.342   2.616  1.00  0.00     0.274 HD
HETATM   18  H   UNL     1      59.983   8.326   3.845  1.00  0.00     0.274 HD
ENDBRANCH  14  15
ENDBRANCH   3  14
TORSDOF 4
ENDMDL
