MODEL 1
REMARK VINA RESULT:      -5.6      0.000      0.000
REMARK  4 active torsions:
REMARK  status: ('A' for Active; 'I' for Inactive)
REMARK    1  A    between atoms: N_1  and  C_7 
REMARK    2  A    between atoms: C_7  and  C_8 
REMARK    3  A    between atoms: C_9  and  C_15 
REMARK    4  A    between atoms: O_14  and  C_15 
ROOT
HETATM    1  C   UNL     1      62.097   9.531   2.150  1.00  0.00    -0.038 A 
HETATM    2  C   UNL     1      62.628  10.628   4.699  1.00  0.00    -0.035 A 
HETATM    3  C   UNL     1      61.769  10.863   2.439  1.00  0.00     0.009 A 
HETATM    4  C   UNL     1      62.695   8.753   3.150  1.00  0.00     0.009 A 
HETATM    5  C   UNL     1      62.955   9.296   4.411  1.00  0.00     0.010 A 
HETATM    6  C   UNL     1      62.026  11.405   3.701  1.00  0.00     0.010 A 
ENDROOT
BRANCH   1   7
HETATM    7  C   UNL     1      61.831   8.963   0.779  1.00  0.00     0.186 C 
BRANCH   7   8
HETATM    8  N   UNL     1      60.683   8.067   0.773  1.00  0.00    -0.299 N 
HETATM    9  N   UNL     1      59.438   8.555   0.972  1.00  0.00    -0.310 N 
HETATM   10  C   UNL     1      58.666   7.466   0.946  1.00  0.00     0.108 A 
ATOM     11  HN  UNL     1      59.157   9.525   1.109  1.00  0.00     0.186 HD
HETATM   12  C   UNL     1      59.406   6.284   0.770  1.00  0.00     0.037 A 
HETATM   13  C   UNL     1      60.712   6.703   0.674  1.00  0.00     0.112 A 
ENDBRANCH   7   8
ENDBRANCH   1   7
BRANCH   2  14
HETATM   14  C   UNL     1      62.944  11.215   6.048  1.00  0.00     0.202 C 
BRANCH  14  15
HETATM   15  O   UNL     1      64.346  11.376   6.211  1.00  0.00    -0.396 OA
HETATM   16  H   UNL     1      64.615  12.242   5.864  1.00  0.00     0.209 HD
ENDBRANCH  14  15
ENDBRANCH   2  14
TORSDOF 4
ENDMDL
MODEL 2
REMARK VINA RESULT:      -5.0      3.866      5.892
REMARK  4 active torsions:
REMARK  status: ('A' for Active; 'I' for Inactive)
REMARK    1  A    between atoms: N_1  and  C_7 
REMARK    2  A    between atoms: C_7  and  C_8 
REMARK    3  A    between atoms: C_9  and  C_15 
REMARK    4  A    between atoms: O_14  and  C_15 
ROOT
HETATM    1  C   UNL     1      63.065   8.040   4.733  1.00  0.00    -0.038 A 
HETATM    2  C   UNL     1      62.181   9.847   2.748  1.00  0.00    -0.035 A 
HETATM    3  C   UNL     1      62.906   7.623   3.404  1.00  0.00     0.009 A 
HETATM    4  C   UNL     1      62.777   9.373   5.059  1.00  0.00     0.009 A 
HETATM    5  C   UNL     1      62.338  10.264   4.077  1.00  0.00     0.010 A 
HETATM    6  C   UNL     1      62.464   8.514   2.423  1.00  0.00     0.010 A 
ENDROOT
BRANCH   1   7
HETATM    7  C   UNL     1      63.560   7.074   5.779  1.00  0.00     0.186 C 
BRANCH   7   8
HETATM    8  N   UNL     1      64.968   7.280   6.088  1.00  0.00    -0.299 N 
HETATM    9  N   UNL     1      65.417   7.123   7.353  1.00  0.00    -0.310 N 
HETATM   10  C   UNL     1      66.714   7.430   7.268  1.00  0.00     0.108 A 
ATOM     11  HN  UNL     1      64.890   6.837   8.178  1.00  0.00     0.186 HD
HETATM   12  C   UNL     1      67.091   7.818   5.969  1.00  0.00     0.037 A 
HETATM   13  C   UNL     1      65.937   7.724   5.229  1.00  0.00     0.112 A 
ENDBRANCH   7   8
ENDBRANCH   1   7
BRANCH   2  14
HETATM   14  C   UNL     1      61.742  10.823   1.691  1.00  0.00     0.202 C 
BRANCH  14  15
HETATM   15  O   UNL     1      62.098  12.150   2.051  1.00  0.00    -0.396 OA
HETATM   16  H   UNL     1      62.231  12.679   1.249  1.00  0.00     0.209 HD
ENDBRANCH  14  15
ENDBRANCH   2  14
TORSDOF 4
ENDMDL
MODEL 3
REMARK VINA RESULT:      -4.9      4.850      6.671
REMARK  4 active torsions:
REMARK  status: ('A' for Active; 'I' for Inactive)
REMARK    1  A    between atoms: N_1  and  C_7 
REMARK    2  A    between atoms: C_7  and  C_8 
REMARK    3  A    between atoms: C_9  and  C_15 
REMARK    4  A    between atoms: O_14  and  C_15 
ROOT
HETATM    1  C   UNL     1      65.286   7.655   4.701  1.00  0.00    -0.038 A 
HETATM    2  C   UNL     1      62.769   8.590   3.821  1.00  0.00    -0.035 A 
HETATM    3  C   UNL     1      64.698   8.787   5.284  1.00  0.00     0.009 A 
HETATM    4  C   UNL     1      64.600   6.995   3.672  1.00  0.00     0.009 A 
HETATM    5  C   UNL     1      63.356   7.460   3.237  1.00  0.00     0.010 A 
HETATM    6  C   UNL     1      63.456   9.253   4.845  1.00  0.00     0.010 A 
ENDROOT
BRANCH   1   7
HETATM    7  C   UNL     1      66.618   7.151   5.195  1.00  0.00     0.186 C 
BRANCH   7   8
HETATM    8  N   UNL     1      66.565   6.751   6.595  1.00  0.00    -0.299 N 
HETATM    9  N   UNL     1      67.222   7.468   7.533  1.00  0.00    -0.310 N 
HETATM   10  C   UNL     1      66.990   6.796   8.663  1.00  0.00     0.108 A 
ATOM     11  HN  UNL     1      67.767   8.321   7.407  1.00  0.00     0.186 HD
HETATM   12  C   UNL     1      66.222   5.637   8.453  1.00  0.00     0.037 A 
HETATM   13  C   UNL     1      65.972   5.627   7.100  1.00  0.00     0.112 A 
ENDBRANCH   7   8
ENDBRANCH   1   7
BRANCH   2  14
HETATM   14  C   UNL     1      61.413   9.062   3.370  1.00  0.00     0.202 C 
BRANCH  14  15
HETATM   15  O   UNL     1      61.176  10.395   3.798  1.00  0.00    -0.396 OA
HETATM   16  H   UNL     1      61.726  11.004   3.280  1.00  0.00     0.209 HD
ENDBRANCH  14  15
ENDBRANCH   2  14
TORSDOF 4
ENDMDL
MODEL 4
REMARK VINA RESULT:      -4.6      2.933      4.363
REMARK  4 active torsions:
REMARK  status: ('A' for Active; 'I' for Inactive)
REMARK    1  A    between atoms: N_1  and  C_7 
REMARK    2  A    between atoms: C_7  and  C_8 
REMARK    3  A    between atoms: C_9  and  C_15 
REMARK    4  A    between atoms: O_14  and  C_15 
ROOT
HETATM    1  C   UNL     1      63.247   7.666   4.315  1.00  0.00    -0.038 A 
HETATM    2  C   UNL     1      65.241   7.160   6.253  1.00  0.00    -0.035 A 
HETATM    3  C   UNL     1      62.911   7.131   5.567  1.00  0.00     0.009 A 
HETATM    4  C   UNL     1      64.593   7.947   4.043  1.00  0.00     0.009 A 
HETATM    5  C   UNL     1      65.578   7.694   5.002  1.00  0.00     0.010 A 
HETATM    6  C   UNL     1      63.896   6.875   6.523  1.00  0.00     0.010 A 
ENDROOT
BRANCH   1   7
HETATM    7  C   UNL     1      62.172   7.955   3.298  1.00  0.00     0.186 C 
BRANCH   7   8
HETATM    8  N   UNL     1      62.070   9.377   3.002  1.00  0.00    -0.299 N 
HETATM    9  N   UNL     1      61.965  10.275   4.007  1.00  0.00    -0.310 N 
HETATM   10  C   UNL     1      61.848  11.445   3.374  1.00  0.00     0.108 A 
ATOM     11  HN  UNL     1      61.974  10.100   5.012  1.00  0.00     0.186 HD
HETATM   12  C   UNL     1      61.838  11.301   1.974  1.00  0.00     0.037 A 
HETATM   13  C   UNL     1      61.971   9.949   1.763  1.00  0.00     0.112 A 
ENDBRANCH   7   8
ENDBRANCH   1   7
BRANCH   2  14
HETATM   14  C   UNL     1      66.303   6.925   7.292  1.00  0.00     0.202 C 
BRANCH  14  15
HETATM   15  O   UNL     1      67.152   8.057   7.410  1.00  0.00    -0.396 OA
HETATM   16  H   UNL     1      68.069   7.763   7.529  1.00  0.00     0.209 HD
ENDBRANCH  14  15
ENDBRANCH   2  14
TORSDOF 4
ENDMDL
MODEL 5
REMARK VINA RESULT:      -4.5      3.695      4.868
REMARK  4 active torsions:
REMARK  status: ('A' for Active; 'I' for Inactive)
REMARK    1  A    between atoms: N_1  and  C_7 
REMARK    2  A    between atoms: C_7  and  C_8 
REMARK    3  A    between atoms: C_9  and  C_15 
REMARK    4  A    between atoms: O_14  and  C_15 
ROOT
HETATM    1  C   UNL     1      63.220   8.249   4.885  1.00  0.00    -0.038 A 
HETATM    2  C   UNL     1      62.219   9.905   2.826  1.00  0.00    -0.035 A 
HETATM    3  C   UNL     1      63.139   7.782   3.565  1.00  0.00     0.009 A 
HETATM    4  C   UNL     1      62.795   9.555   5.164  1.00  0.00     0.009 A 
HETATM    5  C   UNL     1      62.298  10.372   4.145  1.00  0.00     0.010 A 
HETATM    6  C   UNL     1      62.639   8.598   2.548  1.00  0.00     0.010 A 
ENDROOT
BRANCH   1   7
HETATM    7  C   UNL     1      63.778   7.364   5.971  1.00  0.00     0.186 C 
BRANCH   7   8
HETATM    8  N   UNL     1      62.936   6.201   6.214  1.00  0.00    -0.299 N 
HETATM    9  N   UNL     1      61.625   6.358   6.502  1.00  0.00    -0.310 N 
HETATM   10  C   UNL     1      61.195   5.110   6.702  1.00  0.00     0.108 A 
ATOM     11  HN  UNL     1      61.091   7.225   6.553  1.00  0.00     0.186 HD
HETATM   12  C   UNL     1      62.225   4.159   6.583  1.00  0.00     0.037 A 
HETATM   13  C   UNL     1      63.345   4.897   6.279  1.00  0.00     0.112 A 
ENDBRANCH   7   8
ENDBRANCH   1   7
BRANCH   2  14
HETATM   14  C   UNL     1      61.716  10.804   1.730  1.00  0.00     0.202 C 
BRANCH  14  15
HETATM   15  O   UNL     1      62.117  12.148   1.956  1.00  0.00    -0.396 OA
HETATM   16  H   UNL     1      61.378  12.645   2.342  1.00  0.00     0.209 HD
ENDBRANCH  14  15
ENDBRANCH   2  14
TORSDOF 4
ENDMDL
MODEL 6
REMARK VINA RESULT:      -4.3      3.772      5.735
REMARK  4 active torsions:
REMARK  status: ('A' for Active; 'I' for Inactive)
REMARK    1  A    between atoms: N_1  and  C_7 
REMARK    2  A    between atoms: C_7  and  C_8 
REMARK    3  A    between atoms: C_9  and  C_15 
REMARK    4  A    between atoms: O_14  and  C_15 
ROOT
HETATM    1  C   UNL     1      62.056   9.055   3.694  1.00  0.00    -0.038 A 
HETATM    2  C   UNL     1      60.540   8.261   1.446  1.00  0.00    -0.035 A 
HETATM    3  C   UNL     1      61.100   8.034   3.798  1.00  0.00     0.009 A 
HETATM    4  C   UNL     1      62.245   9.675   2.452  1.00  0.00     0.009 A 
HETATM    5  C   UNL     1      61.493   9.283   1.341  1.00  0.00     0.010 A 
HETATM    6  C   UNL     1      60.347   7.645   2.688  1.00  0.00     0.010 A 
ENDROOT
BRANCH   1   7
HETATM    7  C   UNL     1      62.876   9.454   4.895  1.00  0.00     0.186 C 
BRANCH   7   8
HETATM    8  N   UNL     1      63.757   8.380   5.334  1.00  0.00    -0.299 N 
HETATM    9  N   UNL     1      63.480   7.692   6.464  1.00  0.00    -0.310 N 
HETATM   10  C   UNL     1      64.502   6.840   6.573  1.00  0.00     0.108 A 
ATOM     11  HN  UNL     1      62.679   7.799   7.086  1.00  0.00     0.186 HD
HETATM   12  C   UNL     1      65.449   7.001   5.545  1.00  0.00     0.037 A 
HETATM   13  C   UNL     1      64.946   8.015   4.765  1.00  0.00     0.112 A 
ENDBRANCH   7   8
ENDBRANCH   1   7
BRANCH   2  14
HETATM   14  C   UNL     1      59.760   7.821   0.237  1.00  0.00     0.202 C 
BRANCH  14  15
HETATM   15  O   UNL     1      58.504   7.277   0.617  1.00  0.00    -0.396 OA
HETATM   16  H   UNL     1      57.794   7.873   0.330  1.00  0.00     0.209 HD
ENDBRANCH  14  15
ENDBRANCH   2  14
TORSDOF 4
ENDMDL
MODEL 7
REMARK VINA RESULT:      -4.3      2.644      3.328
REMARK  4 active torsions:
REMARK  status: ('A' for Active; 'I' for Inactive)
REMARK    1  A    between atoms: N_1  and  C_7 
REMARK    2  A    between atoms: C_7  and  C_8 
REMARK    3  A    between atoms: C_9  and  C_15 
REMARK    4  A    between atoms: O_14  and  C_15 
ROOT
HETATM    1  C   UNL     1      62.994   7.817   3.179  1.00  0.00    -0.038 A 
HETATM    2  C   UNL     1      65.275   7.841   4.846  1.00  0.00    -0.035 A 
HETATM    3  C   UNL     1      63.967   6.812   3.077  1.00  0.00     0.009 A 
HETATM    4  C   UNL     1      63.174   8.835   4.126  1.00  0.00     0.009 A 
HETATM    5  C   UNL     1      64.304   8.847   4.948  1.00  0.00     0.010 A 
HETATM    6  C   UNL     1      65.098   6.827   3.897  1.00  0.00     0.010 A 
ENDROOT
BRANCH   1   7
HETATM    7  C   UNL     1      61.768   7.780   2.302  1.00  0.00     0.186 C 
BRANCH   7   8
HETATM    8  N   UNL     1      60.581   7.374   3.040  1.00  0.00    -0.299 N 
HETATM    9  N   UNL     1      59.496   8.178   3.081  1.00  0.00    -0.310 N 
HETATM   10  C   UNL     1      58.642   7.518   3.866  1.00  0.00     0.108 A 
ATOM     11  HN  UNL     1      59.362   9.078   2.620  1.00  0.00     0.186 HD
HETATM   12  C   UNL     1      59.183   6.316   4.359  1.00  0.00     0.037 A 
HETATM   13  C   UNL     1      60.445   6.255   3.817  1.00  0.00     0.112 A 
ENDBRANCH   7   8
ENDBRANCH   1   7
BRANCH   2  14
HETATM   14  C   UNL     1      66.470   7.843   5.760  1.00  0.00     0.202 C 
BRANCH  14  15
HETATM   15  O   UNL     1      66.403   8.926   6.676  1.00  0.00    -0.396 OA
HETATM   16  H   UNL     1      65.516   8.964   7.068  1.00  0.00     0.209 HD
ENDBRANCH  14  15
ENDBRANCH   2  14
TORSDOF 4
ENDMDL
MODEL 8
REMARK VINA RESULT:      -4.2      1.845      2.410
REMARK  4 active torsions:
REMARK  status: ('A' for Active; 'I' for Inactive)
REMARK    1  A    between atoms: N_1  and  C_7 
REMARK    2  A    between atoms: C_7  and  C_8 
REMARK    3  A    between atoms: C_9  and  C_15 
REMARK    4  A    between atoms: O_14  and  C_15 
ROOT
HETATM    1  C   UNL     1      62.407   8.517   2.761  1.00  0.00    -0.038 A 
HETATM    2  C   UNL     1      64.456   8.056   4.652  1.00  0.00    -0.035 A 
HETATM    3  C   UNL     1      62.626   9.417   3.813  1.00  0.00     0.009 A 
HETATM    4  C   UNL     1      63.225   7.383   2.664  1.00  0.00     0.009 A 
HETATM    5  C   UNL     1      64.236   7.155   3.601  1.00  0.00     0.010 A 
HETATM    6  C   UNL     1      63.635   9.187   4.751  1.00  0.00     0.010 A 
ENDROOT
BRANCH   1   7
HETATM    7  C   UNL     1      61.327   8.785   1.744  1.00  0.00     0.186 C 
BRANCH   7   8
HETATM    8  N   UNL     1      60.078   8.119   2.086  1.00  0.00    -0.299 N 
HETATM    9  N   UNL     1      59.054   8.098   1.205  1.00  0.00    -0.310 N 
HETATM   10  C   UNL     1      58.085   7.457   1.863  1.00  0.00     0.108 A 
ATOM     11  HN  UNL     1      59.028   8.481   0.260  1.00  0.00     0.186 HD
HETATM   12  C   UNL     1      58.465   7.100   3.169  1.00  0.00     0.037 A 
HETATM   13  C   UNL     1      59.757   7.554   3.291  1.00  0.00     0.112 A 
ENDBRANCH   7   8
ENDBRANCH   1   7
BRANCH   2  14
HETATM   14  C   UNL     1      65.570   7.822   5.635  1.00  0.00     0.202 C 
BRANCH  14  15
HETATM   15  O   UNL     1      65.893   9.021   6.325  1.00  0.00    -0.396 OA
HETATM   16  H   UNL     1      65.644   9.785   5.782  1.00  0.00     0.209 HD
ENDBRANCH  14  15
ENDBRANCH   2  14
TORSDOF 4
ENDMDL
MODEL 9
REMARK VINA RESULT:      -4.2      3.953      5.813
REMARK  4 active torsions:
REMARK  status: ('A' for Active; 'I' for Inactive)
REMARK    1  A    between atoms: N_1  and  C_7 
REMARK    2  A    between atoms: C_7  and  C_8 
REMARK    3  A    between atoms: C_9  and  C_15 
REMARK    4  A    between atoms: O_14  and  C_15 
ROOT
HETATM    1  C   UNL     1      62.200   8.006   4.407  1.00  0.00    -0.038 A 
HETATM    2  C   UNL     1      60.712   8.091   2.006  1.00  0.00    -0.035 A 
HETATM    3  C   UNL     1      62.378   9.052   3.490  1.00  0.00     0.009 A 
HETATM    4  C   UNL     1      61.268   7.002   4.110  1.00  0.00     0.009 A 
HETATM    5  C   UNL     1      60.534   7.044   2.922  1.00  0.00     0.010 A 
HETATM    6  C   UNL     1      61.647   9.091   2.301  1.00  0.00     0.010 A 
ENDROOT
BRANCH   1   7
HETATM    7  C   UNL     1      62.982   7.983   5.696  1.00  0.00     0.186 C 
BRANCH   7   8
HETATM    8  N   UNL     1      64.396   7.716   5.471  1.00  0.00    -0.299 N 
HETATM    9  N   UNL     1      65.336   8.511   6.028  1.00  0.00    -0.310 N 
HETATM   10  C   UNL     1      66.486   8.003   5.578  1.00  0.00     0.108 A 
ATOM     11  HN  UNL     1      65.199   9.311   6.647  1.00  0.00     0.186 HD
HETATM   12  C   UNL     1      66.290   6.915   4.709  1.00  0.00     0.037 A 
HETATM   13  C   UNL     1      64.925   6.759   4.648  1.00  0.00     0.112 A 
ENDBRANCH   7   8
ENDBRANCH   1   7
BRANCH   2  14
HETATM   14  C   UNL     1      59.892   8.147   0.746  1.00  0.00     0.202 C 
BRANCH  14  15
HETATM   15  O   UNL     1      58.597   8.668   1.011  1.00  0.00    -0.396 OA
HETATM   16  H   UNL     1      58.355   9.302   0.317  1.00  0.00     0.209 HD
ENDBRANCH  14  15
ENDBRANCH   2  14
TORSDOF 4
ENDMDL
