MODEL 1
REMARK VINA RESULT:      -5.1      0.000      0.000
REMARK  4 active torsions:
REMARK  status: ('A' for Active; 'I' for Inactive)
REMARK    1  A    between atoms: N_1  and  C_7 
REMARK    2  A    between atoms: C_7  and  C_8 
REMARK    3  A    between atoms: C_10  and  C_14 
REMARK    4  A    between atoms: N_11  and  C_14 
ROOT
HETATM    1  C   UNL     1      65.338   7.745   4.792  1.00  0.00    -0.038 A 
HETATM    2  C   UNL     1      64.730   8.909   5.290  1.00  0.00     0.017 A 
HETATM    3  C   UNL     1      63.491   9.348   4.797  1.00  0.00    -0.033 A 
HETATM    4  C   UNL     1      63.441   7.425   3.314  1.00  0.00     0.001 A 
HETATM    5  C   UNL     1      64.675   7.002   3.804  1.00  0.00     0.009 A 
HETATM    6  C   UNL     1      62.854   8.592   3.805  1.00  0.00     0.009 A 
ENDROOT
BRANCH   1   7
HETATM    7  C   UNL     1      66.678   7.304   5.323  1.00  0.00     0.186 C 
BRANCH   7   8
HETATM    8  N   UNL     1      66.593   6.824   6.695  1.00  0.00    -0.299 N 
HETATM    9  N   UNL     1      67.177   7.520   7.696  1.00  0.00    -0.310 N 
HETATM   10  C   UNL     1      66.940   6.774   8.778  1.00  0.00     0.108 A 
ATOM     11  HN  UNL     1      67.679   8.406   7.639  1.00  0.00     0.186 HD
HETATM   12  C   UNL     1      66.246   5.589   8.473  1.00  0.00     0.037 A 
HETATM   13  C   UNL     1      66.047   5.642   7.114  1.00  0.00     0.112 A 
ENDBRANCH   7   8
ENDBRANCH   1   7
BRANCH   3  14
HETATM   14  C   UNL     1      62.850  10.602   5.335  1.00  0.00     0.268 C 
BRANCH  14  15
HETATM   15  N   UNL     1      63.760  11.335   6.212  1.00  0.00    -0.075 N 
HETATM   16  H   UNL     1      63.739  10.923   7.145  1.00  0.00     0.274 HD
HETATM   17  H   UNL     1      63.469  12.311   6.265  1.00  0.00     0.274 HD
HETATM   18  H   UNL     1      64.708  11.282   5.838  1.00  0.00     0.274 HD
ENDBRANCH  14  15
ENDBRANCH   3  14
TORSDOF 4
ENDMDL
MODEL 2
REMARK VINA RESULT:      -5.1      2.312      3.549
REMARK  4 active torsions:
REMARK  status: ('A' for Active; 'I' for Inactive)
REMARK    1  A    between atoms: N_1  and  C_7 
REMARK    2  A    between atoms: C_7  and  C_8 
REMARK    3  A    between atoms: C_10  and  C_14 
REMARK    4  A    between atoms: N_11  and  C_14 
ROOT
HETATM    1  C   UNL     1      63.047   8.824   4.771  1.00  0.00    -0.038 A 
HETATM    2  C   UNL     1      62.617   8.573   3.457  1.00  0.00     0.017 A 
HETATM    3  C   UNL     1      62.056   9.590   2.670  1.00  0.00    -0.033 A 
HETATM    4  C   UNL     1      62.383  11.143   4.509  1.00  0.00     0.001 A 
HETATM    5  C   UNL     1      62.932  10.124   5.285  1.00  0.00     0.009 A 
HETATM    6  C   UNL     1      61.945  10.878   3.211  1.00  0.00     0.009 A 
ENDROOT
BRANCH   1   7
HETATM    7  C   UNL     1      63.629   7.712   5.604  1.00  0.00     0.186 C 
BRANCH   7   8
HETATM    8  N   UNL     1      65.080   7.647   5.495  1.00  0.00    -0.299 N 
HETATM    9  N   UNL     1      65.859   8.249   6.421  1.00  0.00    -0.310 N 
HETATM   10  C   UNL     1      67.101   8.028   5.980  1.00  0.00     0.108 A 
ATOM     11  HN  UNL     1      65.568   8.752   7.260  1.00  0.00     0.186 HD
HETATM   12  C   UNL     1      67.121   7.327   4.761  1.00  0.00     0.037 A 
HETATM   13  C   UNL     1      65.797   7.106   4.464  1.00  0.00     0.112 A 
ENDBRANCH   7   8
ENDBRANCH   1   7
BRANCH   3  14
HETATM   14  C   UNL     1      61.593   9.307   1.263  1.00  0.00     0.268 C 
BRANCH  14  15
HETATM   15  N   UNL     1      60.245   8.746   1.246  1.00  0.00    -0.075 N 
HETATM   16  H   UNL     1      59.652   9.305   0.633  1.00  0.00     0.274 HD
HETATM   17  H   UNL     1      59.861   8.756   2.191  1.00  0.00     0.274 HD
HETATM   18  H   UNL     1      60.281   7.786   0.903  1.00  0.00     0.274 HD
ENDBRANCH  14  15
ENDBRANCH   3  14
TORSDOF 4
ENDMDL
MODEL 3
REMARK VINA RESULT:      -4.9      3.832      6.695
REMARK  4 active torsions:
REMARK  status: ('A' for Active; 'I' for Inactive)
REMARK    1  A    between atoms: N_1  and  C_7 
REMARK    2  A    between atoms: C_7  and  C_8 
REMARK    3  A    between atoms: C_10  and  C_14 
REMARK    4  A    between atoms: N_11  and  C_14 
ROOT
HETATM    1  C   UNL     1      62.230   9.454   2.244  1.00  0.00    -0.038 A 
HETATM    2  C   UNL     1      62.887   8.550   3.095  1.00  0.00     0.017 A 
HETATM    3  C   UNL     1      63.186   8.890   4.423  1.00  0.00    -0.033 A 
HETATM    4  C   UNL     1      62.132  11.050   4.069  1.00  0.00     0.001 A 
HETATM    5  C   UNL     1      61.847  10.705   2.749  1.00  0.00     0.009 A 
HETATM    6  C   UNL     1      62.799  10.149   4.900  1.00  0.00     0.009 A 
ENDROOT
BRANCH   1   7
HETATM    7  C   UNL     1      61.937   9.075   0.815  1.00  0.00     0.186 C 
BRANCH   7   8
HETATM    8  N   UNL     1      60.783   8.193   0.708  1.00  0.00    -0.299 N 
HETATM    9  N   UNL     1      59.558   8.627   1.080  1.00  0.00    -0.310 N 
HETATM   10  C   UNL     1      58.776   7.560   0.895  1.00  0.00     0.108 A 
ATOM     11  HN  UNL     1      59.294   9.552   1.420  1.00  0.00     0.186 HD
HETATM   12  C   UNL     1      59.495   6.438   0.447  1.00  0.00     0.037 A 
HETATM   13  C   UNL     1      60.796   6.873   0.349  1.00  0.00     0.112 A 
ENDBRANCH   7   8
ENDBRANCH   1   7
BRANCH   3  14
HETATM   14  C   UNL     1      63.896   7.913   5.326  1.00  0.00     0.268 C 
BRANCH  14  15
HETATM   15  N   UNL     1      63.135   7.662   6.547  1.00  0.00    -0.075 N 
HETATM   16  H   UNL     1      63.504   6.833   7.013  1.00  0.00     0.274 HD
HETATM   17  H   UNL     1      62.154   7.511   6.311  1.00  0.00     0.274 HD
HETATM   18  H   UNL     1      63.215   8.467   7.168  1.00  0.00     0.274 HD
ENDBRANCH  14  15
ENDBRANCH   3  14
TORSDOF 4
ENDMDL
MODEL 4
REMARK VINA RESULT:      -4.8      2.166      2.827
REMARK  4 active torsions:
REMARK  status: ('A' for Active; 'I' for Inactive)
REMARK    1  A    between atoms: N_1  and  C_7 
REMARK    2  A    between atoms: C_7  and  C_8 
REMARK    3  A    between atoms: C_10  and  C_14 
REMARK    4  A    between atoms: N_11  and  C_14 
ROOT
HETATM    1  C   UNL     1      63.299   7.470   3.593  1.00  0.00    -0.038 A 
HETATM    2  C   UNL     1      62.898   8.781   3.898  1.00  0.00     0.017 A 
HETATM    3  C   UNL     1      62.328   9.612   2.920  1.00  0.00    -0.033 A 
HETATM    4  C   UNL     1      62.524   7.798   1.317  1.00  0.00     0.001 A 
HETATM    5  C   UNL     1      63.096   6.983   2.293  1.00  0.00     0.009 A 
HETATM    6  C   UNL     1      62.144   9.104   1.627  1.00  0.00     0.009 A 
ENDROOT
BRANCH   1   7
HETATM    7  C   UNL     1      63.927   6.603   4.654  1.00  0.00     0.186 C 
BRANCH   7   8
HETATM    8  N   UNL     1      65.211   7.126   5.098  1.00  0.00    -0.299 N 
HETATM    9  N   UNL     1      65.308   7.781   6.277  1.00  0.00    -0.310 N 
HETATM   10  C   UNL     1      66.591   8.149   6.328  1.00  0.00     0.108 A 
ATOM     11  HN  UNL     1      64.575   7.952   6.965  1.00  0.00     0.186 HD
HETATM   12  C   UNL     1      67.305   7.772   5.176  1.00  0.00     0.037 A 
HETATM   13  C   UNL     1      66.382   7.123   4.391  1.00  0.00     0.112 A 
ENDBRANCH   7   8
ENDBRANCH   1   7
BRANCH   3  14
HETATM   14  C   UNL     1      61.907  11.020   3.258  1.00  0.00     0.268 C 
BRANCH  14  15
HETATM   15  N   UNL     1      61.592  11.786   2.055  1.00  0.00    -0.075 N 
HETATM   16  H   UNL     1      62.358  12.427   1.850  1.00  0.00     0.274 HD
HETATM   17  H   UNL     1      60.735  12.320   2.207  1.00  0.00     0.274 HD
HETATM   18  H   UNL     1      61.461  11.149   1.271  1.00  0.00     0.274 HD
ENDBRANCH  14  15
ENDBRANCH   3  14
TORSDOF 4
ENDMDL
MODEL 5
REMARK VINA RESULT:      -4.7      1.602      5.290
REMARK  4 active torsions:
REMARK  status: ('A' for Active; 'I' for Inactive)
REMARK    1  A    between atoms: N_1  and  C_7 
REMARK    2  A    between atoms: C_7  and  C_8 
REMARK    3  A    between atoms: C_10  and  C_14 
REMARK    4  A    between atoms: N_11  and  C_14 
ROOT
HETATM    1  C   UNL     1      64.641   7.427   5.557  1.00  0.00    -0.038 A 
HETATM    2  C   UNL     1      64.888   6.888   6.831  1.00  0.00     0.017 A 
HETATM    3  C   UNL     1      66.199   6.689   7.293  1.00  0.00    -0.033 A 
HETATM    4  C   UNL     1      67.035   7.608   5.205  1.00  0.00     0.001 A 
HETATM    5  C   UNL     1      65.730   7.794   4.752  1.00  0.00     0.009 A 
HETATM    6  C   UNL     1      67.268   7.057   6.465  1.00  0.00     0.009 A 
ENDROOT
BRANCH   1   7
HETATM    7  C   UNL     1      63.225   7.613   5.074  1.00  0.00     0.186 C 
BRANCH   7   8
HETATM    8  N   UNL     1      62.907   9.015   4.839  1.00  0.00    -0.299 N 
HETATM    9  N   UNL     1      63.151   9.938   5.796  1.00  0.00    -0.310 N 
HETATM   10  C   UNL     1      62.699  11.075   5.260  1.00  0.00     0.108 A 
ATOM     11  HN  UNL     1      63.579   9.799   6.711  1.00  0.00     0.186 HD
HETATM   12  C   UNL     1      62.133  10.880   3.987  1.00  0.00     0.037 A 
HETATM   13  C   UNL     1      62.269   9.534   3.746  1.00  0.00     0.112 A 
ENDBRANCH   7   8
ENDBRANCH   1   7
BRANCH   3  14
HETATM   14  C   UNL     1      66.452   6.105   8.659  1.00  0.00     0.268 C 
BRANCH  14  15
HETATM   15  N   UNL     1      66.279   4.655   8.661  1.00  0.00    -0.075 N 
HETATM   16  H   UNL     1      66.545   4.280   7.751  1.00  0.00     0.274 HD
HETATM   17  H   UNL     1      65.302   4.429   8.849  1.00  0.00     0.274 HD
HETATM   18  H   UNL     1      66.869   4.244   9.385  1.00  0.00     0.274 HD
ENDBRANCH  14  15
ENDBRANCH   3  14
TORSDOF 4
ENDMDL
MODEL 6
REMARK VINA RESULT:      -4.5      3.577      6.137
REMARK  4 active torsions:
REMARK  status: ('A' for Active; 'I' for Inactive)
REMARK    1  A    between atoms: N_1  and  C_7 
REMARK    2  A    between atoms: C_7  and  C_8 
REMARK    3  A    between atoms: C_10  and  C_14 
REMARK    4  A    between atoms: N_11  and  C_14 
ROOT
HETATM    1  C   UNL     1      62.576   8.311   2.492  1.00  0.00    -0.038 A 
HETATM    2  C   UNL     1      62.297   9.505   3.178  1.00  0.00     0.017 A 
HETATM    3  C   UNL     1      62.913   9.796   4.405  1.00  0.00    -0.033 A 
HETATM    4  C   UNL     1      64.131   7.700   4.252  1.00  0.00     0.001 A 
HETATM    5  C   UNL     1      63.508   7.416   3.038  1.00  0.00     0.009 A 
HETATM    6  C   UNL     1      63.834   8.881   4.933  1.00  0.00     0.009 A 
ENDROOT
BRANCH   1   7
HETATM    7  C   UNL     1      61.888   8.010   1.185  1.00  0.00     0.186 C 
BRANCH   7   8
HETATM    8  N   UNL     1      60.529   7.525   1.382  1.00  0.00    -0.299 N 
HETATM    9  N   UNL     1      59.476   8.343   1.160  1.00  0.00    -0.310 N 
HETATM   10  C   UNL     1      58.420   7.591   1.482  1.00  0.00     0.108 A 
ATOM     11  HN  UNL     1      59.486   9.307   0.826  1.00  0.00     0.186 HD
HETATM   12  C   UNL     1      58.789   6.315   1.944  1.00  0.00     0.037 A 
HETATM   13  C   UNL     1      60.162   6.305   1.881  1.00  0.00     0.112 A 
ENDBRANCH   7   8
ENDBRANCH   1   7
BRANCH   3  14
HETATM   14  C   UNL     1      62.601  11.078   5.136  1.00  0.00     0.268 C 
BRANCH  14  15
HETATM   15  N   UNL     1      63.589  11.353   6.177  1.00  0.00    -0.075 N 
HETATM   16  H   UNL     1      63.622  12.357   6.356  1.00  0.00     0.274 HD
HETATM   17  H   UNL     1      64.506  11.033   5.868  1.00  0.00     0.274 HD
HETATM   18  H   UNL     1      63.327  10.863   7.032  1.00  0.00     0.274 HD
ENDBRANCH  14  15
ENDBRANCH   3  14
TORSDOF 4
ENDMDL
MODEL 7
REMARK VINA RESULT:      -4.4      3.976      5.461
REMARK  4 active torsions:
REMARK  status: ('A' for Active; 'I' for Inactive)
REMARK    1  A    between atoms: N_1  and  C_7 
REMARK    2  A    between atoms: C_7  and  C_8 
REMARK    3  A    between atoms: C_10  and  C_14 
REMARK    4  A    between atoms: N_11  and  C_14 
ROOT
HETATM    1  C   UNL     1      62.426   8.854   2.109  1.00  0.00    -0.038 A 
HETATM    2  C   UNL     1      62.713   8.923   3.483  1.00  0.00     0.017 A 
HETATM    3  C   UNL     1      62.526  10.112   4.204  1.00  0.00    -0.033 A 
HETATM    4  C   UNL     1      61.723  11.175   2.173  1.00  0.00     0.001 A 
HETATM    5  C   UNL     1      61.920   9.991   1.463  1.00  0.00     0.009 A 
HETATM    6  C   UNL     1      62.026  11.236   3.533  1.00  0.00     0.009 A 
ENDROOT
BRANCH   1   7
HETATM    7  C   UNL     1      62.654   7.571   1.351  1.00  0.00     0.186 C 
BRANCH   7   8
HETATM    8  N   UNL     1      61.829   6.483   1.856  1.00  0.00    -0.299 N 
HETATM    9  N   UNL     1      60.481   6.564   1.790  1.00  0.00    -0.310 N 
HETATM   10  C   UNL     1      60.069   5.437   2.376  1.00  0.00     0.108 A 
ATOM     11  HN  UNL     1      59.913   7.309   1.387  1.00  0.00     0.186 HD
HETATM   12  C   UNL     1      61.138   4.656   2.851  1.00  0.00     0.037 A 
HETATM   13  C   UNL     1      62.266   5.365   2.512  1.00  0.00     0.112 A 
ENDBRANCH   7   8
ENDBRANCH   1   7
BRANCH   3  14
HETATM   14  C   UNL     1      62.842  10.176   5.677  1.00  0.00     0.268 C 
BRANCH  14  15
HETATM   15  N   UNL     1      63.629  11.362   6.004  1.00  0.00    -0.075 N 
HETATM   16  H   UNL     1      63.566  11.546   7.005  1.00  0.00     0.274 HD
HETATM   17  H   UNL     1      63.266  12.164   5.488  1.00  0.00     0.274 HD
HETATM   18  H   UNL     1      64.603  11.204   5.747  1.00  0.00     0.274 HD
ENDBRANCH  14  15
ENDBRANCH   3  14
TORSDOF 4
ENDMDL
MODEL 8
REMARK VINA RESULT:      -4.2      4.180      6.133
REMARK  4 active torsions:
REMARK  status: ('A' for Active; 'I' for Inactive)
REMARK    1  A    between atoms: N_1  and  C_7 
REMARK    2  A    between atoms: C_7  and  C_8 
REMARK    3  A    between atoms: C_10  and  C_14 
REMARK    4  A    between atoms: N_11  and  C_14 
ROOT
HETATM    1  C   UNL     1      61.117   8.148   2.219  1.00  0.00    -0.038 A 
HETATM    2  C   UNL     1      60.104   7.658   3.059  1.00  0.00     0.017 A 
HETATM    3  C   UNL     1      58.828   7.354   2.557  1.00  0.00    -0.033 A 
HETATM    4  C   UNL     1      59.585   8.003   0.342  1.00  0.00     0.001 A 
HETATM    5  C   UNL     1      60.846   8.309   0.852  1.00  0.00     0.009 A 
HETATM    6  C   UNL     1      58.582   7.531   1.189  1.00  0.00     0.009 A 
ENDROOT
BRANCH   1   7
HETATM    7  C   UNL     1      62.473   8.486   2.783  1.00  0.00     0.186 C 
BRANCH   7   8
HETATM    8  N   UNL     1      62.424   9.640   3.670  1.00  0.00    -0.299 N 
HETATM    9  N   UNL     1      61.832  10.786   3.264  1.00  0.00    -0.310 N 
HETATM   10  C   UNL     1      62.018  11.618   4.292  1.00  0.00     0.108 A 
ATOM     11  HN  UNL     1      61.355  10.970   2.382  1.00  0.00     0.186 HD
HETATM   12  C   UNL     1      62.758  11.028   5.333  1.00  0.00     0.037 A 
HETATM   13  C   UNL     1      63.019   9.752   4.897  1.00  0.00     0.112 A 
ENDBRANCH   7   8
ENDBRANCH   1   7
BRANCH   3  14
HETATM   14  C   UNL     1      57.747   6.833   3.469  1.00  0.00     0.268 C 
BRANCH  14  15
HETATM   15  N   UNL     1      57.472   7.765   4.559  1.00  0.00    -0.075 N 
HETATM   16  H   UNL     1      56.675   8.352   4.311  1.00  0.00     0.274 HD
HETATM   17  H   UNL     1      58.290   8.353   4.718  1.00  0.00     0.274 HD
HETATM   18  H   UNL     1      57.258   7.242   5.408  1.00  0.00     0.274 HD
ENDBRANCH  14  15
ENDBRANCH   3  14
TORSDOF 4
ENDMDL
MODEL 9
REMARK VINA RESULT:      -4.1      4.671      6.630
REMARK  4 active torsions:
REMARK  status: ('A' for Active; 'I' for Inactive)
REMARK    1  A    between atoms: N_1  and  C_7 
REMARK    2  A    between atoms: C_7  and  C_8 
REMARK    3  A    between atoms: C_10  and  C_14 
REMARK    4  A    between atoms: N_11  and  C_14 
ROOT
HETATM    1  C   UNL     1      61.003   7.952   2.861  1.00  0.00    -0.038 A 
HETATM    2  C   UNL     1      61.374   8.883   3.846  1.00  0.00     0.017 A 
HETATM    3  C   UNL     1      61.934  10.122   3.498  1.00  0.00    -0.033 A 
HETATM    4  C   UNL     1      61.724   9.519   1.154  1.00  0.00     0.001 A 
HETATM    5  C   UNL     1      61.175   8.288   1.510  1.00  0.00     0.009 A 
HETATM    6  C   UNL     1      62.103  10.429   2.141  1.00  0.00     0.009 A 
ENDROOT
BRANCH   1   7
HETATM    7  C   UNL     1      60.421   6.620   3.259  1.00  0.00     0.186 C 
BRANCH   7   8
HETATM    8  N   UNL     1      58.973   6.675   3.401  1.00  0.00    -0.299 N 
HETATM    9  N   UNL     1      58.178   6.580   2.313  1.00  0.00    -0.310 N 
HETATM   10  C   UNL     1      56.946   6.718   2.809  1.00  0.00     0.108 A 
ATOM     11  HN  UNL     1      58.454   6.436   1.341  1.00  0.00     0.186 HD
HETATM   12  C   UNL     1      56.948   6.940   4.198  1.00  0.00     0.037 A 
HETATM   13  C   UNL     1      58.276   6.921   4.552  1.00  0.00     0.112 A 
ENDBRANCH   7   8
ENDBRANCH   1   7
BRANCH   3  14
HETATM   14  C   UNL     1      62.333  11.112   4.563  1.00  0.00     0.268 C 
BRANCH  14  15
HETATM   15  N   UNL     1      63.073  10.465   5.644  1.00  0.00    -0.075 N 
HETATM   16  H   UNL     1      62.444   9.860   6.172  1.00  0.00     0.274 HD
HETATM   17  H   UNL     1      63.459  11.176   6.265  1.00  0.00     0.274 HD
HETATM   18  H   UNL     1      63.831   9.908   5.251  1.00  0.00     0.274 HD
ENDBRANCH  14  15
ENDBRANCH   3  14
TORSDOF 4
ENDMDL
