MODEL 1
REMARK VINA RESULT:      -5.1      0.000      0.000
REMARK  3 active torsions:
REMARK  status: ('A' for Active; 'I' for Inactive)
REMARK    1  A    between atoms: N_1  and  C_7 
REMARK    2  A    between atoms: C_7  and  C_8 
REMARK    3  A    between atoms: C_9  and  N_10 
ROOT
HETATM    1  C   UNL     1      63.022   8.571   4.491  1.00  0.00    -0.038 A 
HETATM    2  C   UNL     1      61.936  10.668   2.935  1.00  0.00     0.025 A 
HETATM    3  C   UNL     1      62.314  10.887   4.261  1.00  0.00     0.029 A 
HETATM    4  C   UNL     1      62.156   9.407   2.378  1.00  0.00     0.029 A 
HETATM    5  C   UNL     1      62.828   9.845   5.041  1.00  0.00     0.011 A 
HETATM    6  C   UNL     1      62.670   8.360   3.150  1.00  0.00     0.011 A 
ENDROOT
BRANCH   1   7
HETATM    7  C   UNL     1      63.623   7.462   5.317  1.00  0.00     0.186 C 
BRANCH   7   8
HETATM    8  N   UNL     1      65.076   7.557   5.384  1.00  0.00    -0.299 N 
HETATM    9  N   UNL     1      65.670   8.141   6.447  1.00  0.00    -0.310 N 
HETATM   10  C   UNL     1      66.972   8.055   6.168  1.00  0.00     0.108 A 
ATOM     11  HN  UNL     1      65.228   8.551   7.270  1.00  0.00     0.186 HD
HETATM   12  C   UNL     1      67.215   7.466   4.913  1.00  0.00     0.037 A 
HETATM   13  C   UNL     1      65.966   7.176   4.417  1.00  0.00     0.112 A 
ENDBRANCH   7   8
ENDBRANCH   1   7
BRANCH   2  14
HETATM   14  N   UNL     1      61.571  11.745   2.116  1.00  0.00    -0.399 N 
HETATM   15  H   UNL     1      60.982  11.596   1.341  1.00  0.00     0.156 HD
HETATM   16  H   UNL     1      61.903  12.650   2.317  1.00  0.00     0.156 HD
ENDBRANCH   2  14
TORSDOF 3
ENDMDL
MODEL 2
REMARK VINA RESULT:      -5.0      2.840      5.458
REMARK  3 active torsions:
REMARK  status: ('A' for Active; 'I' for Inactive)
REMARK    1  A    between atoms: N_1  and  C_7 
REMARK    2  A    between atoms: C_7  and  C_8 
REMARK    3  A    between atoms: C_9  and  N_10 
ROOT
HETATM    1  C   UNL     1      62.146   9.576   2.544  1.00  0.00    -0.038 A 
HETATM    2  C   UNL     1      62.806  10.680   5.062  1.00  0.00     0.025 A 
HETATM    3  C   UNL     1      63.215   9.390   4.720  1.00  0.00     0.029 A 
HETATM    4  C   UNL     1      62.110  11.432   4.114  1.00  0.00     0.029 A 
HETATM    5  C   UNL     1      62.869   8.832   3.485  1.00  0.00     0.011 A 
HETATM    6  C   UNL     1      61.760  10.882   2.876  1.00  0.00     0.011 A 
ENDROOT
BRANCH   1   7
HETATM    7  C   UNL     1      61.815   8.992   1.193  1.00  0.00     0.186 C 
BRANCH   7   8
HETATM    8  N   UNL     1      60.649   8.120   1.246  1.00  0.00    -0.299 N 
HETATM    9  N   UNL     1      59.415   8.622   1.022  1.00  0.00    -0.310 N 
HETATM   10  C   UNL     1      58.615   7.562   1.156  1.00  0.00     0.108 A 
ATOM     11  HN  UNL     1      59.156   9.583   0.803  1.00  0.00     0.186 HD
HETATM   12  C   UNL     1      59.319   6.397   1.512  1.00  0.00     0.037 A 
HETATM   13  C   UNL     1      60.634   6.795   1.588  1.00  0.00     0.112 A 
ENDBRANCH   7   8
ENDBRANCH   1   7
BRANCH   2  14
HETATM   14  N   UNL     1      63.286  11.288   6.229  1.00  0.00    -0.399 N 
HETATM   15  H   UNL     1      63.831  10.771   6.866  1.00  0.00     0.156 HD
HETATM   16  H   UNL     1      63.078  12.233   6.412  1.00  0.00     0.156 HD
ENDBRANCH   2  14
TORSDOF 3
ENDMDL
MODEL 3
REMARK VINA RESULT:      -5.0      0.259      1.357
REMARK  3 active torsions:
REMARK  status: ('A' for Active; 'I' for Inactive)
REMARK    1  A    between atoms: N_1  and  C_7 
REMARK    2  A    between atoms: C_7  and  C_8 
REMARK    3  A    between atoms: C_9  and  N_10 
ROOT
HETATM    1  C   UNL     1      63.130   8.730   4.713  1.00  0.00    -0.038 A 
HETATM    2  C   UNL     1      62.030  10.706   3.015  1.00  0.00     0.025 A 
HETATM    3  C   UNL     1      62.202   9.396   2.566  1.00  0.00     0.029 A 
HETATM    4  C   UNL     1      62.364  11.007   4.338  1.00  0.00     0.029 A 
HETATM    5  C   UNL     1      62.769   8.422   3.395  1.00  0.00     0.011 A 
HETATM    6  C   UNL     1      62.931  10.040   5.174  1.00  0.00     0.011 A 
ENDROOT
BRANCH   1   7
HETATM    7  C   UNL     1      63.695   7.668   5.623  1.00  0.00     0.186 C 
BRANCH   7   8
HETATM    8  N   UNL     1      65.149   7.600   5.545  1.00  0.00    -0.299 N 
HETATM    9  N   UNL     1      65.909   8.289   6.423  1.00  0.00    -0.310 N 
HETATM   10  C   UNL     1      67.159   8.000   6.053  1.00  0.00     0.108 A 
ATOM     11  HN  UNL     1      65.601   8.888   7.189  1.00  0.00     0.186 HD
HETATM   12  C   UNL     1      67.205   7.172   4.916  1.00  0.00     0.037 A 
HETATM   13  C   UNL     1      65.887   6.950   4.593  1.00  0.00     0.112 A 
ENDBRANCH   7   8
ENDBRANCH   1   7
BRANCH   2  14
HETATM   14  N   UNL     1      61.322  11.634   2.240  1.00  0.00    -0.399 N 
HETATM   15  H   UNL     1      61.571  11.780   1.299  1.00  0.00     0.156 HD
HETATM   16  H   UNL     1      60.576  12.139   2.637  1.00  0.00     0.156 HD
ENDBRANCH   2  14
TORSDOF 3
ENDMDL
MODEL 4
REMARK VINA RESULT:      -4.6      1.809      5.397
REMARK  3 active torsions:
REMARK  status: ('A' for Active; 'I' for Inactive)
REMARK    1  A    between atoms: N_1  and  C_7 
REMARK    2  A    between atoms: C_7  and  C_8 
REMARK    3  A    between atoms: C_9  and  N_10 
ROOT
HETATM    1  C   UNL     1      64.878   7.539   5.291  1.00  0.00    -0.038 A 
HETATM    2  C   UNL     1      66.824   7.008   7.273  1.00  0.00     0.025 A 
HETATM    3  C   UNL     1      65.511   6.560   7.426  1.00  0.00     0.029 A 
HETATM    4  C   UNL     1      67.168   7.678   6.097  1.00  0.00     0.029 A 
HETATM    5  C   UNL     1      64.540   6.843   6.458  1.00  0.00     0.011 A 
HETATM    6  C   UNL     1      66.204   7.965   5.125  1.00  0.00     0.011 A 
ENDROOT
BRANCH   1   7
HETATM    7  C   UNL     1      63.843   7.801   4.225  1.00  0.00     0.186 C 
BRANCH   7   8
HETATM    8  N   UNL     1      63.237   9.118   4.366  1.00  0.00    -0.299 N 
HETATM    9  N   UNL     1      63.439   9.843   5.488  1.00  0.00    -0.310 N 
HETATM   10  C   UNL     1      62.744  10.961   5.271  1.00  0.00     0.108 A 
ATOM     11  HN  UNL     1      63.991   9.593   6.309  1.00  0.00     0.186 HD
HETATM   12  C   UNL     1      62.059  10.939   4.041  1.00  0.00     0.037 A 
HETATM   13  C   UNL     1      62.378   9.721   3.488  1.00  0.00     0.112 A 
ENDBRANCH   7   8
ENDBRANCH   1   7
BRANCH   2  14
HETATM   14  N   UNL     1      67.822   6.591   8.163  1.00  0.00    -0.399 N 
HETATM   15  H   UNL     1      67.617   5.918   8.852  1.00  0.00     0.156 HD
HETATM   16  H   UNL     1      68.728   6.971   8.099  1.00  0.00     0.156 HD
ENDBRANCH   2  14
TORSDOF 3
ENDMDL
MODEL 5
REMARK VINA RESULT:      -4.5      2.636      3.649
REMARK  3 active torsions:
REMARK  status: ('A' for Active; 'I' for Inactive)
REMARK    1  A    between atoms: N_1  and  C_7 
REMARK    2  A    between atoms: C_7  and  C_8 
REMARK    3  A    between atoms: C_9  and  N_10 
ROOT
HETATM    1  C   UNL     1      62.481   8.434   3.434  1.00  0.00    -0.038 A 
HETATM    2  C   UNL     1      61.850  10.968   2.349  1.00  0.00     0.025 A 
HETATM    3  C   UNL     1      62.075  10.815   3.718  1.00  0.00     0.029 A 
HETATM    4  C   UNL     1      61.996   9.854   1.520  1.00  0.00     0.029 A 
HETATM    5  C   UNL     1      62.362   9.558   4.261  1.00  0.00     0.011 A 
HETATM    6  C   UNL     1      62.283   8.594   2.055  1.00  0.00     0.011 A 
ENDROOT
BRANCH   1   7
HETATM    7  C   UNL     1      62.839   7.088   4.012  1.00  0.00     0.186 C 
BRANCH   7   8
HETATM    8  N   UNL     1      61.837   6.617   4.959  1.00  0.00    -0.299 N 
HETATM    9  N   UNL     1      60.568   6.399   4.553  1.00  0.00    -0.310 N 
HETATM   10  C   UNL     1      59.947   5.991   5.662  1.00  0.00     0.108 A 
ATOM     11  HN  UNL     1      60.176   6.519   3.618  1.00  0.00     0.186 HD
HETATM   12  C   UNL     1      60.795   5.992   6.785  1.00  0.00     0.037 A 
HETATM   13  C   UNL     1      62.008   6.427   6.304  1.00  0.00     0.112 A 
ENDBRANCH   7   8
ENDBRANCH   1   7
BRANCH   2  14
HETATM   14  N   UNL     1      61.719  12.247   1.793  1.00  0.00    -0.399 N 
HETATM   15  H   UNL     1      61.266  12.362   0.926  1.00  0.00     0.156 HD
HETATM   16  H   UNL     1      62.080  13.030   2.268  1.00  0.00     0.156 HD
ENDBRANCH   2  14
TORSDOF 3
ENDMDL
MODEL 6
REMARK VINA RESULT:      -4.4      1.850      2.294
REMARK  3 active torsions:
REMARK  status: ('A' for Active; 'I' for Inactive)
REMARK    1  A    between atoms: N_1  and  C_7 
REMARK    2  A    between atoms: C_7  and  C_8 
REMARK    3  A    between atoms: C_9  and  N_10 
ROOT
HETATM    1  C   UNL     1      64.844   8.022   4.643  1.00  0.00    -0.038 A 
HETATM    2  C   UNL     1      62.250   8.899   3.938  1.00  0.00     0.025 A 
HETATM    3  C   UNL     1      63.009   9.601   4.876  1.00  0.00     0.029 A 
HETATM    4  C   UNL     1      62.820   7.786   3.318  1.00  0.00     0.029 A 
HETATM    5  C   UNL     1      64.283   9.156   5.245  1.00  0.00     0.011 A 
HETATM    6  C   UNL     1      64.093   7.334   3.680  1.00  0.00     0.011 A 
ENDROOT
BRANCH   1   7
HETATM    7  C   UNL     1      66.237   7.571   5.005  1.00  0.00     0.186 C 
BRANCH   7   8
HETATM    8  N   UNL     1      66.298   7.018   6.351  1.00  0.00    -0.299 N 
HETATM    9  N   UNL     1      67.000   7.653   7.316  1.00  0.00    -0.310 N 
HETATM   10  C   UNL     1      66.840   6.874   8.388  1.00  0.00     0.108 A 
ATOM     11  HN  UNL     1      67.527   8.523   7.242  1.00  0.00     0.186 HD
HETATM   12  C   UNL     1      66.084   5.720   8.106  1.00  0.00     0.037 A 
HETATM   13  C   UNL     1      65.768   5.828   6.772  1.00  0.00     0.112 A 
ENDBRANCH   7   8
ENDBRANCH   1   7
BRANCH   2  14
HETATM   14  N   UNL     1      61.046   9.433   3.459  1.00  0.00    -0.399 N 
HETATM   15  H   UNL     1      60.257   9.472   4.046  1.00  0.00     0.156 HD
HETATM   16  H   UNL     1      60.991   9.768   2.535  1.00  0.00     0.156 HD
ENDBRANCH   2  14
TORSDOF 3
ENDMDL
MODEL 7
REMARK VINA RESULT:      -4.3      1.617      5.149
REMARK  3 active torsions:
REMARK  status: ('A' for Active; 'I' for Inactive)
REMARK    1  A    between atoms: N_1  and  C_7 
REMARK    2  A    between atoms: C_7  and  C_8 
REMARK    3  A    between atoms: C_9  and  N_10 
ROOT
HETATM    1  C   UNL     1      63.388   7.743   4.182  1.00  0.00    -0.038 A 
HETATM    2  C   UNL     1      64.812   7.169   6.557  1.00  0.00     0.025 A 
HETATM    3  C   UNL     1      63.467   6.818   6.431  1.00  0.00     0.029 A 
HETATM    4  C   UNL     1      65.453   7.761   5.466  1.00  0.00     0.029 A 
HETATM    5  C   UNL     1      62.753   7.124   5.266  1.00  0.00     0.011 A 
HETATM    6  C   UNL     1      64.747   8.069   4.299  1.00  0.00     0.011 A 
ENDROOT
BRANCH   1   7
HETATM    7  C   UNL     1      62.631   8.027   2.909  1.00  0.00     0.186 C 
BRANCH   7   8
HETATM    8  N   UNL     1      62.306   9.440   2.772  1.00  0.00    -0.299 N 
HETATM    9  N   UNL     1      62.137  10.208   3.870  1.00  0.00    -0.310 N 
HETATM   10  C   UNL     1      61.851  11.413   3.372  1.00  0.00     0.108 A 
ATOM     11  HN  UNL     1      62.210   9.932   4.850  1.00  0.00     0.186 HD
HETATM   12  C   UNL     1      61.787  11.413   1.966  1.00  0.00     0.037 A 
HETATM   13  C   UNL     1      62.062  10.114   1.606  1.00  0.00     0.112 A 
ENDBRANCH   7   8
ENDBRANCH   1   7
BRANCH   2  14
HETATM   14  N   UNL     1      65.560   6.724   7.655  1.00  0.00    -0.399 N 
HETATM   15  H   UNL     1      65.160   6.098   8.301  1.00  0.00     0.156 HD
HETATM   16  H   UNL     1      66.485   7.038   7.781  1.00  0.00     0.156 HD
ENDBRANCH   2  14
TORSDOF 3
ENDMDL
MODEL 8
REMARK VINA RESULT:      -4.3      1.523      5.211
REMARK  3 active torsions:
REMARK  status: ('A' for Active; 'I' for Inactive)
REMARK    1  A    between atoms: N_1  and  C_7 
REMARK    2  A    between atoms: C_7  and  C_8 
REMARK    3  A    between atoms: C_9  and  N_10 
ROOT
HETATM    1  C   UNL     1      63.479   8.616   5.312  1.00  0.00    -0.038 A 
HETATM    2  C   UNL     1      65.026   6.275   5.668  1.00  0.00     0.025 A 
HETATM    3  C   UNL     1      65.601   7.437   5.151  1.00  0.00     0.029 A 
HETATM    4  C   UNL     1      63.685   6.309   6.055  1.00  0.00     0.029 A 
HETATM    5  C   UNL     1      64.832   8.589   4.950  1.00  0.00     0.011 A 
HETATM    6  C   UNL     1      62.909   7.457   5.858  1.00  0.00     0.011 A 
ENDROOT
BRANCH   1   7
HETATM    7  C   UNL     1      62.663   9.873   5.141  1.00  0.00     0.186 C 
BRANCH   7   8
HETATM    8  N   UNL     1      62.344  10.130   3.744  1.00  0.00    -0.299 N 
HETATM    9  N   UNL     1      61.991  11.372   3.345  1.00  0.00    -0.310 N 
HETATM   10  C   UNL     1      61.772  11.232   2.036  1.00  0.00     0.108 A 
ATOM     11  HN  UNL     1      61.912  12.217   3.911  1.00  0.00     0.186 HD
HETATM   12  C   UNL     1      61.932   9.903   1.602  1.00  0.00     0.037 A 
HETATM   13  C   UNL     1      62.279   9.207   2.736  1.00  0.00     0.112 A 
ENDBRANCH   7   8
ENDBRANCH   1   7
BRANCH   2  14
HETATM   14  N   UNL     1      65.830   5.180   6.012  1.00  0.00    -0.399 N 
HETATM   15  H   UNL     1      65.479   4.265   5.921  1.00  0.00     0.156 HD
HETATM   16  H   UNL     1      66.745   5.327   6.345  1.00  0.00     0.156 HD
ENDBRANCH   2  14
TORSDOF 3
ENDMDL
MODEL 9
REMARK VINA RESULT:      -3.9      2.753      5.645
REMARK  3 active torsions:
REMARK  status: ('A' for Active; 'I' for Inactive)
REMARK    1  A    between atoms: N_1  and  C_7 
REMARK    2  A    between atoms: C_7  and  C_8 
REMARK    3  A    between atoms: C_9  and  N_10 
ROOT
HETATM    1  C   UNL     1      62.260   8.805   2.818  1.00  0.00    -0.038 A 
HETATM    2  C   UNL     1      64.095   8.588   4.959  1.00  0.00     0.025 A 
HETATM    3  C   UNL     1      64.072   7.634   3.941  1.00  0.00     0.029 A 
HETATM    4  C   UNL     1      63.229   9.680   4.869  1.00  0.00     0.029 A 
HETATM    5  C   UNL     1      63.148   7.725   2.894  1.00  0.00     0.011 A 
HETATM    6  C   UNL     1      62.303   9.780   3.826  1.00  0.00     0.011 A 
ENDROOT
BRANCH   1   7
HETATM    7  C   UNL     1      61.298   8.930   1.663  1.00  0.00     0.186 C 
BRANCH   7   8
HETATM    8  N   UNL     1      60.245   7.925   1.719  1.00  0.00    -0.299 N 
HETATM    9  N   UNL     1      59.296   7.989   2.678  1.00  0.00    -0.310 N 
HETATM   10  C   UNL     1      58.523   6.929   2.428  1.00  0.00     0.108 A 
ATOM     11  HN  UNL     1      59.193   8.683   3.418  1.00  0.00     0.186 HD
HETATM   12  C   UNL     1      58.997   6.160   1.349  1.00  0.00     0.037 A 
HETATM   13  C   UNL     1      60.130   6.816   0.925  1.00  0.00     0.112 A 
ENDBRANCH   7   8
ENDBRANCH   1   7
BRANCH   2  14
HETATM   14  N   UNL     1      65.119   8.579   5.915  1.00  0.00    -0.399 N 
HETATM   15  H   UNL     1      65.605   7.744   6.107  1.00  0.00     0.156 HD
HETATM   16  H   UNL     1      65.351   9.406   6.396  1.00  0.00     0.156 HD
ENDBRANCH   2  14
TORSDOF 3
ENDMDL
