MODEL 1
REMARK VINA RESULT:      -4.9      0.000      0.000
REMARK  3 active torsions:
REMARK  status: ('A' for Active; 'I' for Inactive)
REMARK    1  A    between atoms: N_1  and  C_7 
REMARK    2  A    between atoms: C_7  and  C_8 
REMARK    3  A    between atoms: C_10  and  N_11 
ROOT
HETATM    1  C   UNL     1      62.478   8.713   3.963  1.00  0.00    -0.036 A 
HETATM    2  C   UNL     1      62.106  10.039   3.681  1.00  0.00     0.037 A 
HETATM    3  C   UNL     1      61.865  10.463   2.371  1.00  0.00     0.026 A 
HETATM    4  C   UNL     1      62.463   8.247   1.586  1.00  0.00     0.003 A 
HETATM    5  C   UNL     1      62.641   7.815   2.901  1.00  0.00     0.009 A 
HETATM    6  C   UNL     1      62.099   9.570   1.325  1.00  0.00     0.029 A 
ENDROOT
BRANCH   1   7
HETATM    7  C   UNL     1      62.684   8.274   5.392  1.00  0.00     0.186 C 
BRANCH   7   8
HETATM    8  N   UNL     1      64.060   7.865   5.637  1.00  0.00    -0.299 N 
HETATM    9  N   UNL     1      65.054   8.781   5.636  1.00  0.00    -0.310 N 
HETATM   10  C   UNL     1      66.149   8.058   5.883  1.00  0.00     0.108 A 
ATOM     11  HN  UNL     1      64.985   9.787   5.483  1.00  0.00     0.186 HD
HETATM   12  C   UNL     1      65.873   6.684   5.998  1.00  0.00     0.037 A 
HETATM   13  C   UNL     1      64.513   6.586   5.815  1.00  0.00     0.112 A 
ENDBRANCH   7   8
ENDBRANCH   1   7
BRANCH   3  14
HETATM   14  N   UNL     1      61.623  11.818   2.104  1.00  0.00    -0.399 N 
HETATM   15  H   UNL     1      60.731  12.199   2.269  1.00  0.00     0.156 HD
HETATM   16  H   UNL     1      62.345  12.386   1.751  1.00  0.00     0.156 HD
ENDBRANCH   3  14
TORSDOF 3
ENDMDL
MODEL 2
REMARK VINA RESULT:      -4.8      1.312      2.159
REMARK  3 active torsions:
REMARK  status: ('A' for Active; 'I' for Inactive)
REMARK    1  A    between atoms: N_1  and  C_7 
REMARK    2  A    between atoms: C_7  and  C_8 
REMARK    3  A    between atoms: C_10  and  N_11 
ROOT
HETATM    1  C   UNL     1      63.104   8.604   4.623  1.00  0.00    -0.036 A 
HETATM    2  C   UNL     1      62.504   8.643   3.352  1.00  0.00     0.037 A 
HETATM    3  C   UNL     1      61.996   9.833   2.824  1.00  0.00     0.026 A 
HETATM    4  C   UNL     1      62.600  10.959   4.887  1.00  0.00     0.003 A 
HETATM    5  C   UNL     1      63.159   9.780   5.381  1.00  0.00     0.009 A 
HETATM    6  C   UNL     1      62.003  10.977   3.625  1.00  0.00     0.029 A 
ENDROOT
BRANCH   1   7
HETATM    7  C   UNL     1      63.686   7.314   5.145  1.00  0.00     0.186 C 
BRANCH   7   8
HETATM    8  N   UNL     1      65.052   7.491   5.619  1.00  0.00    -0.299 N 
HETATM    9  N   UNL     1      65.331   7.419   6.939  1.00  0.00    -0.310 N 
HETATM   10  C   UNL     1      66.647   7.631   6.996  1.00  0.00     0.108 A 
ATOM     11  HN  UNL     1      64.687   7.244   7.711  1.00  0.00     0.186 HD
HETATM   12  C   UNL     1      67.207   7.881   5.730  1.00  0.00     0.037 A 
HETATM   13  C   UNL     1      66.146   7.803   4.858  1.00  0.00     0.112 A 
ENDBRANCH   7   8
ENDBRANCH   1   7
BRANCH   3  14
HETATM   14  N   UNL     1      61.289   9.821   1.614  1.00  0.00    -0.399 N 
HETATM   15  H   UNL     1      61.484   9.133   0.938  1.00  0.00     0.156 HD
HETATM   16  H   UNL     1      60.597  10.499   1.442  1.00  0.00     0.156 HD
ENDBRANCH   3  14
TORSDOF 3
ENDMDL
MODEL 3
REMARK VINA RESULT:      -4.8      1.321      1.659
REMARK  3 active torsions:
REMARK  status: ('A' for Active; 'I' for Inactive)
REMARK    1  A    between atoms: N_1  and  C_7 
REMARK    2  A    between atoms: C_7  and  C_8 
REMARK    3  A    between atoms: C_10  and  N_11 
ROOT
HETATM    1  C   UNL     1      63.063   8.233   4.354  1.00  0.00    -0.036 A 
HETATM    2  C   UNL     1      62.926   9.498   4.955  1.00  0.00     0.037 A 
HETATM    3  C   UNL     1      62.337  10.566   4.272  1.00  0.00     0.026 A 
HETATM    4  C   UNL     1      62.096   9.137   2.325  1.00  0.00     0.003 A 
HETATM    5  C   UNL     1      62.629   8.060   3.034  1.00  0.00     0.009 A 
HETATM    6  C   UNL     1      61.973  10.388   2.936  1.00  0.00     0.029 A 
ENDROOT
BRANCH   1   7
HETATM    7  C   UNL     1      63.660   7.088   5.133  1.00  0.00     0.186 C 
BRANCH   7   8
HETATM    8  N   UNL     1      65.036   7.361   5.524  1.00  0.00    -0.299 N 
HETATM    9  N   UNL     1      65.354   7.539   6.826  1.00  0.00    -0.310 N 
HETATM   10  C   UNL     1      66.669   7.769   6.801  1.00  0.00     0.108 A 
ATOM     11  HN  UNL     1      64.735   7.507   7.636  1.00  0.00     0.186 HD
HETATM   12  C   UNL     1      67.189   7.782   5.494  1.00  0.00     0.037 A 
HETATM   13  C   UNL     1      66.104   7.534   4.685  1.00  0.00     0.112 A 
ENDBRANCH   7   8
ENDBRANCH   1   7
BRANCH   3  14
HETATM   14  N   UNL     1      62.329  11.846   4.842  1.00  0.00    -0.399 N 
HETATM   15  H   UNL     1      62.953  12.534   4.515  1.00  0.00     0.156 HD
HETATM   16  H   UNL     1      61.701  12.057   5.569  1.00  0.00     0.156 HD
ENDBRANCH   3  14
TORSDOF 3
ENDMDL
MODEL 4
REMARK VINA RESULT:      -4.7      2.360      5.266
REMARK  3 active torsions:
REMARK  status: ('A' for Active; 'I' for Inactive)
REMARK    1  A    between atoms: N_1  and  C_7 
REMARK    2  A    between atoms: C_7  and  C_8 
REMARK    3  A    between atoms: C_10  and  N_11 
ROOT
HETATM    1  C   UNL     1      62.227   9.556   2.582  1.00  0.00    -0.036 A 
HETATM    2  C   UNL     1      62.926   8.788   3.531  1.00  0.00     0.037 A 
HETATM    3  C   UNL     1      63.176   9.276   4.816  1.00  0.00     0.026 A 
HETATM    4  C   UNL     1      62.107  11.362   4.191  1.00  0.00     0.003 A 
HETATM    5  C   UNL     1      61.807  10.845   2.930  1.00  0.00     0.009 A 
HETATM    6  C   UNL     1      62.808  10.588   5.119  1.00  0.00     0.029 A 
ENDROOT
BRANCH   1   7
HETATM    7  C   UNL     1      61.931   8.983   1.218  1.00  0.00     0.186 C 
BRANCH   7   8
HETATM    8  N   UNL     1      60.750   8.130   1.236  1.00  0.00    -0.299 N 
HETATM    9  N   UNL     1      59.521   8.662   1.055  1.00  0.00    -0.310 N 
HETATM   10  C   UNL     1      58.705   7.609   1.140  1.00  0.00     0.108 A 
ATOM     11  HN  UNL     1      59.274   9.639   0.893  1.00  0.00     0.186 HD
HETATM   12  C   UNL     1      59.395   6.415   1.416  1.00  0.00     0.037 A 
HETATM   13  C   UNL     1      60.717   6.786   1.492  1.00  0.00     0.112 A 
ENDBRANCH   7   8
ENDBRANCH   1   7
BRANCH   3  14
HETATM   14  N   UNL     1      63.985   8.547   5.699  1.00  0.00    -0.399 N 
HETATM   15  H   UNL     1      64.593   7.856   5.352  1.00  0.00     0.156 HD
HETATM   16  H   UNL     1      63.945   8.727   6.666  1.00  0.00     0.156 HD
ENDBRANCH   3  14
TORSDOF 3
ENDMDL
MODEL 5
REMARK VINA RESULT:      -4.4      2.259      3.100
REMARK  3 active torsions:
REMARK  status: ('A' for Active; 'I' for Inactive)
REMARK    1  A    between atoms: N_1  and  C_7 
REMARK    2  A    between atoms: C_7  and  C_8 
REMARK    3  A    between atoms: C_10  and  N_11 
ROOT
HETATM    1  C   UNL     1      62.524   8.556   3.389  1.00  0.00    -0.036 A 
HETATM    2  C   UNL     1      62.445   9.698   4.207  1.00  0.00     0.037 A 
HETATM    3  C   UNL     1      62.060  10.937   3.688  1.00  0.00     0.026 A 
HETATM    4  C   UNL     1      61.918   9.928   1.486  1.00  0.00     0.003 A 
HETATM    5  C   UNL     1      62.243   8.682   2.023  1.00  0.00     0.009 A 
HETATM    6  C   UNL     1      61.850  11.052   2.313  1.00  0.00     0.029 A 
ENDROOT
BRANCH   1   7
HETATM    7  C   UNL     1      62.896   7.222   3.988  1.00  0.00     0.186 C 
BRANCH   7   8
HETATM    8  N   UNL     1      61.862   6.728   4.887  1.00  0.00    -0.299 N 
HETATM    9  N   UNL     1      62.161   6.426   6.170  1.00  0.00    -0.310 N 
HETATM   10  C   UNL     1      60.997   6.009   6.675  1.00  0.00     0.108 A 
ATOM     11  HN  UNL     1      63.062   6.499   6.642  1.00  0.00     0.186 HD
HETATM   12  C   UNL     1      59.967   6.000   5.718  1.00  0.00     0.037 A 
HETATM   13  C   UNL     1      60.561   6.452   4.562  1.00  0.00     0.112 A 
ENDBRANCH   7   8
ENDBRANCH   1   7
BRANCH   3  14
HETATM   14  N   UNL     1      62.114  12.083   4.493  1.00  0.00    -0.399 N 
HETATM   15  H   UNL     1      62.944  12.609   4.544  1.00  0.00     0.156 HD
HETATM   16  H   UNL     1      61.322  12.362   5.007  1.00  0.00     0.156 HD
ENDBRANCH   3  14
TORSDOF 3
ENDMDL
MODEL 6
REMARK VINA RESULT:      -4.2      3.527      7.424
REMARK  3 active torsions:
REMARK  status: ('A' for Active; 'I' for Inactive)
REMARK    1  A    between atoms: N_1  and  C_7 
REMARK    2  A    between atoms: C_7  and  C_8 
REMARK    3  A    between atoms: C_10  and  N_11 
ROOT
HETATM    1  C   UNL     1      67.299   5.489   7.581  1.00  0.00    -0.036 A 
HETATM    2  C   UNL     1      67.297   4.616   8.684  1.00  0.00     0.037 A 
HETATM    3  C   UNL     1      67.696   3.283   8.555  1.00  0.00     0.026 A 
HETATM    4  C   UNL     1      68.018   3.650   6.178  1.00  0.00     0.003 A 
HETATM    5  C   UNL     1      67.678   4.994   6.327  1.00  0.00     0.009 A 
HETATM    6  C   UNL     1      68.005   2.796   7.284  1.00  0.00     0.029 A 
ENDROOT
BRANCH   1   7
HETATM    7  C   UNL     1      66.908   6.935   7.762  1.00  0.00     0.186 C 
BRANCH   7   8
HETATM    8  N   UNL     1      65.899   7.345   6.795  1.00  0.00    -0.299 N 
HETATM    9  N   UNL     1      64.621   6.921   6.920  1.00  0.00    -0.310 N 
HETATM   10  C   UNL     1      64.000   7.478   5.878  1.00  0.00     0.108 A 
ATOM     11  HN  UNL     1      64.225   6.317   7.641  1.00  0.00     0.186 HD
HETATM   12  C   UNL     1      64.875   8.219   5.063  1.00  0.00     0.037 A 
HETATM   13  C   UNL     1      66.103   8.099   5.671  1.00  0.00     0.112 A 
ENDBRANCH   7   8
ENDBRANCH   1   7
BRANCH   3  14
HETATM   14  N   UNL     1      67.563   2.401   9.636  1.00  0.00    -0.399 N 
HETATM   15  H   UNL     1      66.671   2.078   9.899  1.00  0.00     0.156 HD
HETATM   16  H   UNL     1      68.360   2.106  10.132  1.00  0.00     0.156 HD
ENDBRANCH   3  14
TORSDOF 3
ENDMDL
MODEL 7
REMARK VINA RESULT:      -4.0      3.333      4.620
REMARK  3 active torsions:
REMARK  status: ('A' for Active; 'I' for Inactive)
REMARK    1  A    between atoms: N_1  and  C_7 
REMARK    2  A    between atoms: C_7  and  C_8 
REMARK    3  A    between atoms: C_10  and  N_11 
ROOT
HETATM    1  C   UNL     1      65.704   7.130   5.668  1.00  0.00    -0.036 A 
HETATM    2  C   UNL     1      64.655   6.265   6.027  1.00  0.00     0.037 A 
HETATM    3  C   UNL     1      63.318   6.642   5.873  1.00  0.00     0.026 A 
HETATM    4  C   UNL     1      64.062   8.811   5.081  1.00  0.00     0.003 A 
HETATM    5  C   UNL     1      65.393   8.405   5.180  1.00  0.00     0.009 A 
HETATM    6  C   UNL     1      63.033   7.940   5.447  1.00  0.00     0.029 A 
ENDROOT
BRANCH   1   7
HETATM    7  C   UNL     1      67.137   6.677   5.801  1.00  0.00     0.186 C 
BRANCH   7   8
HETATM    8  N   UNL     1      67.429   6.204   7.148  1.00  0.00    -0.299 N 
HETATM    9  N   UNL     1      67.316   7.039   8.204  1.00  0.00    -0.310 N 
HETATM   10  C   UNL     1      67.661   6.279   9.246  1.00  0.00     0.108 A 
ATOM     11  HN  UNL     1      67.034   8.020   8.206  1.00  0.00     0.186 HD
HETATM   12  C   UNL     1      68.035   4.979   8.863  1.00  0.00     0.037 A 
HETATM   13  C   UNL     1      67.894   4.964   7.495  1.00  0.00     0.112 A 
ENDBRANCH   7   8
ENDBRANCH   1   7
BRANCH   3  14
HETATM   14  N   UNL     1      62.295   5.816   6.357  1.00  0.00    -0.399 N 
HETATM   15  H   UNL     1      62.380   5.395   7.243  1.00  0.00     0.156 HD
HETATM   16  H   UNL     1      61.491   5.656   5.811  1.00  0.00     0.156 HD
ENDBRANCH   3  14
TORSDOF 3
ENDMDL
MODEL 8
REMARK VINA RESULT:      -4.0      1.906      5.568
REMARK  3 active torsions:
REMARK  status: ('A' for Active; 'I' for Inactive)
REMARK    1  A    between atoms: N_1  and  C_7 
REMARK    2  A    between atoms: C_7  and  C_8 
REMARK    3  A    between atoms: C_10  and  N_11 
ROOT
HETATM    1  C   UNL     1      65.393   7.035   4.956  1.00  0.00    -0.036 A 
HETATM    2  C   UNL     1      65.121   6.234   6.079  1.00  0.00     0.037 A 
HETATM    3  C   UNL     1      66.107   5.960   7.032  1.00  0.00     0.026 A 
HETATM    4  C   UNL     1      67.693   7.218   5.694  1.00  0.00     0.003 A 
HETATM    5  C   UNL     1      66.688   7.537   4.780  1.00  0.00     0.009 A 
HETATM    6  C   UNL     1      67.406   6.416   6.801  1.00  0.00     0.029 A 
ENDROOT
BRANCH   1   7
HETATM    7  C   UNL     1      64.296   7.351   3.970  1.00  0.00     0.186 C 
BRANCH   7   8
HETATM    8  N   UNL     1      63.629   8.606   4.290  1.00  0.00    -0.299 N 
HETATM    9  N   UNL     1      63.922   9.262   5.435  1.00  0.00    -0.310 N 
HETATM   10  C   UNL     1      63.132  10.338   5.393  1.00  0.00     0.108 A 
ATOM     11  HN  UNL     1      64.588   8.998   6.161  1.00  0.00     0.186 HD
HETATM   12  C   UNL     1      62.306  10.356   4.255  1.00  0.00     0.037 A 
HETATM   13  C   UNL     1      62.636   9.210   3.568  1.00  0.00     0.112 A 
ENDBRANCH   7   8
ENDBRANCH   1   7
BRANCH   3  14
HETATM   14  N   UNL     1      65.849   5.056   8.070  1.00  0.00    -0.399 N 
HETATM   15  H   UNL     1      65.227   4.306   7.926  1.00  0.00     0.156 HD
HETATM   16  H   UNL     1      66.289   5.170   8.943  1.00  0.00     0.156 HD
ENDBRANCH   3  14
TORSDOF 3
ENDMDL
MODEL 9
REMARK VINA RESULT:      -3.9      3.383      4.774
REMARK  3 active torsions:
REMARK  status: ('A' for Active; 'I' for Inactive)
REMARK    1  A    between atoms: N_1  and  C_7 
REMARK    2  A    between atoms: C_7  and  C_8 
REMARK    3  A    between atoms: C_10  and  N_11 
ROOT
HETATM    1  C   UNL     1      61.109   7.999   2.857  1.00  0.00    -0.036 A 
HETATM    2  C   UNL     1      61.407   8.989   3.811  1.00  0.00     0.037 A 
HETATM    3  C   UNL     1      61.845  10.259   3.426  1.00  0.00     0.026 A 
HETATM    4  C   UNL     1      61.785   9.537   1.111  1.00  0.00     0.003 A 
HETATM    5  C   UNL     1      61.290   8.292   1.499  1.00  0.00     0.009 A 
HETATM    6  C   UNL     1      62.081  10.505   2.073  1.00  0.00     0.029 A 
ENDROOT
BRANCH   1   7
HETATM    7  C   UNL     1      60.593   6.653   3.301  1.00  0.00     0.186 C 
BRANCH   7   8
HETATM    8  N   UNL     1      59.300   6.763   3.963  1.00  0.00    -0.299 N 
HETATM    9  N   UNL     1      59.120   6.247   5.199  1.00  0.00    -0.310 N 
HETATM   10  C   UNL     1      57.843   6.523   5.474  1.00  0.00     0.108 A 
ATOM     11  HN  UNL     1      59.799   5.760   5.784  1.00  0.00     0.186 HD
HETATM   12  C   UNL     1      57.193   7.173   4.409  1.00  0.00     0.037 A 
HETATM   13  C   UNL     1      58.156   7.298   3.435  1.00  0.00     0.112 A 
ENDBRANCH   7   8
ENDBRANCH   1   7
BRANCH   3  14
HETATM   14  N   UNL     1      62.258  11.183   4.396  1.00  0.00    -0.399 N 
HETATM   15  H   UNL     1      62.620  10.866   5.255  1.00  0.00     0.156 HD
HETATM   16  H   UNL     1      62.188  12.148   4.218  1.00  0.00     0.156 HD
ENDBRANCH   3  14
TORSDOF 3
ENDMDL
