MODEL 1
REMARK VINA RESULT:      -5.0      0.000      0.000
REMARK  4 active torsions:
REMARK  status: ('A' for Active; 'I' for Inactive)
REMARK    1  A    between atoms: N_1  and  C_7 
REMARK    2  A    between atoms: C_7  and  C_8 
REMARK    3  A    between atoms: N_9  and  C_15 
REMARK    4  A    between atoms: C_10  and  C_15 
ROOT
HETATM    1  C   UNL     1      65.376   7.520   4.714  1.00  0.00    -0.038 A 
HETATM    2  C   UNL     1      62.953   8.592   3.725  1.00  0.00    -0.033 A 
HETATM    3  C   UNL     1      64.702   6.903   3.651  1.00  0.00     0.009 A 
HETATM    4  C   UNL     1      64.827   8.677   5.281  1.00  0.00     0.009 A 
HETATM    5  C   UNL     1      63.623   9.201   4.798  1.00  0.00     0.009 A 
HETATM    6  C   UNL     1      63.503   7.431   3.165  1.00  0.00     0.009 A 
ENDROOT
BRANCH   1   7
HETATM    7  C   UNL     1      66.684   6.957   5.216  1.00  0.00     0.186 C 
BRANCH   7   8
HETATM    8  N   UNL     1      66.621   6.619   6.632  1.00  0.00    -0.299 N 
HETATM    9  N   UNL     1      67.304   7.353   7.539  1.00  0.00    -0.310 N 
HETATM   10  C   UNL     1      67.042   6.746   8.699  1.00  0.00     0.108 A 
ATOM     11  HN  UNL     1      67.883   8.176   7.375  1.00  0.00     0.186 HD
HETATM   12  C   UNL     1      66.239   5.602   8.537  1.00  0.00     0.037 A 
HETATM   13  C   UNL     1      65.995   5.535   7.186  1.00  0.00     0.112 A 
ENDBRANCH   7   8
ENDBRANCH   1   7
BRANCH   2  14
HETATM   14  C   UNL     1      61.661   9.166   3.188  1.00  0.00     0.270 C 
BRANCH  14  15
HETATM   15  N   UNL     1      61.619  10.621   3.343  1.00  0.00    -0.075 N 
HETATM   16  C   UNL     1      61.827  11.294   2.071  1.00  0.00     0.267 C 
HETATM   17  H   UNL     1      62.348  10.908   3.995  1.00  0.00     0.277 HD
HETATM   18  H   UNL     1      60.697  10.880   3.697  1.00  0.00     0.277 HD
ENDBRANCH  14  15
ENDBRANCH   2  14
TORSDOF 4
ENDMDL
MODEL 2
REMARK VINA RESULT:      -4.7      1.266      6.274
REMARK  4 active torsions:
REMARK  status: ('A' for Active; 'I' for Inactive)
REMARK    1  A    between atoms: N_1  and  C_7 
REMARK    2  A    between atoms: C_7  and  C_8 
REMARK    3  A    between atoms: N_9  and  C_15 
REMARK    4  A    between atoms: C_10  and  C_15 
ROOT
HETATM    1  C   UNL     1      63.075   7.552   4.430  1.00  0.00    -0.038 A 
HETATM    2  C   UNL     1      65.391   6.799   5.867  1.00  0.00    -0.033 A 
HETATM    3  C   UNL     1      64.320   7.477   3.791  1.00  0.00     0.009 A 
HETATM    4  C   UNL     1      62.997   7.249   5.795  1.00  0.00     0.009 A 
HETATM    5  C   UNL     1      64.145   6.886   6.508  1.00  0.00     0.009 A 
HETATM    6  C   UNL     1      65.465   7.108   4.503  1.00  0.00     0.009 A 
ENDROOT
BRANCH   1   7
HETATM    7  C   UNL     1      61.839   7.926   3.648  1.00  0.00     0.186 C 
BRANCH   7   8
HETATM    8  N   UNL     1      61.888   9.307   3.184  1.00  0.00    -0.299 N 
HETATM    9  N   UNL     1      61.886  10.325   4.073  1.00  0.00    -0.310 N 
HETATM   10  C   UNL     1      61.906  11.416   3.304  1.00  0.00     0.108 A 
ATOM     11  HN  UNL     1      61.873  10.272   5.091  1.00  0.00     0.186 HD
HETATM   12  C   UNL     1      61.869  11.107   1.932  1.00  0.00     0.037 A 
HETATM   13  C   UNL     1      61.843   9.733   1.885  1.00  0.00     0.112 A 
ENDBRANCH   7   8
ENDBRANCH   1   7
BRANCH   2  14
HETATM   14  C   UNL     1      66.630   6.389   6.630  1.00  0.00     0.270 C 
BRANCH  14  15
HETATM   15  N   UNL     1      66.946   7.347   7.690  1.00  0.00    -0.075 N 
HETATM   16  C   UNL     1      67.092   6.684   8.976  1.00  0.00     0.267 C 
HETATM   17  H   UNL     1      66.195   8.034   7.754  1.00  0.00     0.277 HD
HETATM   18  H   UNL     1      67.830   7.801   7.461  1.00  0.00     0.277 HD
ENDBRANCH  14  15
ENDBRANCH   2  14
TORSDOF 4
ENDMDL
MODEL 3
REMARK VINA RESULT:      -4.5      1.364      1.604
REMARK  4 active torsions:
REMARK  status: ('A' for Active; 'I' for Inactive)
REMARK    1  A    between atoms: N_1  and  C_7 
REMARK    2  A    between atoms: C_7  and  C_8 
REMARK    3  A    between atoms: N_9  and  C_15 
REMARK    4  A    between atoms: C_10  and  C_15 
ROOT
HETATM    1  C   UNL     1      65.710   7.796   5.162  1.00  0.00    -0.038 A 
HETATM    2  C   UNL     1      63.658   7.393   3.258  1.00  0.00    -0.033 A 
HETATM    3  C   UNL     1      65.768   6.720   4.266  1.00  0.00     0.009 A 
HETATM    4  C   UNL     1      64.616   8.668   5.101  1.00  0.00     0.009 A 
HETATM    5  C   UNL     1      63.597   8.463   4.165  1.00  0.00     0.009 A 
HETATM    6  C   UNL     1      64.752   6.520   3.328  1.00  0.00     0.009 A 
ENDROOT
BRANCH   1   7
HETATM    7  C   UNL     1      66.824   8.020   6.156  1.00  0.00     0.186 C 
BRANCH   7   8
HETATM    8  N   UNL     1      66.877   6.964   7.159  1.00  0.00    -0.299 N 
HETATM    9  N   UNL     1      65.904   6.862   8.092  1.00  0.00    -0.310 N 
HETATM   10  C   UNL     1      66.292   5.827   8.841  1.00  0.00     0.108 A 
ATOM     11  HN  UNL     1      65.070   7.438   8.198  1.00  0.00     0.186 HD
HETATM   12  C   UNL     1      67.529   5.298   8.427  1.00  0.00     0.037 A 
HETATM   13  C   UNL     1      67.892   6.066   7.345  1.00  0.00     0.112 A 
ENDBRANCH   7   8
ENDBRANCH   1   7
BRANCH   2  14
HETATM   14  C   UNL     1      62.567   7.179   2.233  1.00  0.00     0.270 C 
BRANCH  14  15
HETATM   15  N   UNL     1      61.746   8.378   2.069  1.00  0.00    -0.075 N 
HETATM   16  C   UNL     1      62.044   9.056   0.817  1.00  0.00     0.267 C 
HETATM   17  H   UNL     1      61.928   9.016   2.844  1.00  0.00     0.277 HD
HETATM   18  H   UNL     1      60.765   8.098   2.057  1.00  0.00     0.277 HD
ENDBRANCH  14  15
ENDBRANCH   2  14
TORSDOF 4
ENDMDL
MODEL 4
REMARK VINA RESULT:      -4.5      1.527      6.293
REMARK  4 active torsions:
REMARK  status: ('A' for Active; 'I' for Inactive)
REMARK    1  A    between atoms: N_1  and  C_7 
REMARK    2  A    between atoms: C_7  and  C_8 
REMARK    3  A    between atoms: N_9  and  C_15 
REMARK    4  A    between atoms: C_10  and  C_15 
ROOT
HETATM    1  C   UNL     1      63.549   7.522   4.574  1.00  0.00    -0.038 A 
HETATM    2  C   UNL     1      65.587   7.257   6.517  1.00  0.00    -0.033 A 
HETATM    3  C   UNL     1      64.825   8.060   4.351  1.00  0.00     0.009 A 
HETATM    4  C   UNL     1      63.300   6.853   5.778  1.00  0.00     0.009 A 
HETATM    5  C   UNL     1      64.305   6.730   6.743  1.00  0.00     0.009 A 
HETATM    6  C   UNL     1      65.830   7.931   5.313  1.00  0.00     0.009 A 
ENDROOT
BRANCH   1   7
HETATM    7  C   UNL     1      62.477   7.644   3.518  1.00  0.00     0.186 C 
BRANCH   7   8
HETATM    8  N   UNL     1      62.210   9.035   3.174  1.00  0.00    -0.299 N 
HETATM    9  N   UNL     1      62.168   9.421   1.879  1.00  0.00    -0.310 N 
HETATM   10  C   UNL     1      61.938  10.734   1.948  1.00  0.00     0.108 A 
ATOM     11  HN  UNL     1      62.286   8.844   1.046  1.00  0.00     0.186 HD
HETATM   12  C   UNL     1      61.881  11.200   3.274  1.00  0.00     0.037 A 
HETATM   13  C   UNL     1      62.077  10.080   4.046  1.00  0.00     0.112 A 
ENDBRANCH   7   8
ENDBRANCH   1   7
BRANCH   2  14
HETATM   14  C   UNL     1      66.681   7.110   7.550  1.00  0.00     0.270 C 
BRANCH  14  15
HETATM   15  N   UNL     1      67.919   6.611   6.950  1.00  0.00    -0.075 N 
HETATM   16  C   UNL     1      67.872   5.169   6.764  1.00  0.00     0.267 C 
HETATM   17  H   UNL     1      68.702   6.842   7.561  1.00  0.00     0.277 HD
HETATM   18  H   UNL     1      68.033   7.049   6.036  1.00  0.00     0.277 HD
ENDBRANCH  14  15
ENDBRANCH   2  14
TORSDOF 4
ENDMDL
MODEL 5
REMARK VINA RESULT:      -4.3      1.766      2.279
REMARK  4 active torsions:
REMARK  status: ('A' for Active; 'I' for Inactive)
REMARK    1  A    between atoms: N_1  and  C_7 
REMARK    2  A    between atoms: C_7  and  C_8 
REMARK    3  A    between atoms: N_9  and  C_15 
REMARK    4  A    between atoms: C_10  and  C_15 
ROOT
HETATM    1  C   UNL     1      63.700   7.726   4.883  1.00  0.00    -0.038 A 
HETATM    2  C   UNL     1      62.504   8.675   2.502  1.00  0.00    -0.033 A 
HETATM    3  C   UNL     1      63.692   6.938   3.723  1.00  0.00     0.009 A 
HETATM    4  C   UNL     1      63.103   8.991   4.843  1.00  0.00     0.009 A 
HETATM    5  C   UNL     1      62.503   9.457   3.668  1.00  0.00     0.009 A 
HETATM    6  C   UNL     1      63.098   7.407   2.548  1.00  0.00     0.009 A 
ENDROOT
BRANCH   1   7
HETATM    7  C   UNL     1      64.366   7.222   6.140  1.00  0.00     0.186 C 
BRANCH   7   8
HETATM    8  N   UNL     1      65.787   6.968   5.938  1.00  0.00    -0.299 N 
HETATM    9  N   UNL     1      66.608   7.966   5.542  1.00  0.00    -0.310 N 
HETATM   10  C   UNL     1      67.798   7.371   5.431  1.00  0.00     0.108 A 
ATOM     11  HN  UNL     1      66.373   8.943   5.369  1.00  0.00     0.186 HD
HETATM   12  C   UNL     1      67.737   5.992   5.704  1.00  0.00     0.037 A 
HETATM   13  C   UNL     1      66.418   5.756   6.013  1.00  0.00     0.112 A 
ENDBRANCH   7   8
ENDBRANCH   1   7
BRANCH   2  14
HETATM   14  C   UNL     1      61.873   9.182   1.225  1.00  0.00     0.270 C 
BRANCH  14  15
HETATM   15  N   UNL     1      60.418   9.034   1.254  1.00  0.00    -0.075 N 
HETATM   16  C   UNL     1      59.986   7.898   0.453  1.00  0.00     0.267 C 
HETATM   17  H   UNL     1      59.988   9.882   0.884  1.00  0.00     0.277 HD
HETATM   18  H   UNL     1      60.129   8.875   2.219  1.00  0.00     0.277 HD
ENDBRANCH  14  15
ENDBRANCH   2  14
TORSDOF 4
ENDMDL
MODEL 6
REMARK VINA RESULT:      -4.3      2.422      6.729
REMARK  4 active torsions:
REMARK  status: ('A' for Active; 'I' for Inactive)
REMARK    1  A    between atoms: N_1  and  C_7 
REMARK    2  A    between atoms: C_7  and  C_8 
REMARK    3  A    between atoms: N_9  and  C_15 
REMARK    4  A    between atoms: C_10  and  C_15 
ROOT
HETATM    1  C   UNL     1      62.335   8.901   2.528  1.00  0.00    -0.038 A 
HETATM    2  C   UNL     1      64.088   8.144   4.614  1.00  0.00    -0.033 A 
HETATM    3  C   UNL     1      63.065   7.707   2.450  1.00  0.00     0.009 A 
HETATM    4  C   UNL     1      62.490   9.715   3.656  1.00  0.00     0.009 A 
HETATM    5  C   UNL     1      63.364   9.345   4.684  1.00  0.00     0.009 A 
HETATM    6  C   UNL     1      63.933   7.335   3.480  1.00  0.00     0.009 A 
ENDROOT
BRANCH   1   7
HETATM    7  C   UNL     1      61.380   9.282   1.422  1.00  0.00     0.186 C 
BRANCH   7   8
HETATM    8  N   UNL     1      60.257   8.358   1.333  1.00  0.00    -0.299 N 
HETATM    9  N   UNL     1      59.501   8.096   2.422  1.00  0.00    -0.310 N 
HETATM   10  C   UNL     1      58.610   7.205   1.982  1.00  0.00     0.108 A 
ATOM     11  HN  UNL     1      59.590   8.488   3.360  1.00  0.00     0.186 HD
HETATM   12  C   UNL     1      58.819   6.856   0.635  1.00  0.00     0.037 A 
HETATM   13  C   UNL     1      59.903   7.607   0.245  1.00  0.00     0.112 A 
ENDBRANCH   7   8
ENDBRANCH   1   7
BRANCH   2  14
HETATM   14  C   UNL     1      65.019   7.732   5.731  1.00  0.00     0.270 C 
BRANCH  14  15
HETATM   15  N   UNL     1      64.305   7.009   6.784  1.00  0.00    -0.075 N 
HETATM   16  C   UNL     1      64.627   5.591   6.764  1.00  0.00     0.267 C 
HETATM   17  H   UNL     1      63.301   7.124   6.645  1.00  0.00     0.277 HD
HETATM   18  H   UNL     1      64.589   7.390   7.686  1.00  0.00     0.277 HD
ENDBRANCH  14  15
ENDBRANCH   2  14
TORSDOF 4
ENDMDL
MODEL 7
REMARK VINA RESULT:      -4.1      2.451      6.750
REMARK  4 active torsions:
REMARK  status: ('A' for Active; 'I' for Inactive)
REMARK    1  A    between atoms: N_1  and  C_7 
REMARK    2  A    between atoms: C_7  and  C_8 
REMARK    3  A    between atoms: N_9  and  C_15 
REMARK    4  A    between atoms: C_10  and  C_15 
ROOT
HETATM    1  C   UNL     1      66.906   6.994   6.878  1.00  0.00    -0.038 A 
HETATM    2  C   UNL     1      67.387   4.537   8.193  1.00  0.00    -0.033 A 
HETATM    3  C   UNL     1      67.821   6.071   6.355  1.00  0.00     0.009 A 
HETATM    4  C   UNL     1      66.235   6.681   8.066  1.00  0.00     0.009 A 
HETATM    5  C   UNL     1      66.480   5.469   8.721  1.00  0.00     0.009 A 
HETATM    6  C   UNL     1      68.061   4.858   7.007  1.00  0.00     0.009 A 
ENDROOT
BRANCH   1   7
HETATM    7  C   UNL     1      66.635   8.291   6.153  1.00  0.00     0.186 C 
BRANCH   7   8
HETATM    8  N   UNL     1      65.416   8.222   5.357  1.00  0.00    -0.299 N 
HETATM    9  N   UNL     1      64.429   9.126   5.542  1.00  0.00    -0.310 N 
HETATM   10  C   UNL     1      63.482   8.741   4.683  1.00  0.00     0.108 A 
ATOM     11  HN  UNL     1      64.411   9.916   6.187  1.00  0.00     0.186 HD
HETATM   12  C   UNL     1      63.833   7.571   3.985  1.00  0.00     0.037 A 
HETATM   13  C   UNL     1      65.085   7.248   4.454  1.00  0.00     0.112 A 
ENDBRANCH   7   8
ENDBRANCH   1   7
BRANCH   2  14
HETATM   14  C   UNL     1      67.641   3.219   8.889  1.00  0.00     0.270 C 
BRANCH  14  15
HETATM   15  N   UNL     1      67.482   2.091   7.971  1.00  0.00    -0.075 N 
HETATM   16  C   UNL     1      67.029   0.899   8.671  1.00  0.00     0.267 C 
HETATM   17  H   UNL     1      68.377   1.894   7.525  1.00  0.00     0.277 HD
HETATM   18  H   UNL     1      66.779   2.340   7.274  1.00  0.00     0.277 HD
ENDBRANCH  14  15
ENDBRANCH   2  14
TORSDOF 4
ENDMDL
MODEL 8
REMARK VINA RESULT:      -4.1      2.147      2.791
REMARK  4 active torsions:
REMARK  status: ('A' for Active; 'I' for Inactive)
REMARK    1  A    between atoms: N_1  and  C_7 
REMARK    2  A    between atoms: C_7  and  C_8 
REMARK    3  A    between atoms: N_9  and  C_15 
REMARK    4  A    between atoms: C_10  and  C_15 
ROOT
HETATM    1  C   UNL     1      63.738   8.243   4.950  1.00  0.00    -0.038 A 
HETATM    2  C   UNL     1      61.183   7.353   4.128  1.00  0.00    -0.033 A 
HETATM    3  C   UNL     1      63.175   8.696   3.749  1.00  0.00     0.009 A 
HETATM    4  C   UNL     1      63.014   7.339   5.736  1.00  0.00     0.009 A 
HETATM    5  C   UNL     1      61.754   6.891   5.324  1.00  0.00     0.009 A 
HETATM    6  C   UNL     1      61.914   8.253   3.342  1.00  0.00     0.009 A 
ENDROOT
BRANCH   1   7
HETATM    7  C   UNL     1      65.090   8.746   5.394  1.00  0.00     0.186 C 
BRANCH   7   8
HETATM    8  N   UNL     1      65.948   7.663   5.857  1.00  0.00    -0.299 N 
HETATM    9  N   UNL     1      66.267   7.557   7.166  1.00  0.00    -0.310 N 
HETATM   10  C   UNL     1      67.072   6.493   7.211  1.00  0.00     0.108 A 
ATOM     11  HN  UNL     1      65.964   8.151   7.938  1.00  0.00     0.186 HD
HETATM   12  C   UNL     1      67.311   5.947   5.937  1.00  0.00     0.037 A 
HETATM   13  C   UNL     1      66.583   6.735   5.077  1.00  0.00     0.112 A 
ENDBRANCH   7   8
ENDBRANCH   1   7
BRANCH   2  14
HETATM   14  C   UNL     1      59.814   6.886   3.689  1.00  0.00     0.270 C 
BRANCH  14  15
HETATM   15  N   UNL     1      58.855   7.991   3.661  1.00  0.00    -0.075 N 
HETATM   16  C   UNL     1      57.604   7.622   4.305  1.00  0.00     0.267 C 
HETATM   17  H   UNL     1      58.668   8.246   2.692  1.00  0.00     0.277 HD
HETATM   18  H   UNL     1      59.258   8.779   4.170  1.00  0.00     0.277 HD
ENDBRANCH  14  15
ENDBRANCH   2  14
TORSDOF 4
ENDMDL
MODEL 9
REMARK VINA RESULT:      -4.1     11.815     13.956
REMARK  4 active torsions:
REMARK  status: ('A' for Active; 'I' for Inactive)
REMARK    1  A    between atoms: N_1  and  C_7 
REMARK    2  A    between atoms: C_7  and  C_8 
REMARK    3  A    between atoms: N_9  and  C_15 
REMARK    4  A    between atoms: C_10  and  C_15 
ROOT
HETATM    1  C   UNL     1      57.323   0.526  13.826  1.00  0.00    -0.038 A 
HETATM    2  C   UNL     1      59.942   0.148  12.828  1.00  0.00    -0.033 A 
HETATM    3  C   UNL     1      57.711  -0.708  13.286  1.00  0.00     0.009 A 
HETATM    4  C   UNL     1      58.254   1.571  13.860  1.00  0.00     0.009 A 
HETATM    5  C   UNL     1      59.546   1.387  13.357  1.00  0.00     0.009 A 
HETATM    6  C   UNL     1      59.004  -0.893  12.790  1.00  0.00     0.009 A 
ENDROOT
BRANCH   1   7
HETATM    7  C   UNL     1      55.931   0.710  14.382  1.00  0.00     0.186 C 
BRANCH   7   8
HETATM    8  N   UNL     1      55.309   1.934  13.896  1.00  0.00    -0.299 N 
HETATM    9  N   UNL     1      55.089   2.968  14.739  1.00  0.00    -0.310 N 
HETATM   10  C   UNL     1      54.490   3.881  13.970  1.00  0.00     0.108 A 
ATOM     11  HN  UNL     1      55.324   3.035  15.729  1.00  0.00     0.186 HD
HETATM   12  C   UNL     1      54.281   3.422  12.656  1.00  0.00     0.037 A 
HETATM   13  C   UNL     1      54.807   2.152  12.642  1.00  0.00     0.112 A 
ENDBRANCH   7   8
ENDBRANCH   1   7
BRANCH   2  14
HETATM   14  C   UNL     1      61.343  -0.060  12.300  1.00  0.00     0.270 C 
BRANCH  14  15
HETATM   15  N   UNL     1      61.988  -1.209  12.938  1.00  0.00    -0.075 N 
HETATM   16  C   UNL     1      63.421  -1.001  13.076  1.00  0.00     0.267 C 
HETATM   17  H   UNL     1      61.827  -2.040  12.370  1.00  0.00     0.277 HD
HETATM   18  H   UNL     1      61.590  -1.326  13.869  1.00  0.00     0.277 HD
ENDBRANCH  14  15
ENDBRANCH   2  14
TORSDOF 4
ENDMDL
