MODEL 1
REMARK VINA RESULT:      -4.1      0.000      0.000
REMARK  1 active torsions:
REMARK  status: ('A' for Active; 'I' for Inactive)
REMARK    1  A    between atoms: C_1  and  C_5 
ROOT
HETATM    1  C   UNK     1      62.752   9.595   4.826  1.00  0.00     0.134 A 
HETATM    2  N   UNK     1      62.378   9.660   3.493  1.00  0.00    -0.333 N 
ATOM      3  HN  UNK     1      62.327   8.898   2.817  1.00  0.00     0.168 HD
HETATM    4  C   UNK     1      62.681  10.858   5.371  1.00  0.00     0.180 A 
HETATM    5  C   UNK     1      62.104  10.934   3.300  1.00  0.00     0.119 A 
HETATM    6  O   UNK     1      62.268  11.723   4.405  1.00  0.00    -0.308 OA
HETATM    7  C   UNK     1      61.645  11.614   2.074  1.00  0.00     0.098 C 
ENDROOT
BRANCH   1   8
HETATM    8  C   UNK     1      63.148   8.396   5.537  1.00  0.00     0.228 C 
HETATM    9  O   UNK     1      62.796   8.099   6.672  1.00  0.00    -0.643 OA
HETATM   10  O   UNK     1      63.971   7.571   4.851  1.00  0.00    -0.643 OA
ENDBRANCH   1   8
TORSDOF 1
ENDMDL
MODEL 2
REMARK VINA RESULT:      -4.0      2.000      3.107
REMARK  1 active torsions:
REMARK  status: ('A' for Active; 'I' for Inactive)
REMARK    1  A    between atoms: C_1  and  C_5 
ROOT
HETATM    1  C   UNK     1      62.308   9.969   3.672  1.00  0.00     0.134 A 
HETATM    2  N   UNK     1      61.477  10.000   2.562  1.00  0.00    -0.333 N 
ATOM      3  HN  UNK     1      60.806  10.722   2.300  1.00  0.00     0.168 HD
HETATM    4  C   UNK     1      63.052   8.810   3.638  1.00  0.00     0.180 A 
HETATM    5  C   UNK     1      61.754   8.882   1.925  1.00  0.00     0.119 A 
HETATM    6  O   UNK     1      62.708   8.107   2.526  1.00  0.00    -0.308 OA
HETATM    7  C   UNK     1      61.190   8.362   0.664  1.00  0.00     0.098 C 
ENDROOT
BRANCH   1   8
HETATM    8  C   UNK     1      62.388  10.988   4.698  1.00  0.00     0.228 C 
HETATM    9  O   UNK     1      61.940  12.124   4.601  1.00  0.00    -0.643 OA
HETATM   10  O   UNK     1      63.017  10.608   5.833  1.00  0.00    -0.643 OA
ENDBRANCH   1   8
TORSDOF 1
ENDMDL
MODEL 3
REMARK VINA RESULT:      -4.0      1.924      3.902
REMARK  1 active torsions:
REMARK  status: ('A' for Active; 'I' for Inactive)
REMARK    1  A    between atoms: C_1  and  C_5 
ROOT
HETATM    1  C   UNK     1      61.800   9.966   3.676  1.00  0.00     0.134 A 
HETATM    2  N   UNK     1      60.786   9.116   3.260  1.00  0.00    -0.333 N 
ATOM      3  HN  UNK     1      59.966   9.345   2.698  1.00  0.00     0.168 HD
HETATM    4  C   UNK     1      62.709   9.244   4.417  1.00  0.00     0.180 A 
HETATM    5  C   UNK     1      61.126   7.946   3.759  1.00  0.00     0.119 A 
HETATM    6  O   UNK     1      62.290   7.951   4.477  1.00  0.00    -0.308 OA
HETATM    7  C   UNK     1      60.435   6.647   3.643  1.00  0.00     0.098 C 
ENDROOT
BRANCH   1   8
HETATM    8  C   UNK     1      61.894  11.381   3.379  1.00  0.00     0.228 C 
HETATM    9  O   UNK     1      61.979  11.862   2.255  1.00  0.00    -0.643 OA
HETATM   10  O   UNK     1      61.885  12.193   4.460  1.00  0.00    -0.643 OA
ENDBRANCH   1   8
TORSDOF 1
ENDMDL
MODEL 4
REMARK VINA RESULT:      -3.9      2.086      3.919
REMARK  1 active torsions:
REMARK  status: ('A' for Active; 'I' for Inactive)
REMARK    1  A    between atoms: C_1  and  C_5 
ROOT
HETATM    1  C   UNK     1      63.411   9.701   4.875  1.00  0.00     0.134 A 
HETATM    2  N   UNK     1      64.478   9.047   5.471  1.00  0.00    -0.333 N 
ATOM      3  HN  UNK     1      65.017   9.339   6.287  1.00  0.00     0.168 HD
HETATM    4  C   UNK     1      62.980   8.959   3.798  1.00  0.00     0.180 A 
HETATM    5  C   UNK     1      64.637   7.964   4.740  1.00  0.00     0.119 A 
HETATM    6  O   UNK     1      63.756   7.846   3.701  1.00  0.00    -0.308 OA
HETATM    7  C   UNK     1      65.619   6.872   4.892  1.00  0.00     0.098 C 
ENDROOT
BRANCH   1   8
HETATM    8  C   UNK     1      62.835  10.956   5.313  1.00  0.00     0.228 C 
HETATM    9  O   UNK     1      62.056  11.641   4.662  1.00  0.00    -0.643 OA
HETATM   10  O   UNK     1      63.220  11.362   6.544  1.00  0.00    -0.643 OA
ENDBRANCH   1   8
TORSDOF 1
ENDMDL
MODEL 5
REMARK VINA RESULT:      -3.8      3.834      4.899
REMARK  1 active torsions:
REMARK  status: ('A' for Active; 'I' for Inactive)
REMARK    1  A    between atoms: C_1  and  C_5 
ROOT
HETATM    1  C   UNK     1      66.026   7.080   7.153  1.00  0.00     0.134 A 
HETATM    2  N   UNK     1      64.768   7.269   6.601  1.00  0.00    -0.333 N 
ATOM      3  HN  UNK     1      63.885   6.849   6.892  1.00  0.00     0.168 HD
HETATM    4  C   UNK     1      66.937   7.839   6.453  1.00  0.00     0.180 A 
HETATM    5  C   UNK     1      64.976   8.117   5.616  1.00  0.00     0.119 A 
HETATM    6  O   UNK     1      66.279   8.507   5.468  1.00  0.00    -0.308 OA
HETATM    7  C   UNK     1      64.008   8.701   4.668  1.00  0.00     0.098 C 
ENDROOT
BRANCH   1   8
HETATM    8  C   UNK     1      66.335   6.227   8.283  1.00  0.00     0.228 C 
HETATM    9  O   UNK     1      65.933   5.080   8.432  1.00  0.00    -0.643 OA
HETATM   10  O   UNK     1      67.131   6.789   9.220  1.00  0.00    -0.643 OA
ENDBRANCH   1   8
TORSDOF 1
ENDMDL
MODEL 6
REMARK VINA RESULT:      -3.6      1.995      3.633
REMARK  1 active torsions:
REMARK  status: ('A' for Active; 'I' for Inactive)
REMARK    1  A    between atoms: C_1  and  C_5 
ROOT
HETATM    1  C   UNK     1      63.026   9.598   4.471  1.00  0.00     0.134 A 
HETATM    2  N   UNK     1      63.782   8.474   4.174  1.00  0.00    -0.333 N 
ATOM      3  HN  UNK     1      63.594   7.759   3.470  1.00  0.00     0.168 HD
HETATM    4  C   UNK     1      63.641  10.291   5.490  1.00  0.00     0.180 A 
HETATM    5  C   UNK     1      64.796   8.541   5.010  1.00  0.00     0.119 A 
HETATM    6  O   UNK     1      64.774   9.626   5.843  1.00  0.00    -0.308 OA
HETATM    7  C   UNK     1      65.941   7.623   5.164  1.00  0.00     0.098 C 
ENDROOT
BRANCH   1   8
HETATM    8  C   UNK     1      61.794   9.987   3.816  1.00  0.00     0.228 C 
HETATM    9  O   UNK     1      61.472  11.137   3.544  1.00  0.00    -0.643 OA
HETATM   10  O   UNK     1      60.967   8.964   3.500  1.00  0.00    -0.643 OA
ENDBRANCH   1   8
TORSDOF 1
ENDMDL
MODEL 7
REMARK VINA RESULT:      -3.6      4.120      6.130
REMARK  1 active torsions:
REMARK  status: ('A' for Active; 'I' for Inactive)
REMARK    1  A    between atoms: C_1  and  C_5 
ROOT
HETATM    1  C   UNK     1      66.106   7.657   6.097  1.00  0.00     0.134 A 
HETATM    2  N   UNK     1      66.017   7.283   7.429  1.00  0.00    -0.333 N 
ATOM      3  HN  UNK     1      65.266   7.484   8.089  1.00  0.00     0.168 HD
HETATM    4  C   UNK     1      67.288   7.177   5.578  1.00  0.00     0.180 A 
HETATM    5  C   UNK     1      67.127   6.608   7.645  1.00  0.00     0.119 A 
HETATM    6  O   UNK     1      67.950   6.505   6.557  1.00  0.00    -0.308 OA
HETATM    7  C   UNK     1      67.594   5.952   8.882  1.00  0.00     0.098 C 
ENDROOT
BRANCH   1   8
HETATM    8  C   UNK     1      65.117   8.422   5.365  1.00  0.00     0.228 C 
HETATM    9  O   UNK     1      64.751   9.557   5.649  1.00  0.00    -0.643 OA
HETATM   10  O   UNK     1      64.584   7.792   4.294  1.00  0.00    -0.643 OA
ENDBRANCH   1   8
TORSDOF 1
ENDMDL
MODEL 8
REMARK VINA RESULT:      -3.3     12.249     13.131
REMARK  1 active torsions:
REMARK  status: ('A' for Active; 'I' for Inactive)
REMARK    1  A    between atoms: C_1  and  C_5 
ROOT
HETATM    1  C   UNK     1      57.534   2.051  13.357  1.00  0.00     0.134 A 
HETATM    2  N   UNK     1      56.396   2.163  14.140  1.00  0.00    -0.333 N 
ATOM      3  HN  UNK     1      56.250   1.818  15.090  1.00  0.00     0.168 HD
HETATM    4  C   UNK     1      57.299   2.655  12.142  1.00  0.00     0.180 A 
HETATM    5  C   UNK     1      55.545   2.816  13.376  1.00  0.00     0.119 A 
HETATM    6  O   UNK     1      56.031   3.148  12.142  1.00  0.00    -0.308 OA
HETATM    7  C   UNK     1      54.162   3.239  13.669  1.00  0.00     0.098 C 
ENDROOT
BRANCH   1   8
HETATM    8  C   UNK     1      58.772   1.410  13.751  1.00  0.00     0.228 C 
HETATM    9  O   UNK     1      59.895   1.805  13.459  1.00  0.00    -0.643 OA
HETATM   10  O   UNK     1      58.625   0.291  14.496  1.00  0.00    -0.643 OA
ENDBRANCH   1   8
TORSDOF 1
ENDMDL
MODEL 9
REMARK VINA RESULT:      -3.1      3.320      4.760
REMARK  1 active torsions:
REMARK  status: ('A' for Active; 'I' for Inactive)
REMARK    1  A    between atoms: C_1  and  C_5 
ROOT
HETATM    1  C   UNK     1      64.584   7.470   6.010  1.00  0.00     0.134 A 
HETATM    2  N   UNK     1      65.507   8.063   5.163  1.00  0.00    -0.333 N 
ATOM      3  HN  UNK     1      65.332   8.724   4.406  1.00  0.00     0.168 HD
HETATM    4  C   UNK     1      65.251   6.643   6.886  1.00  0.00     0.180 A 
HETATM    5  C   UNK     1      66.664   7.575   5.561  1.00  0.00     0.119 A 
HETATM    6  O   UNK     1      66.581   6.702   6.610  1.00  0.00    -0.308 OA
HETATM    7  C   UNK     1      68.019   7.846   5.041  1.00  0.00     0.098 C 
ENDROOT
BRANCH   1   8
HETATM    8  C   UNK     1      63.151   7.686   5.985  1.00  0.00     0.228 C 
HETATM    9  O   UNK     1      62.390   7.478   6.922  1.00  0.00    -0.643 OA
HETATM   10  O   UNK     1      62.665   8.153   4.813  1.00  0.00    -0.643 OA
ENDBRANCH   1   8
TORSDOF 1
ENDMDL
