MODEL 1
REMARK VINA RESULT:      -5.5      0.000      0.000
REMARK  4 active torsions:
REMARK  status: ('A' for Active; 'I' for Inactive)
REMARK    1  A    between atoms: C_1  and  C_5 
REMARK    2  A    between atoms: C_2  and  C_13 
REMARK    3  A    between atoms: C_3  and  N_4 
REMARK    4  A    between atoms: C_13  and  N_14 
ROOT
HETATM    1  C   UNL     1      65.545   7.672   5.556  1.00  0.00    -0.005 A 
HETATM    2  C   UNL     1      64.932   6.842   6.529  1.00  0.00     0.038 A 
HETATM    3  C   UNL     1      63.345   8.465   4.782  1.00  0.00     0.048 A 
HETATM    4  C   UNL     1      64.742   8.493   4.727  1.00  0.00     0.027 A 
HETATM    5  C   UNL     1      63.523   6.819   6.553  1.00  0.00     0.031 A 
HETATM    6  C   UNL     1      62.741   7.603   5.696  1.00  0.00     0.018 A 
ENDROOT
BRANCH   2   7
HETATM    7  N   UNL     1      65.647   6.027   7.386  1.00  0.00    -0.376 N 
HETATM    8  C   UNL     1      65.578   4.561   7.330  1.00  0.00     0.149 C 
HETATM    9  C   UNL     1      66.989   3.992   7.578  1.00  0.00     0.187 C 
HETATM   10  O   UNL     1      67.545   4.456   8.823  1.00  0.00    -0.388 OA
HETATM   11  C   UNL     1      67.617   5.896   8.827  1.00  0.00     0.187 C 
HETATM   12  C   UNL     1      66.226   6.521   8.643  1.00  0.00     0.149 C 
ENDBRANCH   2   7
BRANCH   1  13
HETATM   13  C   UNL     1      67.036   7.670   5.236  1.00  0.00     0.272 C 
BRANCH  13  14
HETATM   14  N   UNL     1      67.398   6.986   3.993  1.00  0.00    -0.075 N 
HETATM   15  C   UNL     1      67.109   5.558   4.021  1.00  0.00     0.267 C 
HETATM   16  H   UNL     1      68.398   7.111   3.832  1.00  0.00     0.277 HD
HETATM   17  H   UNL     1      66.837   7.394   3.245  1.00  0.00     0.277 HD
ENDBRANCH  13  14
ENDBRANCH   1  13
BRANCH   3  18
HETATM   18  C   UNL     1      62.507   9.316   3.859  1.00  0.00     0.417 C 
HETATM   19  F   UNL     1      62.586  10.652   4.128  1.00  0.00    -0.166 F 
HETATM   20  F   UNL     1      61.184   9.001   3.911  1.00  0.00    -0.166 F 
HETATM   21  F   UNL     1      62.872   9.179   2.553  1.00  0.00    -0.166 F 
ENDBRANCH   3  18
TORSDOF 4
ENDMDL
MODEL 2
REMARK VINA RESULT:      -5.2      1.776      2.445
REMARK  4 active torsions:
REMARK  status: ('A' for Active; 'I' for Inactive)
REMARK    1  A    between atoms: C_1  and  C_5 
REMARK    2  A    between atoms: C_2  and  C_13 
REMARK    3  A    between atoms: C_3  and  N_4 
REMARK    4  A    between atoms: C_13  and  N_14 
ROOT
HETATM    1  C   UNL     1      64.074   7.087   3.625  1.00  0.00    -0.005 A 
HETATM    2  C   UNL     1      64.264   7.830   4.819  1.00  0.00     0.038 A 
HETATM    3  C   UNL     1      62.588   8.833   2.722  1.00  0.00     0.048 A 
HETATM    4  C   UNL     1      63.270   7.619   2.587  1.00  0.00     0.027 A 
HETATM    5  C   UNL     1      63.552   9.041   4.937  1.00  0.00     0.031 A 
HETATM    6  C   UNL     1      62.724   9.532   3.920  1.00  0.00     0.018 A 
ENDROOT
BRANCH   2   7
HETATM    7  N   UNL     1      65.047   7.389   5.867  1.00  0.00    -0.376 N 
HETATM    8  C   UNL     1      64.523   6.545   6.950  1.00  0.00     0.149 C 
HETATM    9  C   UNL     1      65.589   5.495   7.316  1.00  0.00     0.187 C 
HETATM   10  O   UNL     1      66.845   6.105   7.671  1.00  0.00    -0.388 OA
HETATM   11  C   UNL     1      67.335   6.902   6.575  1.00  0.00     0.187 C 
HETATM   12  C   UNL     1      66.336   8.008   6.204  1.00  0.00     0.149 C 
ENDBRANCH   2   7
BRANCH   1  13
HETATM   13  C   UNL     1      64.584   5.668   3.402  1.00  0.00     0.272 C 
BRANCH  13  14
HETATM   14  N   UNL     1      66.031   5.558   3.200  1.00  0.00    -0.075 N 
HETATM   15  C   UNL     1      66.619   4.418   3.891  1.00  0.00     0.267 C 
HETATM   16  H   UNL     1      66.472   6.410   3.545  1.00  0.00     0.277 HD
HETATM   17  H   UNL     1      66.189   5.422   2.201  1.00  0.00     0.277 HD
ENDBRANCH  13  14
ENDBRANCH   1  13
BRANCH   3  18
HETATM   18  C   UNL     1      61.700   9.359   1.621  1.00  0.00     0.417 C 
HETATM   19  F   UNL     1      61.471  10.702   1.700  1.00  0.00    -0.166 F 
HETATM   20  F   UNL     1      60.474   8.770   1.610  1.00  0.00    -0.166 F 
HETATM   21  F   UNL     1      62.228   9.145   0.383  1.00  0.00    -0.166 F 
ENDBRANCH   3  18
TORSDOF 4
ENDMDL
MODEL 3
REMARK VINA RESULT:      -5.1      2.147      2.823
REMARK  4 active torsions:
REMARK  status: ('A' for Active; 'I' for Inactive)
REMARK    1  A    between atoms: C_1  and  C_5 
REMARK    2  A    between atoms: C_2  and  C_13 
REMARK    3  A    between atoms: C_3  and  N_4 
REMARK    4  A    between atoms: C_13  and  N_14 
ROOT
HETATM    1  C   UNL     1      64.066   7.094   3.561  1.00  0.00    -0.005 A 
HETATM    2  C   UNL     1      64.289   7.841   4.747  1.00  0.00     0.038 A 
HETATM    3  C   UNL     1      62.579   8.850   2.681  1.00  0.00     0.048 A 
HETATM    4  C   UNL     1      63.245   7.629   2.538  1.00  0.00     0.027 A 
HETATM    5  C   UNL     1      63.592   9.059   4.874  1.00  0.00     0.031 A 
HETATM    6  C   UNL     1      62.747   9.554   3.872  1.00  0.00     0.018 A 
ENDROOT
BRANCH   2   7
HETATM    7  N   UNL     1      65.089   7.396   5.780  1.00  0.00    -0.376 N 
HETATM    8  C   UNL     1      64.574   6.591   6.895  1.00  0.00     0.149 C 
HETATM    9  C   UNL     1      65.619   5.516   7.252  1.00  0.00     0.187 C 
HETATM   10  O   UNL     1      66.902   6.094   7.557  1.00  0.00    -0.388 OA
HETATM   11  C   UNL     1      67.383   6.855   6.430  1.00  0.00     0.187 C 
HETATM   12  C   UNL     1      66.406   7.983   6.066  1.00  0.00     0.149 C 
ENDBRANCH   2   7
BRANCH   1  13
HETATM   13  C   UNL     1      64.557   5.668   3.335  1.00  0.00     0.272 C 
BRANCH  13  14
HETATM   14  N   UNL     1      63.499   4.661   3.231  1.00  0.00    -0.075 N 
HETATM   15  C   UNL     1      63.078   4.141   4.526  1.00  0.00     0.267 C 
HETATM   16  H   UNL     1      63.844   3.885   2.666  1.00  0.00     0.277 HD
HETATM   17  H   UNL     1      62.689   5.113   2.808  1.00  0.00     0.277 HD
ENDBRANCH  13  14
ENDBRANCH   1  13
BRANCH   3  18
HETATM   18  C   UNL     1      61.673   9.380   1.596  1.00  0.00     0.417 C 
HETATM   19  F   UNL     1      61.443  10.723   1.685  1.00  0.00    -0.166 F 
HETATM   20  F   UNL     1      60.447   8.789   1.602  1.00  0.00    -0.166 F 
HETATM   21  F   UNL     1      62.181   9.173   0.349  1.00  0.00    -0.166 F 
ENDBRANCH   3  18
TORSDOF 4
ENDMDL
MODEL 4
REMARK VINA RESULT:      -5.0      1.715      2.866
REMARK  4 active torsions:
REMARK  status: ('A' for Active; 'I' for Inactive)
REMARK    1  A    between atoms: C_1  and  C_5 
REMARK    2  A    between atoms: C_2  and  C_13 
REMARK    3  A    between atoms: C_3  and  N_4 
REMARK    4  A    between atoms: C_13  and  N_14 
ROOT
HETATM    1  C   UNL     1      64.776   7.868   5.101  1.00  0.00    -0.005 A 
HETATM    2  C   UNL     1      64.621   6.757   4.231  1.00  0.00     0.038 A 
HETATM    3  C   UNL     1      63.017   9.108   3.902  1.00  0.00     0.048 A 
HETATM    4  C   UNL     1      63.948   9.005   4.942  1.00  0.00     0.027 A 
HETATM    5  C   UNL     1      63.690   6.893   3.182  1.00  0.00     0.031 A 
HETATM    6  C   UNL     1      62.909   8.043   3.010  1.00  0.00     0.018 A 
ENDROOT
BRANCH   2   7
HETATM    7  N   UNL     1      65.377   5.606   4.333  1.00  0.00    -0.376 N 
HETATM    8  C   UNL     1      66.684   5.453   3.679  1.00  0.00     0.149 C 
HETATM    9  C   UNL     1      67.626   4.695   4.634  1.00  0.00     0.187 C 
HETATM   10  O   UNL     1      67.077   3.426   5.038  1.00  0.00    -0.388 OA
HETATM   11  C   UNL     1      65.809   3.624   5.696  1.00  0.00     0.187 C 
HETATM   12  C   UNL     1      64.806   4.324   4.767  1.00  0.00     0.149 C 
ENDBRANCH   2   7
BRANCH   1  13
HETATM   13  C   UNL     1      65.872   7.992   6.153  1.00  0.00     0.272 C 
BRANCH  13  14
HETATM   14  N   UNL     1      65.666   7.182   7.356  1.00  0.00    -0.075 N 
HETATM   15  C   UNL     1      66.885   6.534   7.823  1.00  0.00     0.267 C 
HETATM   16  H   UNL     1      64.975   6.462   7.148  1.00  0.00     0.277 HD
HETATM   17  H   UNL     1      65.353   7.810   8.096  1.00  0.00     0.277 HD
ENDBRANCH  13  14
ENDBRANCH   1  13
BRANCH   3  18
HETATM   18  C   UNL     1      62.176  10.349   3.724  1.00  0.00     0.417 C 
HETATM   19  F   UNL     1      62.511  11.361   4.577  1.00  0.00    -0.166 F 
HETATM   20  F   UNL     1      60.850  10.115   3.923  1.00  0.00    -0.166 F 
HETATM   21  F   UNL     1      62.279  10.871   2.470  1.00  0.00    -0.166 F 
ENDBRANCH   3  18
TORSDOF 4
ENDMDL
MODEL 5
REMARK VINA RESULT:      -4.8      2.510      3.670
REMARK  4 active torsions:
REMARK  status: ('A' for Active; 'I' for Inactive)
REMARK    1  A    between atoms: C_1  and  C_5 
REMARK    2  A    between atoms: C_2  and  C_13 
REMARK    3  A    between atoms: C_3  and  N_4 
REMARK    4  A    between atoms: C_13  and  N_14 
ROOT
HETATM    1  C   UNL     1      63.880   8.056   4.094  1.00  0.00    -0.005 A 
HETATM    2  C   UNL     1      64.611   6.852   3.923  1.00  0.00     0.038 A 
HETATM    3  C   UNL     1      62.611   7.633   2.026  1.00  0.00     0.048 A 
HETATM    4  C   UNL     1      62.871   8.404   3.163  1.00  0.00     0.027 A 
HETATM    5  C   UNL     1      64.341   6.102   2.761  1.00  0.00     0.031 A 
HETATM    6  C   UNL     1      63.371   6.483   1.825  1.00  0.00     0.018 A 
ENDROOT
BRANCH   2   7
HETATM    7  N   UNL     1      65.596   6.435   4.797  1.00  0.00    -0.376 N 
HETATM    8  C   UNL     1      67.020   6.727   4.586  1.00  0.00     0.149 C 
HETATM    9  C   UNL     1      67.661   7.058   5.948  1.00  0.00     0.187 C 
HETATM   10  O   UNL     1      67.467   6.000   6.905  1.00  0.00    -0.388 OA
HETATM   11  C   UNL     1      66.058   5.762   7.100  1.00  0.00     0.187 C 
HETATM   12  C   UNL     1      65.375   5.368   5.782  1.00  0.00     0.149 C 
ENDBRANCH   2   7
BRANCH   1  13
HETATM   13  C   UNL     1      64.177   9.100   5.166  1.00  0.00     0.272 C 
BRANCH  13  14
HETATM   14  N   UNL     1      62.995   9.738   5.748  1.00  0.00    -0.075 N 
HETATM   15  C   UNL     1      63.100  11.191   5.805  1.00  0.00     0.267 C 
HETATM   16  H   UNL     1      62.869   9.385   6.696  1.00  0.00     0.277 HD
HETATM   17  H   UNL     1      62.201   9.515   5.148  1.00  0.00     0.277 HD
ENDBRANCH  13  14
ENDBRANCH   1  13
BRANCH   3  18
HETATM   18  C   UNL     1      61.561   8.046   1.023  1.00  0.00     0.417 C 
HETATM   19  F   UNL     1      60.412   8.508   1.596  1.00  0.00    -0.166 F 
HETATM   20  F   UNL     1      61.187   7.025   0.205  1.00  0.00    -0.166 F 
HETATM   21  F   UNL     1      61.993   9.043   0.201  1.00  0.00    -0.166 F 
ENDBRANCH   3  18
TORSDOF 4
ENDMDL
MODEL 6
REMARK VINA RESULT:      -4.8      4.281      6.502
REMARK  4 active torsions:
REMARK  status: ('A' for Active; 'I' for Inactive)
REMARK    1  A    between atoms: C_1  and  C_5 
REMARK    2  A    between atoms: C_2  and  C_13 
REMARK    3  A    between atoms: C_3  and  N_4 
REMARK    4  A    between atoms: C_13  and  N_14 
ROOT
HETATM    1  C   UNL     1      63.415   7.306   5.912  1.00  0.00    -0.005 A 
HETATM    2  C   UNL     1      63.806   8.148   4.840  1.00  0.00     0.038 A 
HETATM    3  C   UNL     1      65.755   7.080   6.649  1.00  0.00     0.048 A 
HETATM    4  C   UNL     1      64.390   6.819   6.816  1.00  0.00     0.027 A 
HETATM    5  C   UNL     1      65.188   8.382   4.684  1.00  0.00     0.031 A 
HETATM    6  C   UNL     1      66.146   7.855   5.559  1.00  0.00     0.018 A 
ENDROOT
BRANCH   2   7
HETATM    7  N   UNL     1      62.914   8.678   3.929  1.00  0.00    -0.376 N 
HETATM    8  C   UNL     1      62.082   9.853   4.223  1.00  0.00     0.149 C 
HETATM    9  C   UNL     1      62.007  10.732   2.960  1.00  0.00     0.187 C 
HETATM   10  O   UNL     1      61.515   9.999   1.822  1.00  0.00    -0.388 OA
HETATM   11  C   UNL     1      62.372   8.871   1.554  1.00  0.00     0.187 C 
HETATM   12  C   UNL     1      62.437   7.924   2.761  1.00  0.00     0.149 C 
ENDBRANCH   2   7
BRANCH   1  13
HETATM   13  C   UNL     1      62.002   6.770   6.115  1.00  0.00     0.272 C 
BRANCH  13  14
HETATM   14  N   UNL     1      61.925   5.344   6.439  1.00  0.00    -0.075 N 
HETATM   15  C   UNL     1      60.645   4.959   7.021  1.00  0.00     0.267 C 
HETATM   16  H   UNL     1      62.664   5.122   7.105  1.00  0.00     0.277 HD
HETATM   17  H   UNL     1      62.029   4.827   5.566  1.00  0.00     0.277 HD
ENDBRANCH  13  14
ENDBRANCH   1  13
BRANCH   3  18
HETATM   18  C   UNL     1      66.782   6.513   7.598  1.00  0.00     0.417 C 
HETATM   19  F   UNL     1      66.404   5.332   8.168  1.00  0.00    -0.166 F 
HETATM   20  F   UNL     1      67.061   7.354   8.631  1.00  0.00    -0.166 F 
HETATM   21  F   UNL     1      67.974   6.266   6.986  1.00  0.00    -0.166 F 
ENDBRANCH   3  18
TORSDOF 4
ENDMDL
MODEL 7
REMARK VINA RESULT:      -4.6      1.569      2.904
REMARK  4 active torsions:
REMARK  status: ('A' for Active; 'I' for Inactive)
REMARK    1  A    between atoms: C_1  and  C_5 
REMARK    2  A    between atoms: C_2  and  C_13 
REMARK    3  A    between atoms: C_3  and  N_4 
REMARK    4  A    between atoms: C_13  and  N_14 
ROOT
HETATM    1  C   UNL     1      63.493   6.546   5.640  1.00  0.00    -0.005 A 
HETATM    2  C   UNL     1      64.801   7.016   5.927  1.00  0.00     0.038 A 
HETATM    3  C   UNL     1      62.955   8.635   4.451  1.00  0.00     0.048 A 
HETATM    4  C   UNL     1      62.609   7.349   4.878  1.00  0.00     0.027 A 
HETATM    5  C   UNL     1      65.117   8.322   5.501  1.00  0.00     0.031 A 
HETATM    6  C   UNL     1      64.216   9.122   4.787  1.00  0.00     0.018 A 
ENDROOT
BRANCH   2   7
HETATM    7  N   UNL     1      65.725   6.286   6.647  1.00  0.00    -0.376 N 
HETATM    8  C   UNL     1      66.352   6.790   7.877  1.00  0.00     0.149 C 
HETATM    9  C   UNL     1      66.472   5.627   8.881  1.00  0.00     0.187 C 
HETATM   10  O   UNL     1      67.196   4.511   8.328  1.00  0.00    -0.388 OA
HETATM   11  C   UNL     1      66.535   4.033   7.139  1.00  0.00     0.187 C 
HETATM   12  C   UNL     1      66.441   5.137   6.076  1.00  0.00     0.149 C 
ENDBRANCH   2   7
BRANCH   1  13
HETATM   13  C   UNL     1      62.898   5.258   6.198  1.00  0.00     0.272 C 
BRANCH  13  14
HETATM   14  N   UNL     1      62.762   4.170   5.227  1.00  0.00    -0.075 N 
HETATM   15  C   UNL     1      61.378   3.768   5.011  1.00  0.00     0.267 C 
HETATM   16  H   UNL     1      63.286   3.364   5.567  1.00  0.00     0.277 HD
HETATM   17  H   UNL     1      63.122   4.512   4.335  1.00  0.00     0.277 HD
ENDBRANCH  13  14
ENDBRANCH   1  13
BRANCH   3  18
HETATM   18  C   UNL     1      61.981   9.491   3.678  1.00  0.00     0.417 C 
HETATM   19  F   UNL     1      60.733   8.946   3.582  1.00  0.00    -0.166 F 
HETATM   20  F   UNL     1      62.388   9.723   2.400  1.00  0.00    -0.166 F 
HETATM   21  F   UNL     1      61.807  10.718   4.243  1.00  0.00    -0.166 F 
ENDBRANCH   3  18
TORSDOF 4
ENDMDL
MODEL 8
REMARK VINA RESULT:      -4.4      4.272      6.010
REMARK  4 active torsions:
REMARK  status: ('A' for Active; 'I' for Inactive)
REMARK    1  A    between atoms: C_1  and  C_5 
REMARK    2  A    between atoms: C_2  and  C_13 
REMARK    3  A    between atoms: C_3  and  N_4 
REMARK    4  A    between atoms: C_13  and  N_14 
ROOT
HETATM    1  C   UNL     1      63.619   7.752   4.591  1.00  0.00    -0.005 A 
HETATM    2  C   UNL     1      62.948   6.546   4.920  1.00  0.00     0.038 A 
HETATM    3  C   UNL     1      65.412   7.246   6.203  1.00  0.00     0.048 A 
HETATM    4  C   UNL     1      64.854   8.061   5.211  1.00  0.00     0.027 A 
HETATM    5  C   UNL     1      63.522   5.753   5.934  1.00  0.00     0.031 A 
HETATM    6  C   UNL     1      64.722   6.094   6.571  1.00  0.00     0.018 A 
ENDROOT
BRANCH   2   7
HETATM    7  N   UNL     1      61.751   6.166   4.346  1.00  0.00    -0.376 N 
HETATM    8  C   UNL     1      60.450   6.418   4.981  1.00  0.00     0.149 C 
HETATM    9  C   UNL     1      59.440   6.821   3.889  1.00  0.00     0.187 C 
HETATM   10  O   UNL     1      59.346   5.828   2.850  1.00  0.00    -0.388 OA
HETATM   11  C   UNL     1      60.636   5.629   2.239  1.00  0.00     0.187 C 
HETATM   12  C   UNL     1      61.674   5.166   3.272  1.00  0.00     0.149 C 
ENDBRANCH   2   7
BRANCH   1  13
HETATM   13  C   UNL     1      63.048   8.835   3.682  1.00  0.00     0.272 C 
BRANCH  13  14
HETATM   14  N   UNL     1      62.517  10.008   4.380  1.00  0.00    -0.075 N 
HETATM   15  C   UNL     1      61.937  10.995   3.478  1.00  0.00     0.267 C 
HETATM   16  H   UNL     1      63.276  10.449   4.898  1.00  0.00     0.277 HD
HETATM   17  H   UNL     1      61.771   9.684   4.996  1.00  0.00     0.277 HD
ENDBRANCH  13  14
ENDBRANCH   1  13
BRANCH   3  18
HETATM   18  C   UNL     1      66.708   7.618   6.882  1.00  0.00     0.417 C 
HETATM   19  F   UNL     1      67.817   7.185   6.215  1.00  0.00    -0.166 F 
HETATM   20  F   UNL     1      66.805   7.106   8.140  1.00  0.00    -0.166 F 
HETATM   21  F   UNL     1      66.857   8.965   7.015  1.00  0.00    -0.166 F 
ENDBRANCH   3  18
TORSDOF 4
ENDMDL
MODEL 9
REMARK VINA RESULT:      -4.4      4.379      6.351
REMARK  4 active torsions:
REMARK  status: ('A' for Active; 'I' for Inactive)
REMARK    1  A    between atoms: C_1  and  C_5 
REMARK    2  A    between atoms: C_2  and  C_13 
REMARK    3  A    between atoms: C_3  and  N_4 
REMARK    4  A    between atoms: C_13  and  N_14 
ROOT
HETATM    1  C   UNL     1      62.955   6.513   5.761  1.00  0.00    -0.005 A 
HETATM    2  C   UNL     1      62.847   7.150   4.498  1.00  0.00     0.038 A 
HETATM    3  C   UNL     1      65.224   7.419   6.074  1.00  0.00     0.048 A 
HETATM    4  C   UNL     1      64.125   6.689   6.539  1.00  0.00     0.027 A 
HETATM    5  C   UNL     1      63.973   7.865   4.045  1.00  0.00     0.031 A 
HETATM    6  C   UNL     1      65.142   7.993   4.807  1.00  0.00     0.018 A 
ENDROOT
BRANCH   2   7
HETATM    7  N   UNL     1      61.732   7.042   3.690  1.00  0.00    -0.376 N 
HETATM    8  C   UNL     1      61.627   6.053   2.609  1.00  0.00     0.149 C 
HETATM    9  C   UNL     1      60.188   5.501   2.585  1.00  0.00     0.187 C 
HETATM   10  O   UNL     1      59.212   6.550   2.447  1.00  0.00    -0.388 OA
HETATM   11  C   UNL     1      59.333   7.485   3.539  1.00  0.00     0.187 C 
HETATM   12  C   UNL     1      60.733   8.114   3.577  1.00  0.00     0.149 C 
ENDBRANCH   2   7
BRANCH   1  13
HETATM   13  C   UNL     1      61.933   5.528   6.320  1.00  0.00     0.272 C 
BRANCH  13  14
HETATM   14  N   UNL     1      60.749   6.145   6.921  1.00  0.00    -0.075 N 
HETATM   15  C   UNL     1      59.946   5.206   7.695  1.00  0.00     0.267 C 
HETATM   16  H   UNL     1      60.169   6.529   6.175  1.00  0.00     0.277 HD
HETATM   17  H   UNL     1      61.073   6.868   7.563  1.00  0.00     0.277 HD
ENDBRANCH  13  14
ENDBRANCH   1  13
BRANCH   3  18
HETATM   18  C   UNL     1      66.479   7.557   6.901  1.00  0.00     0.417 C 
HETATM   19  F   UNL     1      67.554   6.903   6.373  1.00  0.00    -0.166 F 
HETATM   20  F   UNL     1      66.329   7.074   8.164  1.00  0.00    -0.166 F 
HETATM   21  F   UNL     1      66.868   8.855   7.042  1.00  0.00    -0.166 F 
ENDBRANCH   3  18
TORSDOF 4
ENDMDL
