MODEL 1
REMARK VINA RESULT:      -6.3      0.000      0.000
REMARK  5 active torsions:
REMARK  status: ('A' for Active; 'I' for Inactive)
REMARK    1  A    between atoms: C_1  and  C_2 
REMARK    2  A    between atoms: C_2  and  O_4 
REMARK    3  A    between atoms: C_3  and  C_7 
REMARK    4  A    between atoms: O_4  and  C_5 
REMARK    5  A    between atoms: O_6  and  C_7 
ROOT
HETATM    1  C   UNL     1      62.957   9.339   4.351  1.00  0.00    -0.026 A 
HETATM    2  C   UNL     1      62.590  10.674   4.627  1.00  0.00    -0.026 A 
HETATM    3  C   UNL     1      62.712   8.819   3.063  1.00  0.00     0.010 A 
HETATM    4  C   UNL     1      61.987  11.439   3.610  1.00  0.00     0.010 A 
HETATM    5  C   UNL     1      62.119   9.593   2.069  1.00  0.00     0.001 A 
HETATM    6  C   UNL     1      61.754  10.907   2.343  1.00  0.00     0.001 A 
ENDROOT
BRANCH   1   7
HETATM    7  C   UNL     1      63.641   8.444   5.361  1.00  0.00     0.215 C 
BRANCH   7   8
HETATM    8  O   UNL     1      65.003   8.836   5.534  1.00  0.00    -0.347 OA
BRANCH   8   9
HETATM    9  C   UNL     1      65.904   7.816   5.701  1.00  0.00     0.069 A 
HETATM   10  C   UNL     1      66.517   7.456   6.904  1.00  0.00     0.037 A 
HETATM   11  C   UNL     1      67.422   6.392   6.946  1.00  0.00     0.003 A 
HETATM   12  C   UNL     1      67.718   5.678   5.787  1.00  0.00     0.000 A 
HETATM   13  C   UNL     1      67.114   6.032   4.583  1.00  0.00     0.003 A 
HETATM   14  C   UNL     1      66.212   7.100   4.541  1.00  0.00     0.037 A 
ENDBRANCH   8   9
ENDBRANCH   7   8
ENDBRANCH   1   7
BRANCH   2  15
HETATM   15  C   UNL     1      62.803  11.330   5.971  1.00  0.00     0.203 C 
BRANCH  15  16
HETATM   16  O   UNL     1      64.191  11.562   6.198  1.00  0.00    -0.396 OA
HETATM   17  H   UNL     1      64.307  12.412   6.652  1.00  0.00     0.209 HD
ENDBRANCH  15  16
ENDBRANCH   2  15
TORSDOF 5
ENDMDL
MODEL 2
REMARK VINA RESULT:      -5.7      0.979      1.647
REMARK  5 active torsions:
REMARK  status: ('A' for Active; 'I' for Inactive)
REMARK    1  A    between atoms: C_1  and  C_2 
REMARK    2  A    between atoms: C_2  and  O_4 
REMARK    3  A    between atoms: C_3  and  C_7 
REMARK    4  A    between atoms: O_4  and  C_5 
REMARK    5  A    between atoms: O_6  and  C_7 
ROOT
HETATM    1  C   UNL     1      62.751   8.794   3.907  1.00  0.00    -0.026 A 
HETATM    2  C   UNL     1      62.378  10.144   3.732  1.00  0.00    -0.026 A 
HETATM    3  C   UNL     1      62.693   7.923   2.800  1.00  0.00     0.010 A 
HETATM    4  C   UNL     1      61.953  10.574   2.460  1.00  0.00     0.010 A 
HETATM    5  C   UNL     1      62.274   8.368   1.549  1.00  0.00     0.001 A 
HETATM    6  C   UNL     1      61.903   9.698   1.378  1.00  0.00     0.001 A 
ENDROOT
BRANCH   1   7
HETATM    7  C   UNL     1      63.255   8.240   5.222  1.00  0.00     0.215 C 
BRANCH   7   8
HETATM    8  O   UNL     1      64.568   8.726   5.500  1.00  0.00    -0.347 OA
BRANCH   8   9
HETATM    9  C   UNL     1      65.575   7.797   5.445  1.00  0.00     0.069 A 
HETATM   10  C   UNL     1      65.965   7.081   4.310  1.00  0.00     0.037 A 
HETATM   11  C   UNL     1      67.010   6.157   4.381  1.00  0.00     0.003 A 
HETATM   12  C   UNL     1      67.676   5.943   5.586  1.00  0.00     0.000 A 
HETATM   13  C   UNL     1      67.291   6.649   6.723  1.00  0.00     0.003 A 
HETATM   14  C   UNL     1      66.241   7.571   6.652  1.00  0.00     0.037 A 
ENDBRANCH   8   9
ENDBRANCH   7   8
ENDBRANCH   1   7
BRANCH   2  15
HETATM   15  C   UNL     1      62.400  11.162   4.849  1.00  0.00     0.203 C 
BRANCH  15  16
HETATM   16  O   UNL     1      62.038  12.449   4.358  1.00  0.00    -0.396 OA
HETATM   17  H   UNL     1      62.781  13.062   4.479  1.00  0.00     0.209 HD
ENDBRANCH  15  16
ENDBRANCH   2  15
TORSDOF 5
ENDMDL
MODEL 3
REMARK VINA RESULT:      -5.4      1.437      2.614
REMARK  5 active torsions:
REMARK  status: ('A' for Active; 'I' for Inactive)
REMARK    1  A    between atoms: C_1  and  C_2 
REMARK    2  A    between atoms: C_2  and  O_4 
REMARK    3  A    between atoms: C_3  and  C_7 
REMARK    4  A    between atoms: O_4  and  C_5 
REMARK    5  A    between atoms: O_6  and  C_7 
ROOT
HETATM    1  C   UNL     1      62.850   9.355   4.064  1.00  0.00    -0.026 A 
HETATM    2  C   UNL     1      62.816   8.578   2.887  1.00  0.00    -0.026 A 
HETATM    3  C   UNL     1      62.330  10.665   4.031  1.00  0.00     0.010 A 
HETATM    4  C   UNL     1      62.269   9.139   1.715  1.00  0.00     0.010 A 
HETATM    5  C   UNL     1      61.789  11.201   2.864  1.00  0.00     0.001 A 
HETATM    6  C   UNL     1      61.759  10.436   1.703  1.00  0.00     0.001 A 
ENDROOT
BRANCH   1   7
HETATM    7  C   UNL     1      63.384   8.836   5.382  1.00  0.00     0.215 C 
BRANCH   7   8
HETATM    8  O   UNL     1      64.777   9.124   5.506  1.00  0.00    -0.347 OA
BRANCH   8   9
HETATM    9  C   UNL     1      65.604   8.037   5.632  1.00  0.00     0.069 A 
HETATM   10  C   UNL     1      66.937   7.973   5.217  1.00  0.00     0.037 A 
HETATM   11  C   UNL     1      67.679   6.804   5.402  1.00  0.00     0.003 A 
HETATM   12  C   UNL     1      67.096   5.691   6.004  1.00  0.00     0.000 A 
HETATM   13  C   UNL     1      65.768   5.745   6.417  1.00  0.00     0.003 A 
HETATM   14  C   UNL     1      65.024   6.915   6.228  1.00  0.00     0.037 A 
ENDBRANCH   8   9
ENDBRANCH   7   8
ENDBRANCH   1   7
BRANCH   2  15
HETATM   15  C   UNL     1      63.347   7.165   2.809  1.00  0.00     0.203 C 
BRANCH  15  16
HETATM   16  O   UNL     1      62.362   6.237   3.256  1.00  0.00    -0.396 OA
HETATM   17  H   UNL     1      61.589   6.280   2.671  1.00  0.00     0.209 HD
ENDBRANCH  15  16
ENDBRANCH   2  15
TORSDOF 5
ENDMDL
MODEL 4
REMARK VINA RESULT:      -5.2      2.757      4.245
REMARK  5 active torsions:
REMARK  status: ('A' for Active; 'I' for Inactive)
REMARK    1  A    between atoms: C_1  and  C_2 
REMARK    2  A    between atoms: C_2  and  O_4 
REMARK    3  A    between atoms: C_3  and  C_7 
REMARK    4  A    between atoms: O_4  and  C_5 
REMARK    5  A    between atoms: O_6  and  C_7 
ROOT
HETATM    1  C   UNL     1      62.743   8.994   3.534  1.00  0.00    -0.026 A 
HETATM    2  C   UNL     1      62.559  10.201   4.242  1.00  0.00    -0.026 A 
HETATM    3  C   UNL     1      62.407   8.949   2.165  1.00  0.00     0.010 A 
HETATM    4  C   UNL     1      62.038  11.318   3.560  1.00  0.00     0.010 A 
HETATM    5  C   UNL     1      61.898  10.066   1.507  1.00  0.00     0.001 A 
HETATM    6  C   UNL     1      61.713  11.254   2.206  1.00  0.00     0.001 A 
ENDROOT
BRANCH   1   7
HETATM    7  C   UNL     1      63.327   7.748   4.164  1.00  0.00     0.215 C 
BRANCH   7   8
HETATM    8  O   UNL     1      62.502   6.615   3.890  1.00  0.00    -0.347 OA
BRANCH   8   9
HETATM    9  C   UNL     1      61.496   6.375   4.790  1.00  0.00     0.069 A 
HETATM   10  C   UNL     1      61.654   6.227   6.171  1.00  0.00     0.037 A 
HETATM   11  C   UNL     1      60.546   5.985   6.986  1.00  0.00     0.003 A 
HETATM   12  C   UNL     1      59.272   5.891   6.430  1.00  0.00     0.000 A 
HETATM   13  C   UNL     1      59.107   6.034   5.055  1.00  0.00     0.003 A 
HETATM   14  C   UNL     1      60.217   6.272   4.238  1.00  0.00     0.037 A 
ENDBRANCH   8   9
ENDBRANCH   7   8
ENDBRANCH   1   7
BRANCH   2  15
HETATM   15  C   UNL     1      62.883  10.360   5.710  1.00  0.00     0.203 C 
BRANCH  15  16
HETATM   16  O   UNL     1      64.008  11.217   5.882  1.00  0.00    -0.396 OA
HETATM   17  H   UNL     1      64.338  11.496   5.012  1.00  0.00     0.209 HD
ENDBRANCH  15  16
ENDBRANCH   2  15
TORSDOF 5
ENDMDL
MODEL 5
REMARK VINA RESULT:      -5.1      1.855      6.084
REMARK  5 active torsions:
REMARK  status: ('A' for Active; 'I' for Inactive)
REMARK    1  A    between atoms: C_1  and  C_2 
REMARK    2  A    between atoms: C_2  and  O_4 
REMARK    3  A    between atoms: C_3  and  C_7 
REMARK    4  A    between atoms: O_4  and  C_5 
REMARK    5  A    between atoms: O_6  and  C_7 
ROOT
HETATM    1  C   UNL     1      64.981   7.170   5.963  1.00  0.00    -0.026 A 
HETATM    2  C   UNL     1      65.385   5.920   6.479  1.00  0.00    -0.026 A 
HETATM    3  C   UNL     1      65.969   8.106   5.595  1.00  0.00     0.010 A 
HETATM    4  C   UNL     1      66.761   5.652   6.617  1.00  0.00     0.010 A 
HETATM    5  C   UNL     1      67.325   7.821   5.734  1.00  0.00     0.001 A 
HETATM    6  C   UNL     1      67.723   6.591   6.247  1.00  0.00     0.001 A 
ENDROOT
BRANCH   1   7
HETATM    7  C   UNL     1      63.531   7.543   5.743  1.00  0.00     0.215 C 
BRANCH   7   8
HETATM    8  O   UNL     1      63.376   8.963   5.727  1.00  0.00    -0.347 OA
BRANCH   8   9
HETATM    9  C   UNL     1      62.861   9.496   4.574  1.00  0.00     0.069 A 
HETATM   10  C   UNL     1      62.349  10.789   4.429  1.00  0.00     0.037 A 
HETATM   11  C   UNL     1      61.850  11.217   3.197  1.00  0.00     0.003 A 
HETATM   12  C   UNL     1      61.860  10.359   2.099  1.00  0.00     0.000 A 
HETATM   13  C   UNL     1      62.364   9.069   2.236  1.00  0.00     0.003 A 
HETATM   14  C   UNL     1      62.860   8.639   3.471  1.00  0.00     0.037 A 
ENDBRANCH   8   9
ENDBRANCH   7   8
ENDBRANCH   1   7
BRANCH   2  15
HETATM   15  C   UNL     1      64.412   4.845   6.906  1.00  0.00     0.203 C 
BRANCH  15  16
HETATM   16  O   UNL     1      65.107   3.747   7.490  1.00  0.00    -0.396 OA
HETATM   17  H   UNL     1      64.528   2.968   7.503  1.00  0.00     0.209 HD
ENDBRANCH  15  16
ENDBRANCH   2  15
TORSDOF 5
ENDMDL
MODEL 6
REMARK VINA RESULT:      -5.0      4.085      6.368
REMARK  5 active torsions:
REMARK  status: ('A' for Active; 'I' for Inactive)
REMARK    1  A    between atoms: C_1  and  C_2 
REMARK    2  A    between atoms: C_2  and  O_4 
REMARK    3  A    between atoms: C_3  and  C_7 
REMARK    4  A    between atoms: O_4  and  C_5 
REMARK    5  A    between atoms: O_6  and  C_7 
ROOT
HETATM    1  C   UNL     1      59.682   6.670   3.358  1.00  0.00    -0.026 A 
HETATM    2  C   UNL     1      58.478   7.022   2.711  1.00  0.00    -0.026 A 
HETATM    3  C   UNL     1      59.655   6.387   4.739  1.00  0.00     0.010 A 
HETATM    4  C   UNL     1      57.291   7.086   3.468  1.00  0.00     0.010 A 
HETATM    5  C   UNL     1      58.472   6.451   5.469  1.00  0.00     0.001 A 
HETATM    6  C   UNL     1      57.286   6.803   4.832  1.00  0.00     0.001 A 
ENDROOT
BRANCH   1   7
HETATM    7  C   UNL     1      61.002   6.538   2.630  1.00  0.00     0.215 C 
BRANCH   7   8
HETATM    8  O   UNL     1      62.009   7.320   3.275  1.00  0.00    -0.347 OA
BRANCH   8   9
HETATM    9  C   UNL     1      61.972   8.667   3.026  1.00  0.00     0.069 A 
HETATM   10  C   UNL     1      61.882   9.263   1.765  1.00  0.00     0.037 A 
HETATM   11  C   UNL     1      61.852  10.654   1.641  1.00  0.00     0.003 A 
HETATM   12  C   UNL     1      61.908  11.461   2.775  1.00  0.00     0.000 A 
HETATM   13  C   UNL     1      62.001  10.876   4.035  1.00  0.00     0.003 A 
HETATM   14  C   UNL     1      62.036   9.483   4.158  1.00  0.00     0.037 A 
ENDBRANCH   8   9
ENDBRANCH   7   8
ENDBRANCH   1   7
BRANCH   2  15
HETATM   15  C   UNL     1      58.392   7.347   1.237  1.00  0.00     0.203 C 
BRANCH  15  16
HETATM   16  O   UNL     1      58.620   8.736   1.019  1.00  0.00    -0.396 OA
HETATM   17  H   UNL     1      57.814   9.144   0.664  1.00  0.00     0.209 HD
ENDBRANCH  15  16
ENDBRANCH   2  15
TORSDOF 5
ENDMDL
MODEL 7
REMARK VINA RESULT:      -5.0      3.399      5.614
REMARK  5 active torsions:
REMARK  status: ('A' for Active; 'I' for Inactive)
REMARK    1  A    between atoms: C_1  and  C_2 
REMARK    2  A    between atoms: C_2  and  O_4 
REMARK    3  A    between atoms: C_3  and  C_7 
REMARK    4  A    between atoms: O_4  and  C_5 
REMARK    5  A    between atoms: O_6  and  C_7 
ROOT
HETATM    1  C   UNL     1      62.249   8.599   3.607  1.00  0.00    -0.026 A 
HETATM    2  C   UNL     1      62.809   8.838   4.881  1.00  0.00    -0.026 A 
HETATM    3  C   UNL     1      61.799   9.697   2.845  1.00  0.00     0.010 A 
HETATM    4  C   UNL     1      62.894  10.164   5.350  1.00  0.00     0.010 A 
HETATM    5  C   UNL     1      61.896  11.000   3.324  1.00  0.00     0.001 A 
HETATM    6  C   UNL     1      62.444  11.235   4.581  1.00  0.00     0.001 A 
ENDROOT
BRANCH   1   7
HETATM    7  C   UNL     1      62.144   7.218   2.997  1.00  0.00     0.215 C 
BRANCH   7   8
HETATM    8  O   UNL     1      60.806   6.961   2.567  1.00  0.00    -0.347 OA
BRANCH   8   9
HETATM    9  C   UNL     1      59.875   6.818   3.563  1.00  0.00     0.069 A 
HETATM   10  C   UNL     1      60.033   6.060   4.726  1.00  0.00     0.037 A 
HETATM   11  C   UNL     1      59.006   5.992   5.671  1.00  0.00     0.003 A 
HETATM   12  C   UNL     1      57.815   6.683   5.462  1.00  0.00     0.000 A 
HETATM   13  C   UNL     1      57.648   7.438   4.305  1.00  0.00     0.003 A 
HETATM   14  C   UNL     1      58.674   7.502   3.357  1.00  0.00     0.037 A 
ENDBRANCH   8   9
ENDBRANCH   7   8
ENDBRANCH   1   7
BRANCH   2  15
HETATM   15  C   UNL     1      63.320   7.737   5.782  1.00  0.00     0.203 C 
BRANCH  15  16
HETATM   16  O   UNL     1      62.600   7.725   7.011  1.00  0.00    -0.396 OA
HETATM   17  H   UNL     1      61.670   7.508   6.840  1.00  0.00     0.209 HD
ENDBRANCH  15  16
ENDBRANCH   2  15
TORSDOF 5
ENDMDL
MODEL 8
REMARK VINA RESULT:      -4.9      1.644      6.005
REMARK  5 active torsions:
REMARK  status: ('A' for Active; 'I' for Inactive)
REMARK    1  A    between atoms: C_1  and  C_2 
REMARK    2  A    between atoms: C_2  and  O_4 
REMARK    3  A    between atoms: C_3  and  C_7 
REMARK    4  A    between atoms: O_4  and  C_5 
REMARK    5  A    between atoms: O_6  and  C_7 
ROOT
HETATM    1  C   UNL     1      65.073   6.192   6.511  1.00  0.00    -0.026 A 
HETATM    2  C   UNL     1      66.343   6.784   6.686  1.00  0.00    -0.026 A 
HETATM    3  C   UNL     1      64.912   4.825   6.816  1.00  0.00     0.010 A 
HETATM    4  C   UNL     1      67.408   5.988   7.151  1.00  0.00     0.010 A 
HETATM    5  C   UNL     1      65.976   4.056   7.280  1.00  0.00     0.001 A 
HETATM    6  C   UNL     1      67.228   4.639   7.448  1.00  0.00     0.001 A 
ENDROOT
BRANCH   1   7
HETATM    7  C   UNL     1      63.857   6.966   6.050  1.00  0.00     0.215 C 
BRANCH   7   8
HETATM    8  O   UNL     1      63.995   7.346   4.680  1.00  0.00    -0.347 OA
BRANCH   8   9
HETATM    9  C   UNL     1      63.326   8.481   4.304  1.00  0.00     0.069 A 
HETATM   10  C   UNL     1      63.131   9.615   5.097  1.00  0.00     0.037 A 
HETATM   11  C   UNL     1      62.429  10.715   4.597  1.00  0.00     0.003 A 
HETATM   12  C   UNL     1      61.920  10.692   3.301  1.00  0.00     0.000 A 
HETATM   13  C   UNL     1      62.107   9.565   2.505  1.00  0.00     0.003 A 
HETATM   14  C   UNL     1      62.805   8.462   3.008  1.00  0.00     0.037 A 
ENDBRANCH   8   9
ENDBRANCH   7   8
ENDBRANCH   1   7
BRANCH   2  15
HETATM   15  C   UNL     1      66.627   8.238   6.387  1.00  0.00     0.203 C 
BRANCH  15  16
HETATM   16  O   UNL     1      66.907   8.417   5.002  1.00  0.00    -0.396 OA
HETATM   17  H   UNL     1      67.847   8.632   4.887  1.00  0.00     0.209 HD
ENDBRANCH  15  16
ENDBRANCH   2  15
TORSDOF 5
ENDMDL
MODEL 9
REMARK VINA RESULT:      -4.9      1.872      3.218
REMARK  5 active torsions:
REMARK  status: ('A' for Active; 'I' for Inactive)
REMARK    1  A    between atoms: C_1  and  C_2 
REMARK    2  A    between atoms: C_2  and  O_4 
REMARK    3  A    between atoms: C_3  and  C_7 
REMARK    4  A    between atoms: O_4  and  C_5 
REMARK    5  A    between atoms: O_6  and  C_7 
ROOT
HETATM    1  C   UNL     1      64.100   8.762   4.824  1.00  0.00    -0.026 A 
HETATM    2  C   UNL     1      63.597   8.063   3.705  1.00  0.00    -0.026 A 
HETATM    3  C   UNL     1      63.484   9.972   5.204  1.00  0.00     0.010 A 
HETATM    4  C   UNL     1      62.502   8.602   3.001  1.00  0.00     0.010 A 
HETATM    5  C   UNL     1      62.399  10.486   4.498  1.00  0.00     0.001 A 
HETATM    6  C   UNL     1      61.907   9.800   3.393  1.00  0.00     0.001 A 
ENDROOT
BRANCH   1   7
HETATM    7  C   UNL     1      65.248   8.253   5.669  1.00  0.00     0.215 C 
BRANCH   7   8
HETATM    8  O   UNL     1      64.756   7.526   6.796  1.00  0.00    -0.347 OA
BRANCH   8   9
HETATM    9  C   UNL     1      65.578   6.541   7.277  1.00  0.00     0.069 A 
HETATM   10  C   UNL     1      65.425   5.169   7.057  1.00  0.00     0.037 A 
HETATM   11  C   UNL     1      66.333   4.260   7.604  1.00  0.00     0.003 A 
HETATM   12  C   UNL     1      67.402   4.713   8.373  1.00  0.00     0.000 A 
HETATM   13  C   UNL     1      67.561   6.077   8.600  1.00  0.00     0.003 A 
HETATM   14  C   UNL     1      66.648   6.987   8.056  1.00  0.00     0.037 A 
ENDBRANCH   8   9
ENDBRANCH   7   8
ENDBRANCH   1   7
BRANCH   2  15
HETATM   15  C   UNL     1      64.181   6.761   3.210  1.00  0.00     0.203 C 
BRANCH  15  16
HETATM   16  O   UNL     1      63.530   5.655   3.829  1.00  0.00    -0.396 OA
HETATM   17  H   UNL     1      62.875   5.981   4.467  1.00  0.00     0.209 HD
ENDBRANCH  15  16
ENDBRANCH   2  15
TORSDOF 5
ENDMDL
