MODEL 1
REMARK VINA RESULT:      -5.7      0.000      0.000
REMARK  4 active torsions:
REMARK  status: ('A' for Active; 'I' for Inactive)
REMARK    1  A    between atoms: N_1  and  C_2 
REMARK    2  A    between atoms: C_5  and  C_8 
REMARK    3  A    between atoms: C_5  and  O_16 
REMARK    4  A    between atoms: O_16  and  C_19 
ROOT
HETATM    1  N   UNL     1      65.103   6.335   5.986  1.00  0.00    -0.366 N 
HETATM    2  C   UNL     1      63.356   8.382   4.954  1.00  0.00     0.088 C 
HETATM    3  C   UNL     1      65.530   7.099   4.821  1.00  0.00     0.125 C 
HETATM    4  C   UNL     1      63.673   6.237   6.256  1.00  0.00     0.125 C 
HETATM    5  C   UNL     1      64.875   8.476   4.777  1.00  0.00     0.034 C 
HETATM    6  C   UNL     1      63.032   7.621   6.246  1.00  0.00     0.034 C 
ENDROOT
BRANCH   1   7
HETATM    7  C   UNL     1      66.015   6.053   6.992  1.00  0.00     0.119 A 
HETATM    8  N   UNL     1      66.323   4.768   7.283  1.00  0.00    -0.344 N 
HETATM    9  C   UNL     1      67.223   4.549   8.285  1.00  0.00     0.022 A 
ATOM     10  HN  UNL     1      65.899   3.993   6.773  1.00  0.00     0.167 HD
HETATM   11  C   UNL     1      67.784   5.597   9.001  1.00  0.00     0.112 A 
HETATM   12  C   UNL     1      67.627   3.135   8.556  1.00  0.00     0.069 C 
HETATM   13  N   UNL     1      67.490   6.886   8.759  1.00  0.00    -0.370 N 
HETATM   14  C   UNL     1      66.604   7.077   7.745  1.00  0.00     0.136 A 
ATOM     15  HN  UNL     1      67.896   7.655   9.290  1.00  0.00     0.164 HD
ENDBRANCH   1   7
BRANCH   2  16
HETATM   16  C   UNL     1      62.724   9.761   4.981  1.00  0.00     0.263 C 
HETATM   17  O   UNL     1      63.054  10.668   5.732  1.00  0.00    -0.265 OA
BRANCH  16  18
HETATM   18  O   UNL     1      61.695   9.829   4.089  1.00  0.00    -0.322 OA
BRANCH  18  19
HETATM   19  C   UNL     1      62.074   9.990   2.713  1.00  0.00     0.174 C 
HETATM   20  C   UNL     1      61.805  11.410   2.247  1.00  0.00     0.034 C 
ENDBRANCH  18  19
ENDBRANCH  16  18
ENDBRANCH   2  16
TORSDOF 4
ENDMDL
MODEL 2
REMARK VINA RESULT:      -5.4      3.907      7.330
REMARK  4 active torsions:
REMARK  status: ('A' for Active; 'I' for Inactive)
REMARK    1  A    between atoms: N_1  and  C_2 
REMARK    2  A    between atoms: C_5  and  C_8 
REMARK    3  A    between atoms: C_5  and  O_16 
REMARK    4  A    between atoms: O_16  and  C_19 
ROOT
HETATM    1  N   UNL     1      61.848   8.660   2.578  1.00  0.00    -0.366 N 
HETATM    2  C   UNL     1      64.008   8.575   4.485  1.00  0.00     0.088 C 
HETATM    3  C   UNL     1      62.948   7.731   2.351  1.00  0.00     0.125 C 
HETATM    4  C   UNL     1      62.103   9.837   3.401  1.00  0.00     0.125 C 
HETATM    5  C   UNL     1      63.638   7.342   3.654  1.00  0.00     0.034 C 
HETATM    6  C   UNL     1      62.760   9.436   4.718  1.00  0.00     0.034 C 
ENDROOT
BRANCH   1   7
HETATM    7  C   UNL     1      60.544   8.245   2.354  1.00  0.00     0.119 A 
HETATM    8  N   UNL     1      59.714   8.031   3.401  1.00  0.00    -0.344 N 
HETATM    9  C   UNL     1      58.444   7.620   3.122  1.00  0.00     0.022 A 
ATOM     10  HN  UNL     1      60.027   8.173   4.362  1.00  0.00     0.167 HD
HETATM   11  C   UNL     1      58.020   7.399   1.819  1.00  0.00     0.112 A 
HETATM   12  C   UNL     1      57.500   7.460   4.271  1.00  0.00     0.069 C 
HETATM   13  N   UNL     1      58.818   7.579   0.752  1.00  0.00    -0.370 N 
HETATM   14  C   UNL     1      60.072   8.005   1.057  1.00  0.00     0.136 A 
ATOM     15  HN  UNL     1      58.508   7.410  -0.204  1.00  0.00     0.164 HD
ENDBRANCH   1   7
BRANCH   2  16
HETATM   16  C   UNL     1      64.628   8.173   5.811  1.00  0.00     0.263 C 
HETATM   17  O   UNL     1      64.148   7.362   6.590  1.00  0.00    -0.265 OA
BRANCH  16  18
HETATM   18  O   UNL     1      65.766   8.889   6.038  1.00  0.00    -0.322 OA
BRANCH  18  19
HETATM   19  C   UNL     1      66.951   8.115   6.278  1.00  0.00     0.174 C 
HETATM   20  C   UNL     1      67.646   7.780   4.970  1.00  0.00     0.034 C 
ENDBRANCH  18  19
ENDBRANCH  16  18
ENDBRANCH   2  16
TORSDOF 4
ENDMDL
MODEL 3
REMARK VINA RESULT:      -5.1      3.179      6.894
REMARK  4 active torsions:
REMARK  status: ('A' for Active; 'I' for Inactive)
REMARK    1  A    between atoms: N_1  and  C_2 
REMARK    2  A    between atoms: C_5  and  C_8 
REMARK    3  A    between atoms: C_5  and  O_16 
REMARK    4  A    between atoms: O_16  and  C_19 
ROOT
HETATM    1  N   UNL     1      63.286   8.854   5.168  1.00  0.00    -0.366 N 
HETATM    2  C   UNL     1      64.871   6.854   6.510  1.00  0.00     0.088 C 
HETATM    3  C   UNL     1      64.687   9.142   5.450  1.00  0.00     0.125 C 
HETATM    4  C   UNL     1      62.609   7.864   5.999  1.00  0.00     0.125 C 
HETATM    5  C   UNL     1      65.516   7.867   5.557  1.00  0.00     0.034 C 
HETATM    6  C   UNL     1      63.427   6.578   6.072  1.00  0.00     0.034 C 
ENDROOT
BRANCH   1   7
HETATM    7  C   UNL     1      62.748   9.208   3.941  1.00  0.00     0.119 A 
HETATM    8  N   UNL     1      62.899   8.388   2.875  1.00  0.00    -0.344 N 
HETATM    9  C   UNL     1      62.353   8.789   1.691  1.00  0.00     0.022 A 
ATOM     10  HN  UNL     1      63.402   7.504   2.955  1.00  0.00     0.167 HD
HETATM   11  C   UNL     1      61.691  10.003   1.569  1.00  0.00     0.112 A 
HETATM   12  C   UNL     1      62.449   7.849   0.531  1.00  0.00     0.069 C 
HETATM   13  N   UNL     1      61.537  10.856   2.596  1.00  0.00    -0.370 N 
HETATM   14  C   UNL     1      62.075  10.425   3.767  1.00  0.00     0.136 A 
ATOM     15  HN  UNL     1      61.057  11.751   2.504  1.00  0.00     0.164 HD
ENDBRANCH   1   7
BRANCH   2  16
HETATM   16  C   UNL     1      65.665   5.562   6.553  1.00  0.00     0.263 C 
HETATM   17  O   UNL     1      66.107   4.980   5.573  1.00  0.00    -0.265 OA
BRANCH  16  18
HETATM   18  O   UNL     1      65.768   5.111   7.836  1.00  0.00    -0.322 OA
BRANCH  18  19
HETATM   19  C   UNL     1      67.046   5.301   8.462  1.00  0.00     0.174 C 
HETATM   20  C   UNL     1      67.024   6.520   9.366  1.00  0.00     0.034 C 
ENDBRANCH  18  19
ENDBRANCH  16  18
ENDBRANCH   2  16
TORSDOF 4
ENDMDL
MODEL 4
REMARK VINA RESULT:      -5.1      2.964      6.945
REMARK  4 active torsions:
REMARK  status: ('A' for Active; 'I' for Inactive)
REMARK    1  A    between atoms: N_1  and  C_2 
REMARK    2  A    between atoms: C_5  and  C_8 
REMARK    3  A    between atoms: C_5  and  O_16 
REMARK    4  A    between atoms: O_16  and  C_19 
ROOT
HETATM    1  N   UNL     1      64.729   7.332   4.687  1.00  0.00    -0.366 N 
HETATM    2  C   UNL     1      66.015   6.057   6.930  1.00  0.00     0.088 C 
HETATM    3  C   UNL     1      64.240   6.032   5.129  1.00  0.00     0.125 C 
HETATM    4  C   UNL     1      66.108   7.690   5.001  1.00  0.00     0.125 C 
HETATM    5  C   UNL     1      64.542   5.786   6.604  1.00  0.00     0.034 C 
HETATM    6  C   UNL     1      66.391   7.475   6.484  1.00  0.00     0.034 C 
ENDROOT
BRANCH   1   7
HETATM    7  C   UNL     1      63.822   8.322   4.339  1.00  0.00     0.119 A 
HETATM    8  N   UNL     1      63.232   8.299   3.122  1.00  0.00    -0.344 N 
HETATM    9  C   UNL     1      62.352   9.300   2.832  1.00  0.00     0.022 A 
ATOM     10  HN  UNL     1      63.437   7.561   2.448  1.00  0.00     0.167 HD
HETATM   11  C   UNL     1      62.088  10.322   3.733  1.00  0.00     0.112 A 
HETATM   12  C   UNL     1      61.637   9.234   1.520  1.00  0.00     0.069 C 
HETATM   13  N   UNL     1      62.669  10.395   4.943  1.00  0.00    -0.370 N 
HETATM   14  C   UNL     1      63.528   9.376   5.214  1.00  0.00     0.136 A 
ATOM     15  HN  UNL     1      62.481  11.149   5.602  1.00  0.00     0.164 HD
ENDBRANCH   1   7
BRANCH   2  16
HETATM   16  C   UNL     1      66.287   5.880   8.412  1.00  0.00     0.263 C 
HETATM   17  O   UNL     1      66.441   6.793   9.209  1.00  0.00    -0.265 OA
BRANCH  16  18
HETATM   18  O   UNL     1      66.394   4.555   8.719  1.00  0.00    -0.322 OA
BRANCH  18  19
HETATM   19  C   UNL     1      67.695   3.976   8.533  1.00  0.00     0.174 C 
HETATM   20  C   UNL     1      67.626   2.463   8.623  1.00  0.00     0.034 C 
ENDBRANCH  18  19
ENDBRANCH  16  18
ENDBRANCH   2  16
TORSDOF 4
ENDMDL
MODEL 5
REMARK VINA RESULT:      -5.0      2.132      3.209
REMARK  4 active torsions:
REMARK  status: ('A' for Active; 'I' for Inactive)
REMARK    1  A    between atoms: N_1  and  C_2 
REMARK    2  A    between atoms: C_5  and  C_8 
REMARK    3  A    between atoms: C_5  and  O_16 
REMARK    4  A    between atoms: O_16  and  C_19 
ROOT
HETATM    1  N   UNL     1      63.526   7.569   5.137  1.00  0.00    -0.366 N 
HETATM    2  C   UNL     1      62.012   8.760   2.993  1.00  0.00     0.088 C 
HETATM    3  C   UNL     1      63.087   6.723   4.034  1.00  0.00     0.125 C 
HETATM    4  C   UNL     1      62.777   8.792   5.403  1.00  0.00     0.125 C 
HETATM    5  C   UNL     1      62.886   7.524   2.752  1.00  0.00     0.034 C 
HETATM    6  C   UNL     1      62.612   9.606   4.123  1.00  0.00     0.034 C 
ENDROOT
BRANCH   1   7
HETATM    7  C   UNL     1      64.807   7.420   5.647  1.00  0.00     0.119 A 
HETATM    8  N   UNL     1      64.982   7.087   6.946  1.00  0.00    -0.344 N 
HETATM    9  C   UNL     1      66.264   6.958   7.395  1.00  0.00     0.022 A 
ATOM     10  HN  UNL     1      64.186   6.938   7.566  1.00  0.00     0.167 HD
HETATM   11  C   UNL     1      67.352   7.186   6.564  1.00  0.00     0.112 A 
HETATM   12  C   UNL     1      66.461   6.512   8.809  1.00  0.00     0.069 C 
HETATM   13  N   UNL     1      67.223   7.539   5.273  1.00  0.00    -0.370 N 
HETATM   14  C   UNL     1      65.936   7.644   4.848  1.00  0.00     0.136 A 
ATOM     15  HN  UNL     1      68.022   7.714   4.665  1.00  0.00     0.164 HD
ENDBRANCH   1   7
BRANCH   2  16
HETATM   16  C   UNL     1      61.880   9.588   1.728  1.00  0.00     0.263 C 
HETATM   17  O   UNL     1      62.070  10.794   1.658  1.00  0.00    -0.265 OA
BRANCH  16  18
HETATM   18  O   UNL     1      61.461   8.806   0.691  1.00  0.00    -0.322 OA
BRANCH  18  19
HETATM   19  C   UNL     1      60.081   8.413   0.727  1.00  0.00     0.174 C 
HETATM   20  C   UNL     1      59.912   6.999   0.201  1.00  0.00     0.034 C 
ENDBRANCH  18  19
ENDBRANCH  16  18
ENDBRANCH   2  16
TORSDOF 4
ENDMDL
MODEL 6
REMARK VINA RESULT:      -5.0      1.785      2.792
REMARK  4 active torsions:
REMARK  status: ('A' for Active; 'I' for Inactive)
REMARK    1  A    between atoms: N_1  and  C_2 
REMARK    2  A    between atoms: C_5  and  C_8 
REMARK    3  A    between atoms: C_5  and  O_16 
REMARK    4  A    between atoms: O_16  and  C_19 
ROOT
HETATM    1  N   UNL     1      63.910   7.451   6.211  1.00  0.00    -0.366 N 
HETATM    2  C   UNL     1      62.324   8.054   3.880  1.00  0.00     0.088 C 
HETATM    3  C   UNL     1      62.462   7.297   6.289  1.00  0.00     0.125 C 
HETATM    4  C   UNL     1      64.449   8.370   5.215  1.00  0.00     0.125 C 
HETATM    5  C   UNL     1      61.848   7.031   4.918  1.00  0.00     0.034 C 
HETATM    6  C   UNL     1      63.857   8.074   3.840  1.00  0.00     0.034 C 
ENDROOT
BRANCH   1   7
HETATM    7  C   UNL     1      64.732   6.491   6.780  1.00  0.00     0.119 A 
HETATM    8  N   UNL     1      65.687   6.858   7.666  1.00  0.00    -0.344 N 
HETATM    9  C   UNL     1      66.470   5.872   8.191  1.00  0.00     0.022 A 
ATOM     10  HN  UNL     1      65.815   7.834   7.931  1.00  0.00     0.167 HD
HETATM   11  C   UNL     1      66.319   4.544   7.814  1.00  0.00     0.112 A 
HETATM   12  C   UNL     1      67.472   6.263   9.230  1.00  0.00     0.069 C 
HETATM   13  N   UNL     1      65.398   4.140   6.923  1.00  0.00    -0.370 N 
HETATM   14  C   UNL     1      64.620   5.139   6.429  1.00  0.00     0.136 A 
ATOM     15  HN  UNL     1      65.292   3.166   6.641  1.00  0.00     0.164 HD
ENDBRANCH   1   7
BRANCH   2  16
HETATM   16  C   UNL     1      61.764   7.737   2.506  1.00  0.00     0.263 C 
HETATM   17  O   UNL     1      61.921   6.679   1.913  1.00  0.00    -0.265 OA
BRANCH  16  18
HETATM   18  O   UNL     1      61.109   8.821   2.000  1.00  0.00    -0.322 OA
BRANCH  18  19
HETATM   19  C   UNL     1      61.934   9.795   1.342  1.00  0.00     0.174 C 
HETATM   20  C   UNL     1      61.838  11.139   2.041  1.00  0.00     0.034 C 
ENDBRANCH  18  19
ENDBRANCH  16  18
ENDBRANCH   2  16
TORSDOF 4
ENDMDL
MODEL 7
REMARK VINA RESULT:      -4.8      3.872      6.811
REMARK  4 active torsions:
REMARK  status: ('A' for Active; 'I' for Inactive)
REMARK    1  A    between atoms: N_1  and  C_2 
REMARK    2  A    between atoms: C_5  and  C_8 
REMARK    3  A    between atoms: C_5  and  O_16 
REMARK    4  A    between atoms: O_16  and  C_19 
ROOT
HETATM    1  N   UNL     1      61.463   6.403   4.630  1.00  0.00    -0.366 N 
HETATM    2  C   UNL     1      64.085   7.514   5.074  1.00  0.00     0.088 C 
HETATM    3  C   UNL     1      62.073   6.256   5.946  1.00  0.00     0.125 C 
HETATM    4  C   UNL     1      62.342   6.603   3.484  1.00  0.00     0.125 C 
HETATM    5  C   UNL     1      63.086   7.361   6.226  1.00  0.00     0.034 C 
HETATM    6  C   UNL     1      63.328   7.734   3.758  1.00  0.00     0.034 C 
ENDROOT
BRANCH   1   7
HETATM    7  C   UNL     1      60.118   6.728   4.532  1.00  0.00     0.119 A 
HETATM    8  N   UNL     1      59.221   6.149   5.363  1.00  0.00    -0.344 N 
HETATM    9  C   UNL     1      57.911   6.502   5.219  1.00  0.00     0.022 A 
ATOM     10  HN  UNL     1      59.514   5.475   6.070  1.00  0.00     0.167 HD
HETATM   11  C   UNL     1      57.503   7.399   4.241  1.00  0.00     0.112 A 
HETATM   12  C   UNL     1      56.928   5.926   6.188  1.00  0.00     0.069 C 
HETATM   13  N   UNL     1      58.357   7.980   3.382  1.00  0.00    -0.370 N 
HETATM   14  C   UNL     1      59.657   7.624   3.559  1.00  0.00     0.136 A 
ATOM     15  HN  UNL     1      58.056   8.633   2.659  1.00  0.00     0.164 HD
ENDBRANCH   1   7
BRANCH   2  16
HETATM   16  C   UNL     1      65.042   8.664   5.331  1.00  0.00     0.263 C 
HETATM   17  O   UNL     1      64.720   9.755   5.779  1.00  0.00    -0.265 OA
BRANCH  16  18
HETATM   18  O   UNL     1      66.304   8.327   4.938  1.00  0.00    -0.322 OA
BRANCH  18  19
HETATM   19  C   UNL     1      67.141   7.756   5.955  1.00  0.00     0.174 C 
HETATM   20  C   UNL     1      67.659   6.397   5.522  1.00  0.00     0.034 C 
ENDBRANCH  18  19
ENDBRANCH  16  18
ENDBRANCH   2  16
TORSDOF 4
ENDMDL
MODEL 8
REMARK VINA RESULT:      -4.7      3.446      6.620
REMARK  4 active torsions:
REMARK  status: ('A' for Active; 'I' for Inactive)
REMARK    1  A    between atoms: N_1  and  C_2 
REMARK    2  A    between atoms: C_5  and  C_8 
REMARK    3  A    between atoms: C_5  and  O_16 
REMARK    4  A    between atoms: O_16  and  C_19 
ROOT
HETATM    1  N   UNL     1      62.492   7.969   3.463  1.00  0.00    -0.366 N 
HETATM    2  C   UNL     1      64.996   8.163   4.878  1.00  0.00     0.088 C 
HETATM    3  C   UNL     1      63.500   6.938   3.249  1.00  0.00     0.125 C 
HETATM    4  C   UNL     1      62.938   9.280   3.922  1.00  0.00     0.125 C 
HETATM    5  C   UNL     1      64.435   6.803   4.447  1.00  0.00     0.034 C 
HETATM    6  C   UNL     1      63.843   9.139   5.142  1.00  0.00     0.034 C 
ENDROOT
BRANCH   1   7
HETATM    7  C   UNL     1      61.161   7.606   3.602  1.00  0.00     0.119 A 
HETATM    8  N   UNL     1      60.781   6.808   4.626  1.00  0.00    -0.344 N 
HETATM    9  C   UNL     1      59.459   6.480   4.710  1.00  0.00     0.022 A 
ATOM     10  HN  UNL     1      61.457   6.465   5.308  1.00  0.00     0.167 HD
HETATM   11  C   UNL     1      58.538   6.920   3.770  1.00  0.00     0.112 A 
HETATM   12  C   UNL     1      59.023   5.664   5.886  1.00  0.00     0.069 C 
HETATM   13  N   UNL     1      58.877   7.696   2.726  1.00  0.00    -0.370 N 
HETATM   14  C   UNL     1      60.195   8.022   2.675  1.00  0.00     0.136 A 
ATOM     15  HN  UNL     1      58.202   8.014   2.031  1.00  0.00     0.164 HD
ENDBRANCH   1   7
BRANCH   2  16
HETATM   16  C   UNL     1      65.866   8.027   6.114  1.00  0.00     0.263 C 
HETATM   17  O   UNL     1      67.012   8.440   6.212  1.00  0.00    -0.265 OA
BRANCH  16  18
HETATM   18  O   UNL     1      65.208   7.325   7.081  1.00  0.00    -0.322 OA
BRANCH  18  19
HETATM   19  C   UNL     1      66.039   6.571   7.977  1.00  0.00     0.174 C 
HETATM   20  C   UNL     1      66.109   5.117   7.548  1.00  0.00     0.034 C 
ENDBRANCH  18  19
ENDBRANCH  16  18
ENDBRANCH   2  16
TORSDOF 4
ENDMDL
MODEL 9
REMARK VINA RESULT:      -4.6      3.470      6.718
REMARK  4 active torsions:
REMARK  status: ('A' for Active; 'I' for Inactive)
REMARK    1  A    between atoms: N_1  and  C_2 
REMARK    2  A    between atoms: C_5  and  C_8 
REMARK    3  A    between atoms: C_5  and  O_16 
REMARK    4  A    between atoms: O_16  and  C_19 
ROOT
HETATM    1  N   UNL     1      62.779   8.253   5.001  1.00  0.00    -0.366 N 
HETATM    2  C   UNL     1      65.173   7.234   6.240  1.00  0.00     0.088 C 
HETATM    3  C   UNL     1      63.958   9.108   5.056  1.00  0.00     0.125 C 
HETATM    4  C   UNL     1      62.657   7.187   5.990  1.00  0.00     0.125 C 
HETATM    5  C   UNL     1      65.244   8.292   5.134  1.00  0.00     0.034 C 
HETATM    6  C   UNL     1      63.934   6.354   6.036  1.00  0.00     0.034 C 
ENDROOT
BRANCH   1   7
HETATM    7  C   UNL     1      62.019   8.207   3.842  1.00  0.00     0.119 A 
HETATM    8  N   UNL     1      62.606   8.416   2.641  1.00  0.00    -0.344 N 
HETATM    9  C   UNL     1      61.810   8.364   1.534  1.00  0.00     0.022 A 
ATOM     10  HN  UNL     1      63.606   8.606   2.567  1.00  0.00     0.167 HD
HETATM   11  C   UNL     1      60.445   8.134   1.630  1.00  0.00     0.112 A 
HETATM   12  C   UNL     1      62.469   8.515   0.200  1.00  0.00     0.069 C 
HETATM   13  N   UNL     1      59.818   7.943   2.804  1.00  0.00    -0.370 N 
HETATM   14  C   UNL     1      60.637   7.983   3.888  1.00  0.00     0.136 A 
ATOM     15  HN  UNL     1      58.814   7.782   2.874  1.00  0.00     0.164 HD
ENDBRANCH   1   7
BRANCH   2  16
HETATM   16  C   UNL     1      66.429   6.382   6.261  1.00  0.00     0.263 C 
HETATM   17  O   UNL     1      67.523   6.757   6.656  1.00  0.00    -0.265 OA
BRANCH  16  18
HETATM   18  O   UNL     1      66.177   5.155   5.720  1.00  0.00    -0.322 OA
BRANCH  18  19
HETATM   19  C   UNL     1      67.134   4.692   4.755  1.00  0.00     0.174 C 
HETATM   20  C   UNL     1      66.915   5.370   3.416  1.00  0.00     0.034 C 
ENDBRANCH  18  19
ENDBRANCH  16  18
ENDBRANCH   2  16
TORSDOF 4
ENDMDL
