MODEL 1
REMARK VINA RESULT:      -4.2      0.000      0.000
REMARK  0 active torsions:
REMARK  status: ('A' for Active; 'I' for Inactive)
ROOT
HETATM    1  C   UNL     1      63.903   9.168   5.117  1.00  0.00     0.135 A 
HETATM    2  N   UNL     1      64.903   8.480   5.816  1.00  0.00    -0.372 N 
HETATM    3  N   UNL     1      63.491  10.334   5.652  1.00  0.00    -0.350 N 
ATOM      4  HN  UNL     1      63.873  10.680   6.533  1.00  0.00     0.166 HD
HETATM    5  C   UNL     1      63.389   8.666   3.910  1.00  0.00     0.112 A 
HETATM    6  O   UNL     1      63.747   7.454   3.367  1.00  0.00    -0.346 OA
HETATM    7  C   UNL     1      64.885   7.061   5.520  1.00  0.00     0.148 C 
HETATM    8  C   UNL     1      62.551  11.024   4.970  1.00  0.00     0.090 A 
HETATM    9  C   UNL     1      64.909   6.887   3.998  1.00  0.00     0.195 C 
HETATM   10  C   UNL     1      62.406   9.389   3.245  1.00  0.00     0.042 A 
HETATM   11  C   UNL     1      61.982  10.599   3.780  1.00  0.00     0.020 A 
HETATM   12  H   UNL     1      65.539   8.909   6.433  1.00  0.00     0.161 HD
ENDROOT
TORSDOF 0
ENDMDL
MODEL 2
REMARK VINA RESULT:      -4.1      2.354      3.553
REMARK  0 active torsions:
REMARK  status: ('A' for Active; 'I' for Inactive)
ROOT
HETATM    1  C   UNL     1      62.628   9.185   3.618  1.00  0.00     0.135 A 
HETATM    2  N   UNL     1      62.968   9.243   4.975  1.00  0.00    -0.372 N 
HETATM    3  N   UNL     1      62.768   7.988   3.015  1.00  0.00    -0.350 N 
ATOM      4  HN  UNL     1      63.127   7.177   3.519  1.00  0.00     0.166 HD
HETATM    5  C   UNL     1      62.143  10.319   2.945  1.00  0.00     0.112 A 
HETATM    6  O   UNL     1      62.041  11.566   3.515  1.00  0.00    -0.346 OA
HETATM    7  C   UNL     1      63.323  10.588   5.382  1.00  0.00     0.148 C 
HETATM    8  C   UNL     1      62.412   7.910   1.714  1.00  0.00     0.090 A 
HETATM    9  C   UNL     1      62.201  11.535   4.945  1.00  0.00     0.195 C 
HETATM   10  C   UNL     1      61.807  10.211   1.601  1.00  0.00     0.042 A 
HETATM   11  C   UNL     1      61.935   8.979   0.971  1.00  0.00     0.020 A 
HETATM   12  H   UNL     1      62.966   8.465   5.578  1.00  0.00     0.161 HD
ENDROOT
TORSDOF 0
ENDMDL
MODEL 3
REMARK VINA RESULT:      -4.0      1.780      2.222
REMARK  0 active torsions:
REMARK  status: ('A' for Active; 'I' for Inactive)
ROOT
HETATM    1  C   UNL     1      63.772   8.291   4.058  1.00  0.00     0.135 A 
HETATM    2  N   UNL     1      64.550   7.133   3.936  1.00  0.00    -0.372 N 
HETATM    3  N   UNL     1      62.760   8.428   3.179  1.00  0.00    -0.350 N 
ATOM      4  HN  UNL     1      62.589   7.735   2.451  1.00  0.00     0.166 HD
HETATM    5  C   UNL     1      64.033   9.235   5.065  1.00  0.00     0.112 A 
HETATM    6  O   UNL     1      65.091   9.152   5.940  1.00  0.00    -0.346 OA
HETATM    7  C   UNL     1      65.877   7.317   4.491  1.00  0.00     0.148 C 
HETATM    8  C   UNL     1      61.981   9.525   3.307  1.00  0.00     0.090 A 
HETATM    9  C   UNL     1      65.730   7.864   5.915  1.00  0.00     0.195 C 
HETATM   10  C   UNL     1      63.228  10.364   5.155  1.00  0.00     0.042 A 
HETATM   11  C   UNL     1      62.172  10.511   4.263  1.00  0.00     0.020 A 
HETATM   12  H   UNL     1      64.234   6.297   3.523  1.00  0.00     0.161 HD
ENDROOT
TORSDOF 0
ENDMDL
MODEL 4
REMARK VINA RESULT:      -3.9     12.389     13.182
REMARK  0 active torsions:
REMARK  status: ('A' for Active; 'I' for Inactive)
ROOT
HETATM    1  C   UNL     1      56.671   2.183  13.798  1.00  0.00     0.135 A 
HETATM    2  N   UNL     1      55.427   2.274  14.435  1.00  0.00    -0.372 N 
HETATM    3  N   UNL     1      57.692   1.711  14.541  1.00  0.00    -0.350 N 
ATOM      4  HN  UNL     1      57.565   1.459  15.521  1.00  0.00     0.166 HD
HETATM    5  C   UNL     1      56.820   2.545  12.449  1.00  0.00     0.112 A 
HETATM    6  O   UNL     1      55.814   3.081  11.681  1.00  0.00    -0.346 OA
HETATM    7  C   UNL     1      54.572   3.261  13.805  1.00  0.00     0.148 C 
HETATM    8  C   UNL     1      58.890   1.587  13.929  1.00  0.00     0.090 A 
HETATM    9  C   UNL     1      54.522   2.964  12.302  1.00  0.00     0.195 C 
HETATM   10  C   UNL     1      58.072   2.427  11.855  1.00  0.00     0.042 A 
HETATM   11  C   UNL     1      59.130   1.929  12.607  1.00  0.00     0.020 A 
HETATM   12  H   UNL     1      55.166   1.733  15.215  1.00  0.00     0.161 HD
ENDROOT
TORSDOF 0
ENDMDL
MODEL 5
REMARK VINA RESULT:      -3.9      0.857      3.332
REMARK  0 active torsions:
REMARK  status: ('A' for Active; 'I' for Inactive)
ROOT
HETATM    1  C   UNL     1      63.669   8.828   5.201  1.00  0.00     0.135 A 
HETATM    2  N   UNL     1      63.072   9.947   5.795  1.00  0.00    -0.372 N 
HETATM    3  N   UNL     1      64.528   8.129   5.970  1.00  0.00    -0.350 N 
ATOM      4  HN  UNL     1      64.747   8.418   6.923  1.00  0.00     0.166 HD
HETATM    5  C   UNL     1      63.356   8.455   3.884  1.00  0.00     0.112 A 
HETATM    6  O   UNL     1      62.529   9.177   3.056  1.00  0.00    -0.346 OA
HETATM    7  C   UNL     1      62.643  10.915   4.804  1.00  0.00     0.148 C 
HETATM    8  C   UNL     1      65.086   7.027   5.420  1.00  0.00     0.090 A 
HETATM    9  C   UNL     1      61.786  10.188   3.762  1.00  0.00     0.195 C 
HETATM   10  C   UNL     1      63.965   7.330   3.340  1.00  0.00     0.042 A 
HETATM   11  C   UNL     1      64.843   6.592   4.126  1.00  0.00     0.020 A 
HETATM   12  H   UNL     1      62.959  10.062   6.766  1.00  0.00     0.161 HD
ENDROOT
TORSDOF 0
ENDMDL
MODEL 6
REMARK VINA RESULT:      -3.8      3.104      4.368
REMARK  0 active torsions:
REMARK  status: ('A' for Active; 'I' for Inactive)
ROOT
HETATM    1  C   UNL     1      66.321   7.304   7.157  1.00  0.00     0.135 A 
HETATM    2  N   UNL     1      67.322   7.380   8.134  1.00  0.00    -0.372 N 
HETATM    3  N   UNL     1      66.119   8.414   6.419  1.00  0.00    -0.350 N 
ATOM      4  HN  UNL     1      66.651   9.268   6.585  1.00  0.00     0.166 HD
HETATM    5  C   UNL     1      65.597   6.118   6.954  1.00  0.00     0.112 A 
HETATM    6  O   UNL     1      65.741   4.988   7.724  1.00  0.00    -0.346 OA
HETATM    7  C   UNL     1      67.105   6.420   9.199  1.00  0.00     0.148 C 
HETATM    8  C   UNL     1      65.179   8.344   5.450  1.00  0.00     0.090 A 
HETATM    9  C   UNL     1      66.905   5.038   8.568  1.00  0.00     0.195 C 
HETATM   10  C   UNL     1      64.622   6.085   5.964  1.00  0.00     0.042 A 
HETATM   11  C   UNL     1      64.412   7.220   5.188  1.00  0.00     0.020 A 
HETATM   12  H   UNL     1      68.079   8.008   8.101  1.00  0.00     0.161 HD
ENDROOT
TORSDOF 0
ENDMDL
MODEL 7
REMARK VINA RESULT:      -3.8      1.722      2.491
REMARK  0 active torsions:
REMARK  status: ('A' for Active; 'I' for Inactive)
ROOT
HETATM    1  C   UNL     1      65.295   8.244   5.539  1.00  0.00     0.135 A 
HETATM    2  N   UNL     1      66.263   8.413   6.537  1.00  0.00    -0.372 N 
HETATM    3  N   UNL     1      64.309   9.163   5.498  1.00  0.00    -0.350 N 
ATOM      4  HN  UNL     1      64.262   9.924   6.176  1.00  0.00     0.166 HD
HETATM    5  C   UNL     1      65.378   7.183   4.623  1.00  0.00     0.112 A 
HETATM    6  O   UNL     1      66.338   6.199   4.672  1.00  0.00    -0.346 OA
HETATM    7  C   UNL     1      66.915   7.162   6.869  1.00  0.00     0.148 C 
HETATM    8  C   UNL     1      63.387   9.031   4.520  1.00  0.00     0.090 A 
HETATM    9  C   UNL     1      67.415   6.521   5.569  1.00  0.00     0.195 C 
HETATM   10  C   UNL     1      64.401   7.062   3.642  1.00  0.00     0.042 A 
HETATM   11  C   UNL     1      63.386   8.010   3.582  1.00  0.00     0.020 A 
HETATM   12  H   UNL     1      66.473   9.276   6.961  1.00  0.00     0.161 HD
ENDROOT
TORSDOF 0
ENDMDL
MODEL 8
REMARK VINA RESULT:      -3.8      3.851      5.259
REMARK  0 active torsions:
REMARK  status: ('A' for Active; 'I' for Inactive)
ROOT
HETATM    1  C   UNL     1      66.021   6.513   7.586  1.00  0.00     0.135 A 
HETATM    2  N   UNL     1      67.143   7.073   8.209  1.00  0.00    -0.372 N 
HETATM    3  N   UNL     1      65.215   7.366   6.923  1.00  0.00    -0.350 N 
ATOM      4  HN  UNL     1      65.404   8.369   6.902  1.00  0.00     0.166 HD
HETATM    5  C   UNL     1      65.780   5.130   7.638  1.00  0.00     0.112 A 
HETATM    6  O   UNL     1      66.551   4.242   8.350  1.00  0.00    -0.346 OA
HETATM    7  C   UNL     1      67.611   6.252   9.309  1.00  0.00     0.148 C 
HETATM    8  C   UNL     1      64.147   6.835   6.289  1.00  0.00     0.090 A 
HETATM    9  C   UNL     1      67.790   4.819   8.797  1.00  0.00     0.195 C 
HETATM   10  C   UNL     1      64.660   4.618   6.994  1.00  0.00     0.042 A 
HETATM   11  C   UNL     1      63.828   5.486   6.296  1.00  0.00     0.020 A 
HETATM   12  H   UNL     1      67.562   7.921   7.934  1.00  0.00     0.161 HD
ENDROOT
TORSDOF 0
ENDMDL
MODEL 9
REMARK VINA RESULT:      -3.8      3.015      5.415
REMARK  0 active torsions:
REMARK  status: ('A' for Active; 'I' for Inactive)
ROOT
HETATM    1  C   UNL     1      66.499   7.163   7.304  1.00  0.00     0.135 A 
HETATM    2  N   UNL     1      66.272   8.370   6.632  1.00  0.00    -0.372 N 
HETATM    3  N   UNL     1      67.574   7.122   8.116  1.00  0.00    -0.350 N 
ATOM      4  HN  UNL     1      68.199   7.921   8.212  1.00  0.00     0.166 HD
HETATM    5  C   UNL     1      65.626   6.073   7.147  1.00  0.00     0.112 A 
HETATM    6  O   UNL     1      64.554   6.064   6.286  1.00  0.00    -0.346 OA
HETATM    7  C   UNL     1      65.498   8.173   5.421  1.00  0.00     0.148 C 
HETATM    8  C   UNL     1      67.785   5.973   8.796  1.00  0.00     0.090 A 
HETATM    9  C   UNL     1      64.241   7.373   5.779  1.00  0.00     0.195 C 
HETATM   10  C   UNL     1      65.885   4.898   7.844  1.00  0.00     0.042 A 
HETATM   11  C   UNL     1      66.983   4.847   8.695  1.00  0.00     0.020 A 
HETATM   12  H   UNL     1      66.599   9.245   6.943  1.00  0.00     0.161 HD
ENDROOT
TORSDOF 0
ENDMDL
