MODEL 1
REMARK VINA RESULT:      -5.3      0.000      0.000
REMARK  3 active torsions:
REMARK  status: ('A' for Active; 'I' for Inactive)
REMARK    1  A    between atoms: N_1  and  C_3 
REMARK    2  A    between atoms: C_12  and  C_16 
REMARK    3  A    between atoms: N_14  and  C_16 
ROOT
HETATM    1  C   UNL     1      65.090   7.604   4.763  1.00  0.00     0.030 A 
HETATM    2  C   UNL     1      64.552   6.930   3.656  1.00  0.00     0.030 A 
HETATM    3  C   UNL     1      64.451   8.797   5.134  1.00  0.00     0.030 A 
HETATM    4  C   UNL     1      63.432   7.409   2.962  1.00  0.00     0.011 A 
HETATM    5  C   UNL     1      63.331   9.286   4.447  1.00  0.00     0.011 A 
HETATM    6  C   UNL     1      62.806   8.594   3.353  1.00  0.00    -0.033 A 
ENDROOT
BRANCH   1   7
HETATM    7  N   UNL     1      66.198   7.121   5.446  1.00  0.00    -0.379 N 
HETATM    8  C   UNL     1      66.474   7.552   6.824  1.00  0.00     0.150 C 
HETATM    9  C   UNL     1      66.124   6.443   7.835  1.00  0.00     0.254 C 
HETATM   10  N   UNL     1      67.175   5.449   8.123  1.00  0.00    -0.073 N 
HETATM   11  C   UNL     1      67.977   5.034   6.965  1.00  0.00     0.236 C 
HETATM   12  C   UNL     1      68.045   5.886   9.215  1.00  0.00     0.269 C 
HETATM   13  H   UNL     1      66.658   4.617   8.408  1.00  0.00     0.279 HD
HETATM   14  C   UNL     1      67.216   4.856   5.648  1.00  0.00     0.047 C 
HETATM   15  C   UNL     1      67.104   6.149   4.837  1.00  0.00     0.124 C 
ENDBRANCH   1   7
BRANCH   6  16
HETATM   16  C   UNL     1      61.613   9.126   2.604  1.00  0.00     0.268 C 
BRANCH  16  17
HETATM   17  N   UNL     1      61.461  10.565   2.786  1.00  0.00    -0.075 N 
HETATM   18  H   UNL     1      61.256  10.763   3.765  1.00  0.00     0.274 HD
HETATM   19  H   UNL     1      60.696  10.902   2.203  1.00  0.00     0.274 HD
HETATM   20  H   UNL     1      62.326  11.035   2.517  1.00  0.00     0.274 HD
ENDBRANCH  16  17
ENDBRANCH   6  16
TORSDOF 3
ENDMDL
MODEL 2
REMARK VINA RESULT:      -5.0      2.213      6.716
REMARK  3 active torsions:
REMARK  status: ('A' for Active; 'I' for Inactive)
REMARK    1  A    between atoms: N_1  and  C_3 
REMARK    2  A    between atoms: C_12  and  C_16 
REMARK    3  A    between atoms: N_14  and  C_16 
ROOT
HETATM    1  C   UNL     1      63.587   7.384   3.341  1.00  0.00     0.030 A 
HETATM    2  C   UNL     1      64.664   6.488   3.255  1.00  0.00     0.030 A 
HETATM    3  C   UNL     1      63.715   8.420   4.280  1.00  0.00     0.030 A 
HETATM    4  C   UNL     1      65.811   6.621   4.051  1.00  0.00     0.011 A 
HETATM    5  C   UNL     1      64.856   8.561   5.082  1.00  0.00     0.011 A 
HETATM    6  C   UNL     1      65.920   7.662   4.973  1.00  0.00    -0.033 A 
ENDROOT
BRANCH   1   7
HETATM    7  N   UNL     1      62.457   7.247   2.548  1.00  0.00    -0.379 N 
HETATM    8  C   UNL     1      61.213   6.697   3.105  1.00  0.00     0.150 C 
HETATM    9  C   UNL     1      60.170   7.806   3.344  1.00  0.00     0.254 C 
HETATM   10  N   UNL     1      59.298   8.156   2.208  1.00  0.00    -0.073 N 
HETATM   11  C   UNL     1      59.955   8.163   0.895  1.00  0.00     0.236 C 
HETATM   12  C   UNL     1      58.098   7.320   2.173  1.00  0.00     0.269 C 
HETATM   13  H   UNL     1      59.035   9.126   2.386  1.00  0.00     0.279 HD
HETATM   14  C   UNL     1      61.379   8.726   0.856  1.00  0.00     0.047 C 
HETATM   15  C   UNL     1      62.451   7.674   1.149  1.00  0.00     0.124 C 
ENDBRANCH   1   7
BRANCH   6  16
HETATM   16  C   UNL     1      67.140   7.804   5.844  1.00  0.00     0.268 C 
BRANCH  16  17
HETATM   17  N   UNL     1      66.856   8.577   7.047  1.00  0.00    -0.075 N 
HETATM   18  H   UNL     1      65.888   8.423   7.330  1.00  0.00     0.274 HD
HETATM   19  H   UNL     1      67.001   9.569   6.857  1.00  0.00     0.274 HD
HETATM   20  H   UNL     1      67.480   8.281   7.798  1.00  0.00     0.274 HD
ENDBRANCH  16  17
ENDBRANCH   6  16
TORSDOF 3
ENDMDL
MODEL 3
REMARK VINA RESULT:      -4.8      1.410      2.050
REMARK  3 active torsions:
REMARK  status: ('A' for Active; 'I' for Inactive)
REMARK    1  A    between atoms: N_1  and  C_3 
REMARK    2  A    between atoms: C_12  and  C_16 
REMARK    3  A    between atoms: N_14  and  C_16 
ROOT
HETATM    1  C   UNL     1      64.234   7.896   4.646  1.00  0.00     0.030 A 
HETATM    2  C   UNL     1      63.519   9.097   4.766  1.00  0.00     0.030 A 
HETATM    3  C   UNL     1      64.007   7.153   3.477  1.00  0.00     0.030 A 
HETATM    4  C   UNL     1      62.635   9.543   3.773  1.00  0.00     0.011 A 
HETATM    5  C   UNL     1      63.125   7.587   2.478  1.00  0.00     0.011 A 
HETATM    6  C   UNL     1      62.430   8.792   2.614  1.00  0.00    -0.033 A 
ENDROOT
BRANCH   1   7
HETATM    7  N   UNL     1      65.109   7.463   5.633  1.00  0.00    -0.379 N 
HETATM    8  C   UNL     1      64.790   6.285   6.452  1.00  0.00     0.150 C 
HETATM    9  C   UNL     1      65.627   5.064   6.023  1.00  0.00     0.254 C 
HETATM   10  N   UNL     1      66.956   4.917   6.645  1.00  0.00    -0.073 N 
HETATM   11  C   UNL     1      67.698   6.170   6.839  1.00  0.00     0.236 C 
HETATM   12  C   UNL     1      66.884   4.168   7.899  1.00  0.00     0.269 C 
HETATM   13  H   UNL     1      67.494   4.386   5.959  1.00  0.00     0.279 HD
HETATM   14  C   UNL     1      67.586   7.200   5.711  1.00  0.00     0.047 C 
HETATM   15  C   UNL     1      66.385   8.136   5.868  1.00  0.00     0.124 C 
ENDBRANCH   1   7
BRANCH   6  16
HETATM   16  C   UNL     1      61.471   9.253   1.549  1.00  0.00     0.268 C 
BRANCH  16  17
HETATM   17  N   UNL     1      60.176   8.593   1.669  1.00  0.00    -0.075 N 
HETATM   18  H   UNL     1      60.212   7.688   1.200  1.00  0.00     0.274 HD
HETATM   19  H   UNL     1      59.457   9.172   1.235  1.00  0.00     0.274 HD
HETATM   20  H   UNL     1      59.953   8.456   2.655  1.00  0.00     0.274 HD
ENDBRANCH  16  17
ENDBRANCH   6  16
TORSDOF 3
ENDMDL
MODEL 4
REMARK VINA RESULT:      -4.7      1.383      2.013
REMARK  3 active torsions:
REMARK  status: ('A' for Active; 'I' for Inactive)
REMARK    1  A    between atoms: N_1  and  C_3 
REMARK    2  A    between atoms: C_12  and  C_16 
REMARK    3  A    between atoms: N_14  and  C_16 
ROOT
HETATM    1  C   UNL     1      64.191   7.573   4.510  1.00  0.00     0.030 A 
HETATM    2  C   UNL     1      63.842   7.074   3.245  1.00  0.00     0.030 A 
HETATM    3  C   UNL     1      63.641   8.816   4.860  1.00  0.00     0.030 A 
HETATM    4  C   UNL     1      62.984   7.768   2.380  1.00  0.00     0.011 A 
HETATM    5  C   UNL     1      62.784   9.519   4.002  1.00  0.00     0.011 A 
HETATM    6  C   UNL     1      62.442   8.999   2.751  1.00  0.00    -0.033 A 
ENDROOT
BRANCH   1   7
HETATM    7  N   UNL     1      65.039   6.879   5.362  1.00  0.00    -0.379 N 
HETATM    8  C   UNL     1      65.117   5.412   5.310  1.00  0.00     0.150 C 
HETATM    9  C   UNL     1      66.415   4.947   4.622  1.00  0.00     0.254 C 
HETATM   10  N   UNL     1      67.607   4.803   5.478  1.00  0.00    -0.073 N 
HETATM   11  C   UNL     1      67.761   5.833   6.513  1.00  0.00     0.236 C 
HETATM   12  C   UNL     1      67.686   3.468   6.072  1.00  0.00     0.269 C 
HETATM   13  H   UNL     1      68.390   4.941   4.838  1.00  0.00     0.279 HD
HETATM   14  C   UNL     1      67.387   7.261   6.104  1.00  0.00     0.047 C 
HETATM   15  C   UNL     1      65.904   7.578   6.311  1.00  0.00     0.124 C 
ENDBRANCH   1   7
BRANCH   6  16
HETATM   16  C   UNL     1      61.533   9.760   1.823  1.00  0.00     0.268 C 
BRANCH  16  17
HETATM   17  N   UNL     1      61.553  11.191   2.103  1.00  0.00    -0.075 N 
HETATM   18  H   UNL     1      60.609  11.506   2.327  1.00  0.00     0.274 HD
HETATM   19  H   UNL     1      61.894  11.693   1.284  1.00  0.00     0.274 HD
HETATM   20  H   UNL     1      62.169  11.374   2.895  1.00  0.00     0.274 HD
ENDBRANCH  16  17
ENDBRANCH   6  16
TORSDOF 3
ENDMDL
MODEL 5
REMARK VINA RESULT:      -4.4      1.436      6.529
REMARK  3 active torsions:
REMARK  status: ('A' for Active; 'I' for Inactive)
REMARK    1  A    between atoms: N_1  and  C_3 
REMARK    2  A    between atoms: C_12  and  C_16 
REMARK    3  A    between atoms: N_14  and  C_16 
ROOT
HETATM    1  C   UNL     1      65.886   6.593   5.829  1.00  0.00     0.030 A 
HETATM    2  C   UNL     1      65.461   6.581   7.167  1.00  0.00     0.030 A 
HETATM    3  C   UNL     1      67.016   5.815   5.530  1.00  0.00     0.030 A 
HETATM    4  C   UNL     1      66.116   5.828   8.152  1.00  0.00     0.011 A 
HETATM    5  C   UNL     1      67.680   5.060   6.507  1.00  0.00     0.011 A 
HETATM    6  C   UNL     1      67.234   5.056   7.831  1.00  0.00    -0.033 A 
ENDROOT
BRANCH   1   7
HETATM    7  N   UNL     1      65.231   7.339   4.859  1.00  0.00    -0.379 N 
HETATM    8  C   UNL     1      64.931   6.758   3.543  1.00  0.00     0.150 C 
HETATM    9  C   UNL     1      63.437   6.403   3.416  1.00  0.00     0.254 C 
HETATM   10  N   UNL     1      62.536   7.474   2.951  1.00  0.00    -0.073 N 
HETATM   11  C   UNL     1      62.838   8.814   3.471  1.00  0.00     0.236 C 
HETATM   12  C   UNL     1      62.442   7.503   1.492  1.00  0.00     0.269 C 
HETATM   13  H   UNL     1      61.630   7.226   3.349  1.00  0.00     0.279 HD
HETATM   14  C   UNL     1      63.279   8.885   4.936  1.00  0.00     0.047 C 
HETATM   15  C   UNL     1      64.787   8.707   5.121  1.00  0.00     0.124 C 
ENDBRANCH   1   7
BRANCH   6  16
HETATM   16  C   UNL     1      67.954   4.257   8.884  1.00  0.00     0.268 C 
BRANCH  16  17
HETATM   17  N   UNL     1      67.323   2.961   9.103  1.00  0.00    -0.075 N 
HETATM   18  H   UNL     1      67.408   2.396   8.258  1.00  0.00     0.274 HD
HETATM   19  H   UNL     1      66.337   3.096   9.325  1.00  0.00     0.274 HD
HETATM   20  H   UNL     1      67.784   2.485   9.878  1.00  0.00     0.274 HD
ENDBRANCH  16  17
ENDBRANCH   6  16
TORSDOF 3
ENDMDL
MODEL 6
REMARK VINA RESULT:      -4.2      2.652      6.774
REMARK  3 active torsions:
REMARK  status: ('A' for Active; 'I' for Inactive)
REMARK    1  A    between atoms: N_1  and  C_3 
REMARK    2  A    between atoms: C_12  and  C_16 
REMARK    3  A    between atoms: N_14  and  C_16 
ROOT
HETATM    1  C   UNL     1      62.786   7.462   4.940  1.00  0.00     0.030 A 
HETATM    2  C   UNL     1      63.819   8.261   4.427  1.00  0.00     0.030 A 
HETATM    3  C   UNL     1      63.110   6.665   6.050  1.00  0.00     0.030 A 
HETATM    4  C   UNL     1      65.102   8.276   4.993  1.00  0.00     0.011 A 
HETATM    5  C   UNL     1      64.389   6.671   6.622  1.00  0.00     0.011 A 
HETATM    6  C   UNL     1      65.401   7.481   6.100  1.00  0.00    -0.033 A 
ENDROOT
BRANCH   1   7
HETATM    7  N   UNL     1      61.517   7.455   4.377  1.00  0.00    -0.379 N 
HETATM    8  C   UNL     1      61.191   8.347   3.255  1.00  0.00     0.150 C 
HETATM    9  C   UNL     1      61.126   7.571   1.926  1.00  0.00     0.254 C 
HETATM   10  N   UNL     1      59.833   6.952   1.579  1.00  0.00    -0.073 N 
HETATM   11  C   UNL     1      59.101   6.361   2.706  1.00  0.00     0.236 C 
HETATM   12  C   UNL     1      58.973   7.879   0.843  1.00  0.00     0.269 C 
HETATM   13  H   UNL     1      60.087   6.168   0.977  1.00  0.00     0.279 HD
HETATM   14  C   UNL     1      59.948   5.624   3.747  1.00  0.00     0.047 C 
HETATM   15  C   UNL     1      60.478   6.542   4.851  1.00  0.00     0.124 C 
ENDBRANCH   1   7
BRANCH   6  16
HETATM   16  C   UNL     1      66.780   7.477   6.704  1.00  0.00     0.268 C 
BRANCH  16  17
HETATM   17  N   UNL     1      67.071   8.731   7.389  1.00  0.00    -0.075 N 
HETATM   18  H   UNL     1      68.080   8.871   7.427  1.00  0.00     0.274 HD
HETATM   19  H   UNL     1      66.697   8.696   8.337  1.00  0.00     0.274 HD
HETATM   20  H   UNL     1      66.639   9.504   6.882  1.00  0.00     0.274 HD
ENDBRANCH  16  17
ENDBRANCH   6  16
TORSDOF 3
ENDMDL
MODEL 7
REMARK VINA RESULT:      -4.1      4.237      7.193
REMARK  3 active torsions:
REMARK  status: ('A' for Active; 'I' for Inactive)
REMARK    1  A    between atoms: N_1  and  C_3 
REMARK    2  A    between atoms: C_12  and  C_16 
REMARK    3  A    between atoms: N_14  and  C_16 
ROOT
HETATM    1  C   UNL     1      61.216   7.000   4.742  1.00  0.00     0.030 A 
HETATM    2  C   UNL     1      62.001   6.626   5.843  1.00  0.00     0.030 A 
HETATM    3  C   UNL     1      61.819   7.864   3.815  1.00  0.00     0.030 A 
HETATM    4  C   UNL     1      63.318   7.077   6.010  1.00  0.00     0.011 A 
HETATM    5  C   UNL     1      63.134   8.323   3.972  1.00  0.00     0.011 A 
HETATM    6  C   UNL     1      63.901   7.930   5.072  1.00  0.00    -0.033 A 
ENDROOT
BRANCH   1   7
HETATM    7  N   UNL     1      59.914   6.547   4.583  1.00  0.00    -0.379 N 
HETATM    8  C   UNL     1      59.383   5.478   5.441  1.00  0.00     0.150 C 
HETATM    9  C   UNL     1      58.415   6.041   6.500  1.00  0.00     0.254 C 
HETATM   10  N   UNL     1      57.002   6.181   6.102  1.00  0.00    -0.073 N 
HETATM   11  C   UNL     1      56.783   6.636   4.723  1.00  0.00     0.236 C 
HETATM   12  C   UNL     1      56.246   4.956   6.360  1.00  0.00     0.269 C 
HETATM   13  H   UNL     1      56.650   6.933   6.695  1.00  0.00     0.279 HD
HETATM   14  C   UNL     1      57.743   7.712   4.208  1.00  0.00     0.047 C 
HETATM   15  C   UNL     1      59.018   7.136   3.589  1.00  0.00     0.124 C 
ENDBRANCH   1   7
BRANCH   6  16
HETATM   16  C   UNL     1      65.309   8.434   5.249  1.00  0.00     0.268 C 
BRANCH  16  17
HETATM   17  N   UNL     1      65.852   8.065   6.551  1.00  0.00    -0.075 N 
HETATM   18  H   UNL     1      65.963   7.053   6.599  1.00  0.00     0.274 HD
HETATM   19  H   UNL     1      65.216   8.373   7.286  1.00  0.00     0.274 HD
HETATM   20  H   UNL     1      66.760   8.512   6.680  1.00  0.00     0.274 HD
ENDBRANCH  16  17
ENDBRANCH   6  16
TORSDOF 3
ENDMDL
MODEL 8
REMARK VINA RESULT:      -4.0      4.090      4.785
REMARK  3 active torsions:
REMARK  status: ('A' for Active; 'I' for Inactive)
REMARK    1  A    between atoms: N_1  and  C_3 
REMARK    2  A    between atoms: C_12  and  C_16 
REMARK    3  A    between atoms: N_14  and  C_16 
ROOT
HETATM    1  C   UNL     1      61.791   7.138   5.011  1.00  0.00     0.030 A 
HETATM    2  C   UNL     1      60.885   7.105   3.939  1.00  0.00     0.030 A 
HETATM    3  C   UNL     1      62.740   8.172   4.990  1.00  0.00     0.030 A 
HETATM    4  C   UNL     1      60.914   8.054   2.908  1.00  0.00     0.011 A 
HETATM    5  C   UNL     1      62.778   9.126   3.963  1.00  0.00     0.011 A 
HETATM    6  C   UNL     1      61.861   9.079   2.910  1.00  0.00    -0.033 A 
ENDROOT
BRANCH   1   7
HETATM    7  N   UNL     1      61.755   6.196   6.029  1.00  0.00    -0.379 N 
HETATM    8  C   UNL     1      60.584   6.090   6.911  1.00  0.00     0.150 C 
HETATM    9  C   UNL     1      59.732   4.856   6.562  1.00  0.00     0.254 C 
HETATM   10  N   UNL     1      60.108   3.583   7.204  1.00  0.00    -0.073 N 
HETATM   11  C   UNL     1      61.553   3.352   7.333  1.00  0.00     0.236 C 
HETATM   12  C   UNL     1      59.448   3.417   8.498  1.00  0.00     0.269 C 
HETATM   13  H   UNL     1      59.776   2.869   6.555  1.00  0.00     0.279 HD
HETATM   14  C   UNL     1      62.415   3.796   6.148  1.00  0.00     0.047 C 
HETATM   15  C   UNL     1      62.857   5.258   6.239  1.00  0.00     0.124 C 
ENDBRANCH   1   7
BRANCH   6  16
HETATM   16  C   UNL     1      61.910  10.093   1.799  1.00  0.00     0.268 C 
BRANCH  16  17
HETATM   17  N   UNL     1      61.544  11.424   2.268  1.00  0.00    -0.075 N 
HETATM   18  H   UNL     1      61.490  12.062   1.474  1.00  0.00     0.274 HD
HETATM   19  H   UNL     1      62.247  11.759   2.926  1.00  0.00     0.274 HD
HETATM   20  H   UNL     1      60.637  11.383   2.734  1.00  0.00     0.274 HD
ENDBRANCH  16  17
ENDBRANCH   6  16
TORSDOF 3
ENDMDL
MODEL 9
REMARK VINA RESULT:      -3.9      9.476     10.928
REMARK  3 active torsions:
REMARK  status: ('A' for Active; 'I' for Inactive)
REMARK    1  A    between atoms: N_1  and  C_3 
REMARK    2  A    between atoms: C_12  and  C_16 
REMARK    3  A    between atoms: N_14  and  C_16 
ROOT
HETATM    1  C   UNL     1      60.132   0.327  11.834  1.00  0.00     0.030 A 
HETATM    2  C   UNL     1      59.053   0.442  10.944  1.00  0.00     0.030 A 
HETATM    3  C   UNL     1      59.987   0.974  13.072  1.00  0.00     0.030 A 
HETATM    4  C   UNL     1      57.888   1.150  11.270  1.00  0.00     0.011 A 
HETATM    5  C   UNL     1      58.828   1.687  13.408  1.00  0.00     0.011 A 
HETATM    6  C   UNL     1      57.762   1.780  12.510  1.00  0.00    -0.033 A 
ENDROOT
BRANCH   1   7
HETATM    7  N   UNL     1      61.281  -0.378  11.505  1.00  0.00    -0.379 N 
HETATM    8  C   UNL     1      61.657  -0.583  10.099  1.00  0.00     0.150 C 
HETATM    9  C   UNL     1      62.831   0.329   9.696  1.00  0.00     0.254 C 
HETATM   10  N   UNL     1      64.190  -0.183   9.949  1.00  0.00    -0.073 N 
HETATM   11  C   UNL     1      64.354  -0.925  11.206  1.00  0.00     0.236 C 
HETATM   12  C   UNL     1      64.686  -0.973   8.823  1.00  0.00     0.269 C 
HETATM   13  H   UNL     1      64.757   0.658  10.055  1.00  0.00     0.279 HD
HETATM   14  C   UNL     1      63.600  -0.371  12.419  1.00  0.00     0.047 C 
HETATM   15  C   UNL     1      62.171  -0.908  12.536  1.00  0.00     0.124 C 
ENDBRANCH   1   7
BRANCH   6  16
HETATM   16  C   UNL     1      56.522   2.557  12.863  1.00  0.00     0.268 C 
BRANCH  16  17
HETATM   17  N   UNL     1      56.067   2.260  14.217  1.00  0.00    -0.075 N 
HETATM   18  H   UNL     1      56.272   1.285  14.437  1.00  0.00     0.274 HD
HETATM   19  H   UNL     1      55.062   2.420  14.281  1.00  0.00     0.274 HD
HETATM   20  H   UNL     1      56.551   2.867  14.879  1.00  0.00     0.274 HD
ENDBRANCH  16  17
ENDBRANCH   6  16
TORSDOF 3
ENDMDL
