MODEL 1
REMARK VINA RESULT:      -5.5      0.000      0.000
REMARK  3 active torsions:
REMARK  status: ('A' for Active; 'I' for Inactive)
REMARK    1  A    between atoms: C_3  and  C_7 
REMARK    2  A    between atoms: C_9  and  C_14 
REMARK    3  A    between atoms: N_10  and  C_14 
ROOT
HETATM    1  C   UNL     1      63.317   9.020   4.696  1.00  0.00    -0.007 A 
HETATM    2  C   UNL     1      62.904   8.699   3.397  1.00  0.00     0.022 A 
HETATM    3  C   UNL     1      62.178   9.618   2.623  1.00  0.00    -0.032 A 
HETATM    4  C   UNL     1      63.000  10.276   5.227  1.00  0.00     0.014 A 
HETATM    5  C   UNL     1      62.285  11.200   4.466  1.00  0.00     0.002 A 
HETATM    6  C   UNL     1      61.875  10.873   3.172  1.00  0.00     0.009 A 
ENDROOT
BRANCH   1   7
HETATM    7  C   UNL     1      64.031   8.037   5.503  1.00  0.00     0.059 A 
HETATM    8  N   UNL     1      65.256   8.279   5.998  1.00  0.00    -0.299 N 
HETATM    9  N   UNL     1      65.541   7.191   6.732  1.00  0.00    -0.307 N 
ATOM     10  HN  UNL     1      65.838   9.104   5.849  1.00  0.00     0.187 HD
HETATM   11  C   UNL     1      64.568   6.243   6.702  1.00  0.00     0.112 A 
HETATM   12  C   UNL     1      66.764   7.162   7.494  1.00  0.00     0.177 C 
HETATM   13  C   UNL     1      63.570   6.752   5.910  1.00  0.00     0.050 A 
ENDBRANCH   1   7
BRANCH   3  14
HETATM   14  C   UNL     1      61.702   9.248   1.244  1.00  0.00     0.268 C 
BRANCH  14  15
HETATM   15  N   UNL     1      60.314   8.803   1.257  1.00  0.00    -0.075 N 
HETATM   16  H   UNL     1      59.921   8.941   2.188  1.00  0.00     0.274 HD
HETATM   17  H   UNL     1      60.272   7.813   1.015  1.00  0.00     0.274 HD
HETATM   18  H   UNL     1      59.777   9.342   0.578  1.00  0.00     0.274 HD
ENDBRANCH  14  15
ENDBRANCH   3  14
TORSDOF 3
ENDMDL
MODEL 2
REMARK VINA RESULT:      -5.3      1.487      2.557
REMARK  3 active torsions:
REMARK  status: ('A' for Active; 'I' for Inactive)
REMARK    1  A    between atoms: C_3  and  C_7 
REMARK    2  A    between atoms: C_9  and  C_14 
REMARK    3  A    between atoms: N_10  and  C_14 
ROOT
HETATM    1  C   UNL     1      64.354   7.902   4.645  1.00  0.00    -0.007 A 
HETATM    2  C   UNL     1      63.657   9.110   4.771  1.00  0.00     0.022 A 
HETATM    3  C   UNL     1      62.694   9.489   3.823  1.00  0.00    -0.032 A 
HETATM    4  C   UNL     1      64.083   7.063   3.557  1.00  0.00     0.014 A 
HETATM    5  C   UNL     1      63.125   7.425   2.612  1.00  0.00     0.002 A 
HETATM    6  C   UNL     1      62.435   8.633   2.744  1.00  0.00     0.009 A 
ENDROOT
BRANCH   1   7
HETATM    7  C   UNL     1      65.384   7.543   5.615  1.00  0.00     0.059 A 
HETATM    8  N   UNL     1      65.085   7.229   6.885  1.00  0.00    -0.299 N 
HETATM    9  N   UNL     1      66.265   6.892   7.433  1.00  0.00    -0.307 N 
ATOM     10  HN  UNL     1      64.168   7.243   7.333  1.00  0.00     0.187 HD
HETATM   11  C   UNL     1      67.315   7.011   6.579  1.00  0.00     0.112 A 
HETATM   12  C   UNL     1      66.292   6.401   8.788  1.00  0.00     0.177 C 
HETATM   13  C   UNL     1      66.786   7.436   5.387  1.00  0.00     0.050 A 
ENDBRANCH   1   7
BRANCH   3  14
HETATM   14  C   UNL     1      61.981  10.809   3.945  1.00  0.00     0.268 C 
BRANCH  14  15
HETATM   15  N   UNL     1      61.605  11.338   2.640  1.00  0.00    -0.075 N 
HETATM   16  H   UNL     1      60.607  11.193   2.489  1.00  0.00     0.274 HD
HETATM   17  H   UNL     1      62.132  10.854   1.913  1.00  0.00     0.274 HD
HETATM   18  H   UNL     1      61.813  12.336   2.604  1.00  0.00     0.274 HD
ENDBRANCH  14  15
ENDBRANCH   3  14
TORSDOF 3
ENDMDL
MODEL 3
REMARK VINA RESULT:      -4.9      1.473      5.575
REMARK  3 active torsions:
REMARK  status: ('A' for Active; 'I' for Inactive)
REMARK    1  A    between atoms: C_3  and  C_7 
REMARK    2  A    between atoms: C_9  and  C_14 
REMARK    3  A    between atoms: N_10  and  C_14 
ROOT
HETATM    1  C   UNL     1      62.053   9.177   3.352  1.00  0.00    -0.007 A 
HETATM    2  C   UNL     1      63.131   8.465   3.891  1.00  0.00     0.022 A 
HETATM    3  C   UNL     1      63.928   9.019   4.904  1.00  0.00    -0.032 A 
HETATM    4  C   UNL     1      61.768  10.461   3.835  1.00  0.00     0.014 A 
HETATM    5  C   UNL     1      62.549  11.021   4.845  1.00  0.00     0.002 A 
HETATM    6  C   UNL     1      63.623  10.304   5.377  1.00  0.00     0.009 A 
ENDROOT
BRANCH   1   7
HETATM    7  C   UNL     1      61.262   8.605   2.268  1.00  0.00     0.059 A 
HETATM    8  N   UNL     1      60.017   8.142   2.466  1.00  0.00    -0.299 N 
HETATM    9  N   UNL     1      59.600   7.773   1.242  1.00  0.00    -0.307 N 
ATOM     10  HN  UNL     1      59.504   8.084   3.345  1.00  0.00     0.187 HD
HETATM   11  C   UNL     1      60.536   7.945   0.273  1.00  0.00     0.112 A 
HETATM   12  C   UNL     1      58.245   7.312   1.075  1.00  0.00     0.177 C 
HETATM   13  C   UNL     1      61.633   8.480   0.899  1.00  0.00     0.050 A 
ENDBRANCH   1   7
BRANCH   3  14
HETATM   14  C   UNL     1      65.110   8.262   5.447  1.00  0.00     0.268 C 
BRANCH  14  15
HETATM   15  N   UNL     1      64.753   7.481   6.624  1.00  0.00    -0.075 N 
HETATM   16  H   UNL     1      65.443   6.744   6.766  1.00  0.00     0.274 HD
HETATM   17  H   UNL     1      63.833   7.062   6.487  1.00  0.00     0.274 HD
HETATM   18  H   UNL     1      64.731   8.089   7.442  1.00  0.00     0.274 HD
ENDBRANCH  14  15
ENDBRANCH   3  14
TORSDOF 3
ENDMDL
MODEL 4
REMARK VINA RESULT:      -4.7      2.111      6.029
REMARK  3 active torsions:
REMARK  status: ('A' for Active; 'I' for Inactive)
REMARK    1  A    between atoms: C_3  and  C_7 
REMARK    2  A    between atoms: C_9  and  C_14 
REMARK    3  A    between atoms: N_10  and  C_14 
ROOT
HETATM    1  C   UNL     1      65.482   7.240   4.980  1.00  0.00    -0.007 A 
HETATM    2  C   UNL     1      65.933   6.952   6.274  1.00  0.00     0.022 A 
HETATM    3  C   UNL     1      66.940   5.999   6.493  1.00  0.00    -0.032 A 
HETATM    4  C   UNL     1      66.047   6.565   3.891  1.00  0.00     0.014 A 
HETATM    5  C   UNL     1      67.052   5.621   4.093  1.00  0.00     0.002 A 
HETATM    6  C   UNL     1      67.496   5.339   5.388  1.00  0.00     0.009 A 
ENDROOT
BRANCH   1   7
HETATM    7  C   UNL     1      64.402   8.200   4.774  1.00  0.00     0.059 A 
HETATM    8  N   UNL     1      64.238   9.265   5.574  1.00  0.00    -0.299 N 
HETATM    9  N   UNL     1      63.208   9.935   5.030  1.00  0.00    -0.307 N 
ATOM     10  HN  UNL     1      64.774   9.511   6.407  1.00  0.00     0.187 HD
HETATM   11  C   UNL     1      62.681   9.328   3.936  1.00  0.00     0.112 A 
HETATM   12  C   UNL     1      62.823  11.204   5.595  1.00  0.00     0.177 C 
HETATM   13  C   UNL     1      63.426   8.193   3.738  1.00  0.00     0.050 A 
ENDBRANCH   1   7
BRANCH   3  14
HETATM   14  C   UNL     1      67.387   5.668   7.891  1.00  0.00     0.268 C 
BRANCH  14  15
HETATM   15  N   UNL     1      67.662   6.871   8.666  1.00  0.00    -0.075 N 
HETATM   16  H   UNL     1      68.229   6.630   9.479  1.00  0.00     0.274 HD
HETATM   17  H   UNL     1      66.782   7.284   8.975  1.00  0.00     0.274 HD
HETATM   18  H   UNL     1      68.167   7.541   8.086  1.00  0.00     0.274 HD
ENDBRANCH  14  15
ENDBRANCH   3  14
TORSDOF 3
ENDMDL
MODEL 5
REMARK VINA RESULT:      -4.7      1.752      2.154
REMARK  3 active torsions:
REMARK  status: ('A' for Active; 'I' for Inactive)
REMARK    1  A    between atoms: C_3  and  C_7 
REMARK    2  A    between atoms: C_9  and  C_14 
REMARK    3  A    between atoms: N_10  and  C_14 
ROOT
HETATM    1  C   UNL     1      64.234   8.209   4.657  1.00  0.00    -0.007 A 
HETATM    2  C   UNL     1      63.944   7.456   3.513  1.00  0.00     0.022 A 
HETATM    3  C   UNL     1      62.912   7.836   2.640  1.00  0.00    -0.032 A 
HETATM    4  C   UNL     1      63.482   9.358   4.931  1.00  0.00     0.014 A 
HETATM    5  C   UNL     1      62.458   9.750   4.070  1.00  0.00     0.002 A 
HETATM    6  C   UNL     1      62.174   8.993   2.931  1.00  0.00     0.009 A 
ENDROOT
BRANCH   1   7
HETATM    7  C   UNL     1      65.279   7.775   5.578  1.00  0.00     0.059 A 
HETATM    8  N   UNL     1      64.997   7.320   6.809  1.00  0.00    -0.299 N 
HETATM    9  N   UNL     1      66.189   6.956   7.312  1.00  0.00    -0.307 N 
ATOM     10  HN  UNL     1      64.083   7.263   7.260  1.00  0.00     0.187 HD
HETATM   11  C   UNL     1      67.229   7.191   6.471  1.00  0.00     0.112 A 
HETATM   12  C   UNL     1      66.238   6.324   8.606  1.00  0.00     0.177 C 
HETATM   13  C   UNL     1      66.681   7.728   5.333  1.00  0.00     0.050 A 
ENDBRANCH   1   7
BRANCH   3  14
HETATM   14  C   UNL     1      62.581   6.996   1.436  1.00  0.00     0.268 C 
BRANCH  14  15
HETATM   15  N   UNL     1      63.569   5.945   1.228  1.00  0.00    -0.075 N 
HETATM   16  H   UNL     1      63.471   5.568   0.286  1.00  0.00     0.274 HD
HETATM   17  H   UNL     1      63.421   5.200   1.909  1.00  0.00     0.274 HD
HETATM   18  H   UNL     1      64.506   6.330   1.344  1.00  0.00     0.274 HD
ENDBRANCH  14  15
ENDBRANCH   3  14
TORSDOF 3
ENDMDL
MODEL 6
REMARK VINA RESULT:      -4.5      9.552     11.675
REMARK  3 active torsions:
REMARK  status: ('A' for Active; 'I' for Inactive)
REMARK    1  A    between atoms: C_3  and  C_7 
REMARK    2  A    between atoms: C_9  and  C_14 
REMARK    3  A    between atoms: N_10  and  C_14 
ROOT
HETATM    1  C   UNL     1      58.247   2.483  11.752  1.00  0.00    -0.007 A 
HETATM    2  C   UNL     1      56.930   2.515  12.226  1.00  0.00     0.022 A 
HETATM    3  C   UNL     1      56.599   1.966  13.475  1.00  0.00    -0.032 A 
HETATM    4  C   UNL     1      59.246   1.896  12.539  1.00  0.00     0.014 A 
HETATM    5  C   UNL     1      58.932   1.352  13.783  1.00  0.00     0.002 A 
HETATM    6  C   UNL     1      57.615   1.387  14.249  1.00  0.00     0.009 A 
ENDROOT
BRANCH   1   7
HETATM    7  C   UNL     1      58.567   3.018  10.433  1.00  0.00     0.059 A 
HETATM    8  N   UNL     1      58.570   4.337  10.183  1.00  0.00    -0.299 N 
HETATM    9  N   UNL     1      58.976   4.434   8.906  1.00  0.00    -0.307 N 
ATOM     10  HN  UNL     1      58.321   5.094  10.820  1.00  0.00     0.187 HD
HETATM   11  C   UNL     1      59.199   3.233   8.313  1.00  0.00     0.112 A 
HETATM   12  C   UNL     1      59.186   5.741   8.336  1.00  0.00     0.177 C 
HETATM   13  C   UNL     1      58.940   2.285   9.270  1.00  0.00     0.050 A 
ENDBRANCH   1   7
BRANCH   3  14
HETATM   14  C   UNL     1      55.173   1.967  13.956  1.00  0.00     0.268 C 
BRANCH  14  15
HETATM   15  N   UNL     1      54.879   3.146  14.760  1.00  0.00    -0.075 N 
HETATM   16  H   UNL     1      55.415   3.940  14.409  1.00  0.00     0.274 HD
HETATM   17  H   UNL     1      55.135   2.967  15.731  1.00  0.00     0.274 HD
HETATM   18  H   UNL     1      53.883   3.357  14.705  1.00  0.00     0.274 HD
ENDBRANCH  14  15
ENDBRANCH   3  14
TORSDOF 3
ENDMDL
MODEL 7
REMARK VINA RESULT:      -4.4      1.690      2.151
REMARK  3 active torsions:
REMARK  status: ('A' for Active; 'I' for Inactive)
REMARK    1  A    between atoms: C_3  and  C_7 
REMARK    2  A    between atoms: C_9  and  C_14 
REMARK    3  A    between atoms: N_10  and  C_14 
ROOT
HETATM    1  C   UNL     1      63.108   7.728   4.539  1.00  0.00    -0.007 A 
HETATM    2  C   UNL     1      63.063   8.733   3.565  1.00  0.00     0.022 A 
HETATM    3  C   UNL     1      61.883   8.995   2.851  1.00  0.00    -0.032 A 
HETATM    4  C   UNL     1      61.957   6.975   4.801  1.00  0.00     0.014 A 
HETATM    5  C   UNL     1      60.777   7.228   4.104  1.00  0.00     0.002 A 
HETATM    6  C   UNL     1      60.741   8.232   3.133  1.00  0.00     0.009 A 
ENDROOT
BRANCH   1   7
HETATM    7  C   UNL     1      64.355   7.438   5.239  1.00  0.00     0.059 A 
HETATM    8  N   UNL     1      65.553   7.715   4.700  1.00  0.00    -0.299 N 
HETATM    9  N   UNL     1      66.435   7.381   5.657  1.00  0.00    -0.307 N 
ATOM     10  HN  UNL     1      65.749   8.093   3.773  1.00  0.00     0.187 HD
HETATM   11  C   UNL     1      65.858   6.869   6.775  1.00  0.00     0.112 A 
HETATM   12  C   UNL     1      67.835   7.646   5.441  1.00  0.00     0.177 C 
HETATM   13  C   UNL     1      64.506   6.884   6.542  1.00  0.00     0.050 A 
ENDBRANCH   1   7
BRANCH   3  14
HETATM   14  C   UNL     1      61.858  10.049   1.778  1.00  0.00     0.268 C 
BRANCH  14  15
HETATM   15  N   UNL     1      61.579  11.369   2.329  1.00  0.00    -0.075 N 
HETATM   16  H   UNL     1      60.583  11.450   2.532  1.00  0.00     0.274 HD
HETATM   17  H   UNL     1      61.847  12.083   1.652  1.00  0.00     0.274 HD
HETATM   18  H   UNL     1      62.113  11.499   3.189  1.00  0.00     0.274 HD
ENDBRANCH  14  15
ENDBRANCH   3  14
TORSDOF 3
ENDMDL
MODEL 8
REMARK VINA RESULT:      -4.3      2.048      2.534
REMARK  3 active torsions:
REMARK  status: ('A' for Active; 'I' for Inactive)
REMARK    1  A    between atoms: C_3  and  C_7 
REMARK    2  A    between atoms: C_9  and  C_14 
REMARK    3  A    between atoms: N_10  and  C_14 
ROOT
HETATM    1  C   UNL     1      63.323   7.954   4.876  1.00  0.00    -0.007 A 
HETATM    2  C   UNL     1      62.333   6.963   4.851  1.00  0.00     0.022 A 
HETATM    3  C   UNL     1      61.125   7.165   4.167  1.00  0.00    -0.032 A 
HETATM    4  C   UNL     1      63.100   9.163   4.206  1.00  0.00     0.014 A 
HETATM    5  C   UNL     1      61.906   9.375   3.517  1.00  0.00     0.002 A 
HETATM    6  C   UNL     1      60.924   8.382   3.498  1.00  0.00     0.009 A 
ENDROOT
BRANCH   1   7
HETATM    7  C   UNL     1      64.554   7.745   5.630  1.00  0.00     0.059 A 
HETATM    8  N   UNL     1      64.554   7.174   6.845  1.00  0.00    -0.299 N 
HETATM    9  N   UNL     1      65.854   7.090   7.175  1.00  0.00    -0.307 N 
ATOM     10  HN  UNL     1      63.748   6.873   7.395  1.00  0.00     0.187 HD
HETATM   11  C   UNL     1      66.688   7.613   6.239  1.00  0.00     0.112 A 
HETATM   12  C   UNL     1      66.223   6.426   8.400  1.00  0.00     0.177 C 
HETATM   13  C   UNL     1      65.882   8.054   5.220  1.00  0.00     0.050 A 
ENDBRANCH   1   7
BRANCH   3  14
HETATM   14  C   UNL     1      60.052   6.111   4.182  1.00  0.00     0.268 C 
BRANCH  14  15
HETATM   15  N   UNL     1      58.837   6.592   4.828  1.00  0.00    -0.075 N 
HETATM   16  H   UNL     1      59.039   7.453   5.336  1.00  0.00     0.274 HD
HETATM   17  H   UNL     1      58.497   5.885   5.480  1.00  0.00     0.274 HD
HETATM   18  H   UNL     1      58.124   6.773   4.121  1.00  0.00     0.274 HD
ENDBRANCH  14  15
ENDBRANCH   3  14
TORSDOF 3
ENDMDL
MODEL 9
REMARK VINA RESULT:      -4.2      1.557      5.845
REMARK  3 active torsions:
REMARK  status: ('A' for Active; 'I' for Inactive)
REMARK    1  A    between atoms: C_3  and  C_7 
REMARK    2  A    between atoms: C_9  and  C_14 
REMARK    3  A    between atoms: N_10  and  C_14 
ROOT
HETATM    1  C   UNL     1      63.960   7.701   4.861  1.00  0.00    -0.007 A 
HETATM    2  C   UNL     1      65.347   7.844   4.990  1.00  0.00     0.022 A 
HETATM    3  C   UNL     1      66.077   7.036   5.875  1.00  0.00    -0.032 A 
HETATM    4  C   UNL     1      63.295   6.734   5.627  1.00  0.00     0.014 A 
HETATM    5  C   UNL     1      64.010   5.920   6.505  1.00  0.00     0.002 A 
HETATM    6  C   UNL     1      65.393   6.071   6.628  1.00  0.00     0.009 A 
ENDROOT
BRANCH   1   7
HETATM    7  C   UNL     1      63.209   8.580   3.971  1.00  0.00     0.059 A 
HETATM    8  N   UNL     1      62.961   8.252   2.693  1.00  0.00    -0.299 N 
HETATM    9  N   UNL     1      62.197   9.258   2.232  1.00  0.00    -0.307 N 
ATOM     10  HN  UNL     1      63.279   7.426   2.186  1.00  0.00     0.187 HD
HETATM   11  C   UNL     1      61.974  10.235   3.148  1.00  0.00     0.112 A 
HETATM   12  C   UNL     1      61.663   9.175   0.896  1.00  0.00     0.177 C 
HETATM   13  C   UNL     1      62.619   9.836   4.292  1.00  0.00     0.050 A 
ENDBRANCH   1   7
BRANCH   3  14
HETATM   14  C   UNL     1      67.561   7.227   6.037  1.00  0.00     0.268 C 
BRANCH  14  15
HETATM   15  N   UNL     1      68.075   6.487   7.182  1.00  0.00    -0.075 N 
HETATM   16  H   UNL     1      68.313   7.139   7.930  1.00  0.00     0.274 HD
HETATM   17  H   UNL     1      68.909   5.969   6.905  1.00  0.00     0.274 HD
HETATM   18  H   UNL     1      67.364   5.835   7.513  1.00  0.00     0.274 HD
ENDBRANCH  14  15
ENDBRANCH   3  14
TORSDOF 3
ENDMDL
