MODEL 1
REMARK VINA RESULT:      -5.4      0.000      0.000
REMARK  3 active torsions:
REMARK  status: ('A' for Active; 'I' for Inactive)
REMARK    1  A    between atoms: N_1  and  C_3 
REMARK    2  A    between atoms: C_12  and  C_16 
REMARK    3  A    between atoms: O_15  and  C_16 
ROOT
HETATM    1  N   UNL     1      66.146   7.035   5.538  1.00  0.00    -0.379 N 
HETATM    2  N   UNL     1      67.166   5.325   8.170  1.00  0.00    -0.073 N 
HETATM    3  C   UNL     1      66.482   7.453   6.907  1.00  0.00     0.150 C 
HETATM    4  C   UNL     1      66.134   6.348   7.923  1.00  0.00     0.254 C 
HETATM    5  C   UNL     1      67.128   4.752   5.689  1.00  0.00     0.047 C 
HETATM    6  C   UNL     1      67.019   6.055   4.893  1.00  0.00     0.124 C 
HETATM    7  C   UNL     1      67.927   4.901   6.987  1.00  0.00     0.236 C 
HETATM    8  C   UNL     1      68.074   5.725   9.244  1.00  0.00     0.269 C 
HETATM    9  H   UNL     1      66.635   4.502   8.459  1.00  0.00     0.279 HD
ENDROOT
BRANCH   1  10
HETATM   10  C   UNL     1      65.053   7.581   4.880  1.00  0.00     0.030 A 
HETATM   11  C   UNL     1      64.492   6.981   3.742  1.00  0.00     0.030 A 
HETATM   12  C   UNL     1      63.388   7.528   3.074  1.00  0.00     0.011 A 
HETATM   13  C   UNL     1      62.803   8.712   3.525  1.00  0.00    -0.035 A 
HETATM   14  C   UNL     1      63.344   9.329   4.655  1.00  0.00     0.011 A 
HETATM   15  C   UNL     1      64.446   8.771   5.316  1.00  0.00     0.030 A 
BRANCH  13  16
HETATM   16  C   UNL     1      61.629   9.321   2.812  1.00  0.00     0.202 C 
BRANCH  16  17
HETATM   17  O   UNL     1      61.234  10.536   3.436  1.00  0.00    -0.396 OA
HETATM   18  H   UNL     1      61.916  10.811   4.067  1.00  0.00     0.209 HD
ENDBRANCH  16  17
ENDBRANCH  13  16
ENDBRANCH   1  10
TORSDOF 3
ENDMDL
MODEL 2
REMARK VINA RESULT:      -5.1      1.202      1.870
REMARK  3 active torsions:
REMARK  status: ('A' for Active; 'I' for Inactive)
REMARK    1  A    between atoms: N_1  and  C_3 
REMARK    2  A    between atoms: C_12  and  C_16 
REMARK    3  A    between atoms: O_15  and  C_16 
ROOT
HETATM    1  N   UNL     1      65.329   7.449   5.814  1.00  0.00    -0.379 N 
HETATM    2  N   UNL     1      67.046   4.821   6.832  1.00  0.00    -0.073 N 
HETATM    3  C   UNL     1      64.977   6.339   6.711  1.00  0.00     0.150 C 
HETATM    4  C   UNL     1      65.693   5.041   6.288  1.00  0.00     0.254 C 
HETATM    5  C   UNL     1      67.780   7.017   5.771  1.00  0.00     0.047 C 
HETATM    6  C   UNL     1      66.658   8.041   5.954  1.00  0.00     0.124 C 
HETATM    7  C   UNL     1      67.886   6.022   6.931  1.00  0.00     0.236 C 
HETATM    8  C   UNL     1      67.003   4.123   8.116  1.00  0.00     0.269 C 
HETATM    9  H   UNL     1      67.500   4.230   6.136  1.00  0.00     0.279 HD
ENDROOT
BRANCH   1  10
HETATM   10  C   UNL     1      64.410   7.930   4.891  1.00  0.00     0.030 A 
HETATM   11  C   UNL     1      63.725   9.140   5.084  1.00  0.00     0.030 A 
HETATM   12  C   UNL     1      62.796   9.630   4.155  1.00  0.00     0.011 A 
HETATM   13  C   UNL     1      62.515   8.915   2.991  1.00  0.00    -0.035 A 
HETATM   14  C   UNL     1      63.183   7.708   2.777  1.00  0.00     0.011 A 
HETATM   15  C   UNL     1      64.111   7.230   3.711  1.00  0.00     0.030 A 
BRANCH  13  16
HETATM   16  C   UNL     1      61.511   9.419   1.992  1.00  0.00     0.202 C 
BRANCH  16  17
HETATM   17  O   UNL     1      61.376  10.831   2.079  1.00  0.00    -0.396 OA
HETATM   18  H   UNL     1      62.180  11.208   2.467  1.00  0.00     0.209 HD
ENDBRANCH  16  17
ENDBRANCH  13  16
ENDBRANCH   1  10
TORSDOF 3
ENDMDL
MODEL 3
REMARK VINA RESULT:      -5.0      3.366      6.728
REMARK  3 active torsions:
REMARK  status: ('A' for Active; 'I' for Inactive)
REMARK    1  A    between atoms: N_1  and  C_3 
REMARK    2  A    between atoms: C_12  and  C_16 
REMARK    3  A    between atoms: O_15  and  C_16 
ROOT
HETATM    1  N   UNL     1      62.442   7.342   2.563  1.00  0.00    -0.379 N 
HETATM    2  N   UNL     1      59.255   8.105   2.169  1.00  0.00    -0.073 N 
HETATM    3  C   UNL     1      61.216   6.715   3.076  1.00  0.00     0.150 C 
HETATM    4  C   UNL     1      60.117   7.768   3.317  1.00  0.00     0.254 C 
HETATM    5  C   UNL     1      61.335   8.792   0.869  1.00  0.00     0.047 C 
HETATM    6  C   UNL     1      62.448   7.786   1.170  1.00  0.00     0.124 C 
HETATM    7  C   UNL     1      59.937   8.165   0.869  1.00  0.00     0.236 C 
HETATM    8  C   UNL     1      58.091   7.223   2.093  1.00  0.00     0.269 C 
HETATM    9  H   UNL     1      58.950   9.059   2.359  1.00  0.00     0.279 HD
ENDROOT
BRANCH   1  10
HETATM   10  C   UNL     1      63.560   7.476   3.375  1.00  0.00     0.030 A 
HETATM   11  C   UNL     1      64.634   6.574   3.317  1.00  0.00     0.030 A 
HETATM   12  C   UNL     1      65.765   6.704   4.134  1.00  0.00     0.011 A 
HETATM   13  C   UNL     1      65.859   7.751   5.052  1.00  0.00    -0.035 A 
HETATM   14  C   UNL     1      64.802   8.660   5.130  1.00  0.00     0.011 A 
HETATM   15  C   UNL     1      63.678   8.522   4.305  1.00  0.00     0.030 A 
BRANCH  13  16
HETATM   16  C   UNL     1      67.058   7.896   5.947  1.00  0.00     0.202 C 
BRANCH  16  17
HETATM   17  O   UNL     1      66.824   8.877   6.949  1.00  0.00    -0.396 OA
HETATM   18  H   UNL     1      67.529   8.835   7.613  1.00  0.00     0.209 HD
ENDBRANCH  16  17
ENDBRANCH  13  16
ENDBRANCH   1  10
TORSDOF 3
ENDMDL
MODEL 4
REMARK VINA RESULT:      -4.7      1.643      2.050
REMARK  3 active torsions:
REMARK  status: ('A' for Active; 'I' for Inactive)
REMARK    1  A    between atoms: N_1  and  C_3 
REMARK    2  A    between atoms: C_12  and  C_16 
REMARK    3  A    between atoms: O_15  and  C_16 
ROOT
HETATM    1  N   UNL     1      64.462   6.775   4.596  1.00  0.00    -0.379 N 
HETATM    2  N   UNL     1      65.287   5.202   7.378  1.00  0.00    -0.073 N 
HETATM    3  C   UNL     1      65.476   7.065   5.620  1.00  0.00     0.150 C 
HETATM    4  C   UNL     1      65.003   6.601   7.012  1.00  0.00     0.254 C 
HETATM    5  C   UNL     1      63.972   4.447   5.332  1.00  0.00     0.047 C 
HETATM    6  C   UNL     1      64.306   5.385   4.169  1.00  0.00     0.124 C 
HETATM    7  C   UNL     1      65.148   4.227   6.288  1.00  0.00     0.236 C 
HETATM    8  C   UNL     1      66.596   5.068   8.017  1.00  0.00     0.269 C 
HETATM    9  H   UNL     1      64.554   4.967   8.047  1.00  0.00     0.279 HD
ENDROOT
BRANCH   1  10
HETATM   10  C   UNL     1      63.707   7.797   4.039  1.00  0.00     0.030 A 
HETATM   11  C   UNL     1      63.174   7.709   2.744  1.00  0.00     0.030 A 
HETATM   12  C   UNL     1      62.411   8.739   2.177  1.00  0.00     0.011 A 
HETATM   13  C   UNL     1      62.156   9.909   2.893  1.00  0.00    -0.035 A 
HETATM   14  C   UNL     1      62.677  10.021   4.185  1.00  0.00     0.011 A 
HETATM   15  C   UNL     1      63.436   8.983   4.742  1.00  0.00     0.030 A 
BRANCH  13  16
HETATM   16  C   UNL     1      61.353  11.029   2.295  1.00  0.00     0.202 C 
BRANCH  16  17
HETATM   17  O   UNL     1      62.203  12.073   1.840  1.00  0.00    -0.396 OA
HETATM   18  H   UNL     1      62.328  11.993   0.882  1.00  0.00     0.209 HD
ENDBRANCH  16  17
ENDBRANCH  13  16
ENDBRANCH   1  10
TORSDOF 3
ENDMDL
MODEL 5
REMARK VINA RESULT:      -4.4      3.165      6.428
REMARK  3 active torsions:
REMARK  status: ('A' for Active; 'I' for Inactive)
REMARK    1  A    between atoms: N_1  and  C_3 
REMARK    2  A    between atoms: C_12  and  C_16 
REMARK    3  A    between atoms: O_15  and  C_16 
ROOT
HETATM    1  N   UNL     1      65.038   7.364   4.886  1.00  0.00    -0.379 N 
HETATM    2  N   UNL     1      62.216   7.646   3.198  1.00  0.00    -0.073 N 
HETATM    3  C   UNL     1      64.590   6.762   3.622  1.00  0.00     0.150 C 
HETATM    4  C   UNL     1      63.067   6.524   3.634  1.00  0.00     0.254 C 
HETATM    5  C   UNL     1      63.238   9.077   5.040  1.00  0.00     0.047 C 
HETATM    6  C   UNL     1      64.738   8.777   5.110  1.00  0.00     0.124 C 
HETATM    7  C   UNL     1      62.668   8.978   3.622  1.00  0.00     0.236 C 
HETATM    8  C   UNL     1      61.991   7.622   1.753  1.00  0.00     0.269 C 
HETATM    9  H   UNL     1      61.333   7.492   3.685  1.00  0.00     0.279 HD
ENDROOT
BRANCH   1  10
HETATM   10  C   UNL     1      65.748   6.613   5.814  1.00  0.00     0.030 A 
HETATM   11  C   UNL     1      66.927   5.933   5.474  1.00  0.00     0.030 A 
HETATM   12  C   UNL     1      67.648   5.174   6.407  1.00  0.00     0.011 A 
HETATM   13  C   UNL     1      67.205   5.065   7.725  1.00  0.00    -0.035 A 
HETATM   14  C   UNL     1      66.032   5.732   8.087  1.00  0.00     0.011 A 
HETATM   15  C   UNL     1      65.322   6.490   7.147  1.00  0.00     0.030 A 
BRANCH  13  16
HETATM   16  C   UNL     1      67.957   4.243   8.734  1.00  0.00     0.202 C 
BRANCH  16  17
HETATM   17  O   UNL     1      67.205   3.100   9.116  1.00  0.00    -0.396 OA
HETATM   18  H   UNL     1      67.316   2.942  10.066  1.00  0.00     0.209 HD
ENDBRANCH  16  17
ENDBRANCH  13  16
ENDBRANCH   1  10
TORSDOF 3
ENDMDL
MODEL 6
REMARK VINA RESULT:      -4.2      4.742      7.086
REMARK  3 active torsions:
REMARK  status: ('A' for Active; 'I' for Inactive)
REMARK    1  A    between atoms: N_1  and  C_3 
REMARK    2  A    between atoms: C_12  and  C_16 
REMARK    3  A    between atoms: O_15  and  C_16 
ROOT
HETATM    1  N   UNL     1      60.013   6.510   4.647  1.00  0.00    -0.379 N 
HETATM    2  N   UNL     1      57.049   6.221   6.069  1.00  0.00    -0.073 N 
HETATM    3  C   UNL     1      59.435   5.461   5.499  1.00  0.00     0.150 C 
HETATM    4  C   UNL     1      58.444   6.060   6.516  1.00  0.00     0.254 C 
HETATM    5  C   UNL     1      57.877   7.694   4.164  1.00  0.00     0.047 C 
HETATM    6  C   UNL     1      59.164   7.083   3.604  1.00  0.00     0.124 C 
HETATM    7  C   UNL     1      56.882   6.647   4.673  1.00  0.00     0.236 C 
HETATM    8  C   UNL     1      56.258   5.019   6.332  1.00  0.00     0.269 C 
HETATM    9  H   UNL     1      56.695   6.994   6.632  1.00  0.00     0.279 HD
ENDROOT
BRANCH   1  10
HETATM   10  C   UNL     1      61.331   6.913   4.816  1.00  0.00     0.030 A 
HETATM   11  C   UNL     1      62.073   6.570   5.957  1.00  0.00     0.030 A 
HETATM   12  C   UNL     1      63.403   6.974   6.133  1.00  0.00     0.011 A 
HETATM   13  C   UNL     1      64.043   7.747   5.164  1.00  0.00    -0.035 A 
HETATM   14  C   UNL     1      63.325   8.102   4.020  1.00  0.00     0.011 A 
HETATM   15  C   UNL     1      61.997   7.690   3.854  1.00  0.00     0.030 A 
BRANCH  13  16
HETATM   16  C   UNL     1      65.465   8.201   5.344  1.00  0.00     0.202 C 
BRANCH  16  17
HETATM   17  O   UNL     1      65.519   9.402   6.102  1.00  0.00    -0.396 OA
HETATM   18  H   UNL     1      66.042   9.253   6.905  1.00  0.00     0.209 HD
ENDBRANCH  16  17
ENDBRANCH  13  16
ENDBRANCH   1  10
TORSDOF 3
ENDMDL
MODEL 7
REMARK VINA RESULT:      -4.2      1.978      2.350
REMARK  3 active torsions:
REMARK  status: ('A' for Active; 'I' for Inactive)
REMARK    1  A    between atoms: N_1  and  C_3 
REMARK    2  A    between atoms: C_12  and  C_16 
REMARK    3  A    between atoms: O_15  and  C_16 
ROOT
HETATM    1  N   UNL     1      64.972   5.324   5.824  1.00  0.00    -0.379 N 
HETATM    2  N   UNL     1      66.349   3.391   8.118  1.00  0.00    -0.073 N 
HETATM    3  C   UNL     1      66.337   5.272   6.369  1.00  0.00     0.150 C 
HETATM    4  C   UNL     1      66.324   4.840   7.848  1.00  0.00     0.254 C 
HETATM    5  C   UNL     1      64.209   3.147   6.761  1.00  0.00     0.047 C 
HETATM    6  C   UNL     1      64.309   4.054   5.532  1.00  0.00     0.124 C 
HETATM    7  C   UNL     1      65.558   2.567   7.195  1.00  0.00     0.236 C 
HETATM    8  C   UNL     1      67.718   2.884   8.207  1.00  0.00     0.269 C 
HETATM    9  H   UNL     1      65.890   3.299   9.025  1.00  0.00     0.279 HD
ENDROOT
BRANCH   1  10
HETATM   10  C   UNL     1      64.358   6.542   5.572  1.00  0.00     0.030 A 
HETATM   11  C   UNL     1      62.996   6.758   5.833  1.00  0.00     0.030 A 
HETATM   12  C   UNL     1      62.371   7.987   5.580  1.00  0.00     0.011 A 
HETATM   13  C   UNL     1      63.095   9.053   5.046  1.00  0.00    -0.035 A 
HETATM   14  C   UNL     1      64.452   8.862   4.775  1.00  0.00     0.011 A 
HETATM   15  C   UNL     1      65.067   7.630   5.035  1.00  0.00     0.030 A 
BRANCH  13  16
HETATM   16  C   UNL     1      62.438  10.373   4.754  1.00  0.00     0.202 C 
BRANCH  16  17
HETATM   17  O   UNL     1      61.365  10.210   3.836  1.00  0.00    -0.396 OA
HETATM   18  H   UNL     1      61.619   9.572   3.152  1.00  0.00     0.209 HD
ENDBRANCH  16  17
ENDBRANCH  13  16
ENDBRANCH   1  10
TORSDOF 3
ENDMDL
MODEL 8
REMARK VINA RESULT:      -4.2      2.045      3.434
REMARK  3 active torsions:
REMARK  status: ('A' for Active; 'I' for Inactive)
REMARK    1  A    between atoms: N_1  and  C_3 
REMARK    2  A    between atoms: C_12  and  C_16 
REMARK    3  A    between atoms: O_15  and  C_16 
ROOT
HETATM    1  N   UNL     1      63.674   7.011   4.420  1.00  0.00    -0.379 N 
HETATM    2  N   UNL     1      66.868   6.320   4.888  1.00  0.00    -0.073 N 
HETATM    3  C   UNL     1      64.418   5.744   4.373  1.00  0.00     0.150 C 
HETATM    4  C   UNL     1      65.858   5.968   3.872  1.00  0.00     0.254 C 
HETATM    5  C   UNL     1      65.465   8.352   5.512  1.00  0.00     0.047 C 
HETATM    6  C   UNL     1      63.990   7.944   5.501  1.00  0.00     0.124 C 
HETATM    7  C   UNL     1      66.402   7.222   5.949  1.00  0.00     0.236 C 
HETATM    8  C   UNL     1      67.486   5.128   5.467  1.00  0.00     0.269 C 
HETATM    9  H   UNL     1      67.567   6.851   4.369  1.00  0.00     0.279 HD
ENDROOT
BRANCH   1  10
HETATM   10  C   UNL     1      62.687   7.286   3.485  1.00  0.00     0.030 A 
HETATM   11  C   UNL     1      61.480   6.571   3.444  1.00  0.00     0.030 A 
HETATM   12  C   UNL     1      60.480   6.845   2.501  1.00  0.00     0.011 A 
HETATM   13  C   UNL     1      60.657   7.853   1.553  1.00  0.00    -0.035 A 
HETATM   14  C   UNL     1      61.850   8.578   1.573  1.00  0.00     0.011 A 
HETATM   15  C   UNL     1      62.841   8.297   2.522  1.00  0.00     0.030 A 
BRANCH  13  16
HETATM   16  C   UNL     1      59.601   8.150   0.525  1.00  0.00     0.202 C 
BRANCH  16  17
HETATM   17  O   UNL     1      58.373   8.499   1.150  1.00  0.00    -0.396 OA
HETATM   18  H   UNL     1      58.250   9.459   1.107  1.00  0.00     0.209 HD
ENDBRANCH  16  17
ENDBRANCH  13  16
ENDBRANCH   1  10
TORSDOF 3
ENDMDL
MODEL 9
REMARK VINA RESULT:      -4.2      5.107      7.048
REMARK  3 active torsions:
REMARK  status: ('A' for Active; 'I' for Inactive)
REMARK    1  A    between atoms: N_1  and  C_3 
REMARK    2  A    between atoms: C_12  and  C_16 
REMARK    3  A    between atoms: O_15  and  C_16 
ROOT
HETATM    1  N   UNL     1      61.606   6.629   5.217  1.00  0.00    -0.379 N 
HETATM    2  N   UNL     1      61.339   9.123   3.072  1.00  0.00    -0.073 N 
HETATM    3  C   UNL     1      61.052   6.694   3.856  1.00  0.00     0.150 C 
HETATM    4  C   UNL     1      60.432   8.078   3.579  1.00  0.00     0.254 C 
HETATM    5  C   UNL     1      62.773   8.827   5.156  1.00  0.00     0.047 C 
HETATM    6  C   UNL     1      62.861   7.332   5.474  1.00  0.00     0.124 C 
HETATM    7  C   UNL     1      62.687   9.121   3.655  1.00  0.00     0.236 C 
HETATM    8  C   UNL     1      61.417   9.105   1.612  1.00  0.00     0.269 C 
HETATM    9  H   UNL     1      60.911   9.995   3.382  1.00  0.00     0.279 HD
ENDROOT
BRANCH   1  10
HETATM   10  C   UNL     1      60.966   5.895   6.206  1.00  0.00     0.030 A 
HETATM   11  C   UNL     1      61.249   4.538   6.427  1.00  0.00     0.030 A 
HETATM   12  C   UNL     1      60.605   3.793   7.424  1.00  0.00     0.011 A 
HETATM   13  C   UNL     1      59.641   4.385   8.241  1.00  0.00    -0.035 A 
HETATM   14  C   UNL     1      59.342   5.734   8.039  1.00  0.00     0.011 A 
HETATM   15  C   UNL     1      59.994   6.470   7.041  1.00  0.00     0.030 A 
BRANCH  13  16
HETATM   16  C   UNL     1      58.931   3.597   9.305  1.00  0.00     0.202 C 
BRANCH  16  17
HETATM   17  O   UNL     1      58.617   4.421  10.419  1.00  0.00    -0.396 OA
HETATM   18  H   UNL     1      58.094   5.181  10.122  1.00  0.00     0.209 HD
ENDBRANCH  16  17
ENDBRANCH  13  16
ENDBRANCH   1  10
TORSDOF 3
ENDMDL
