MODEL 1
REMARK VINA RESULT:      -3.3      0.000      0.000
REMARK  1 active torsions:
REMARK  status: ('A' for Active; 'I' for Inactive)
REMARK    1  A    between atoms: C_2  and  N_3 
ROOT
HETATM    1  S   UNL     1      62.660   8.469   2.801  1.00  0.00    -0.169 SA
HETATM    2  C   UNL     1      63.034  10.248   5.451  1.00  0.00     0.185 C 
HETATM    3  C   UNL     1      64.086   9.205   5.054  1.00  0.00     0.043 C 
HETATM    4  C   UNL     1      62.281  10.810   4.242  1.00  0.00     0.043 C 
HETATM    5  C   UNL     1      61.537   9.736   3.458  1.00  0.00     0.076 C 
HETATM    6  C   UNL     1      63.476   8.000   4.353  1.00  0.00     0.076 C 
ENDROOT
BRANCH   2   7
HETATM    7  N   UNL     1      63.671  11.352   6.176  1.00  0.00    -0.075 N 
HETATM    8  H   UNL     1      62.954  11.975   6.546  1.00  0.00     0.274 HD
HETATM    9  H   UNL     1      64.278  11.871   5.541  1.00  0.00     0.274 HD
HETATM   10  H   UNL     1      64.227  10.978   6.946  1.00  0.00     0.274 HD
ENDBRANCH   2   7
TORSDOF 1
ENDMDL
MODEL 2
REMARK VINA RESULT:      -3.0      0.764      2.059
REMARK  1 active torsions:
REMARK  status: ('A' for Active; 'I' for Inactive)
REMARK    1  A    between atoms: C_2  and  N_3 
ROOT
HETATM    1  S   UNL     1      61.562   8.289   3.258  1.00  0.00    -0.169 SA
HETATM    2  C   UNL     1      63.249  10.398   4.999  1.00  0.00     0.185 C 
HETATM    3  C   UNL     1      62.101  10.869   4.099  1.00  0.00     0.043 C 
HETATM    4  C   UNL     1      63.050   8.964   5.500  1.00  0.00     0.043 C 
HETATM    5  C   UNL     1      62.959   7.950   4.366  1.00  0.00     0.076 C 
HETATM    6  C   UNL     1      61.953  10.013   2.849  1.00  0.00     0.076 C 
ENDROOT
BRANCH   2   7
HETATM    7  N   UNL     1      63.382  11.295   6.152  1.00  0.00    -0.075 N 
HETATM    8  H   UNL     1      62.785  12.110   6.020  1.00  0.00     0.274 HD
HETATM    9  H   UNL     1      64.353  11.595   6.239  1.00  0.00     0.274 HD
HETATM   10  H   UNL     1      63.102  10.802   7.000  1.00  0.00     0.274 HD
ENDBRANCH   2   7
TORSDOF 1
ENDMDL
MODEL 3
REMARK VINA RESULT:      -2.9      2.383      2.939
REMARK  1 active torsions:
REMARK  status: ('A' for Active; 'I' for Inactive)
REMARK    1  A    between atoms: C_2  and  N_3 
ROOT
HETATM    1  S   UNL     1      62.987   7.439   2.973  1.00  0.00    -0.169 SA
HETATM    2  C   UNL     1      61.585  10.266   2.363  1.00  0.00     0.185 C 
HETATM    3  C   UNL     1      62.250   9.999   3.719  1.00  0.00     0.043 C 
HETATM    4  C   UNL     1      62.223   9.458   1.229  1.00  0.00     0.043 C 
HETATM    5  C   UNL     1      62.135   7.953   1.455  1.00  0.00     0.076 C 
HETATM    6  C   UNL     1      62.143   8.541   4.142  1.00  0.00     0.076 C 
ENDROOT
BRANCH   2   7
HETATM    7  N   UNL     1      61.664  11.694   2.038  1.00  0.00    -0.075 N 
HETATM    8  H   UNL     1      62.455  12.111   2.526  1.00  0.00     0.274 HD
HETATM    9  H   UNL     1      60.803  12.157   2.328  1.00  0.00     0.274 HD
HETATM   10  H   UNL     1      61.787  11.807   1.032  1.00  0.00     0.274 HD
ENDBRANCH   2   7
TORSDOF 1
ENDMDL
MODEL 4
REMARK VINA RESULT:      -2.9      2.384      3.092
REMARK  1 active torsions:
REMARK  status: ('A' for Active; 'I' for Inactive)
REMARK    1  A    between atoms: C_2  and  N_3 
ROOT
HETATM    1  S   UNL     1      61.936   7.242   3.152  1.00  0.00    -0.169 SA
HETATM    2  C   UNL     1      62.127  10.350   2.358  1.00  0.00     0.185 C 
HETATM    3  C   UNL     1      61.691   9.305   1.325  1.00  0.00     0.043 C 
HETATM    4  C   UNL     1      61.779   9.938   3.792  1.00  0.00     0.043 C 
HETATM    5  C   UNL     1      62.443   8.630   4.207  1.00  0.00     0.076 C 
HETATM    6  C   UNL     1      62.365   7.957   1.541  1.00  0.00     0.076 C 
ENDROOT
BRANCH   2   7
HETATM    7  N   UNL     1      61.496  11.641   2.064  1.00  0.00    -0.075 N 
HETATM    8  H   UNL     1      62.196  12.290   1.709  1.00  0.00     0.274 HD
HETATM    9  H   UNL     1      61.082  12.019   2.916  1.00  0.00     0.274 HD
HETATM   10  H   UNL     1      60.767  11.510   1.362  1.00  0.00     0.274 HD
ENDBRANCH   2   7
TORSDOF 1
ENDMDL
MODEL 5
REMARK VINA RESULT:      -2.8      2.367      3.190
REMARK  1 active torsions:
REMARK  status: ('A' for Active; 'I' for Inactive)
REMARK    1  A    between atoms: C_2  and  N_3 
ROOT
HETATM    1  S   UNL     1      64.291   8.801   4.984  1.00  0.00    -0.169 SA
HETATM    2  C   UNL     1      61.738   9.278   3.091  1.00  0.00     0.185 C 
HETATM    3  C   UNL     1      62.277  10.408   3.976  1.00  0.00     0.043 C 
HETATM    4  C   UNL     1      62.829   8.283   2.683  1.00  0.00     0.043 C 
HETATM    5  C   UNL     1      63.487   7.605   3.880  1.00  0.00     0.076 C 
HETATM    6  C   UNL     1      62.873   9.893   5.279  1.00  0.00     0.076 C 
ENDROOT
BRANCH   2   7
HETATM    7  N   UNL     1      61.123   9.838   1.883  1.00  0.00    -0.075 N 
HETATM    8  H   UNL     1      60.232   9.376   1.710  1.00  0.00     0.274 HD
HETATM    9  H   UNL     1      61.743   9.692   1.087  1.00  0.00     0.274 HD
HETATM   10  H   UNL     1      60.969  10.838   2.013  1.00  0.00     0.274 HD
ENDBRANCH   2   7
TORSDOF 1
ENDMDL
MODEL 6
REMARK VINA RESULT:      -2.8      5.804      6.449
REMARK  1 active torsions:
REMARK  status: ('A' for Active; 'I' for Inactive)
REMARK    1  A    between atoms: C_2  and  N_3 
ROOT
HETATM    1  S   UNL     1      68.007   4.148   7.288  1.00  0.00    -0.169 SA
HETATM    2  C   UNL     1      66.757   7.098   7.043  1.00  0.00     0.185 C 
HETATM    3  C   UNL     1      67.120   6.514   8.413  1.00  0.00     0.043 C 
HETATM    4  C   UNL     1      67.623   6.528   5.915  1.00  0.00     0.043 C 
HETATM    5  C   UNL     1      67.495   5.016   5.778  1.00  0.00     0.076 C 
HETATM    6  C   UNL     1      66.932   5.005   8.471  1.00  0.00     0.076 C 
ENDROOT
BRANCH   2   7
HETATM    7  N   UNL     1      66.898   8.557   7.066  1.00  0.00    -0.075 N 
HETATM    8  H   UNL     1      66.485   8.926   7.922  1.00  0.00     0.274 HD
HETATM    9  H   UNL     1      66.421   8.958   6.258  1.00  0.00     0.274 HD
HETATM   10  H   UNL     1      67.887   8.804   7.031  1.00  0.00     0.274 HD
ENDBRANCH   2   7
TORSDOF 1
ENDMDL
MODEL 7
REMARK VINA RESULT:      -2.6      2.299      3.070
REMARK  1 active torsions:
REMARK  status: ('A' for Active; 'I' for Inactive)
REMARK    1  A    between atoms: C_2  and  N_3 
ROOT
HETATM    1  S   UNL     1      60.770   7.785   0.966  1.00  0.00    -0.169 SA
HETATM    2  C   UNL     1      62.160   9.659   3.175  1.00  0.00     0.185 C 
HETATM    3  C   UNL     1      61.991  10.146   1.731  1.00  0.00     0.043 C 
HETATM    4  C   UNL     1      61.081   8.651   3.583  1.00  0.00     0.043 C 
HETATM    5  C   UNL     1      61.082   7.400   2.712  1.00  0.00     0.076 C 
HETATM    6  C   UNL     1      62.083   9.012   0.720  1.00  0.00     0.076 C 
ENDROOT
BRANCH   2   7
HETATM    7  N   UNL     1      62.125  10.799   4.096  1.00  0.00    -0.075 N 
HETATM    8  H   UNL     1      61.817  10.485   5.015  1.00  0.00     0.274 HD
HETATM    9  H   UNL     1      61.476  11.503   3.742  1.00  0.00     0.274 HD
HETATM   10  H   UNL     1      63.058  11.206   4.171  1.00  0.00     0.274 HD
ENDBRANCH   2   7
TORSDOF 1
ENDMDL
MODEL 8
REMARK VINA RESULT:      -2.6     11.865     12.456
REMARK  1 active torsions:
REMARK  status: ('A' for Active; 'I' for Inactive)
REMARK    1  A    between atoms: C_2  and  N_3 
ROOT
HETATM    1  S   UNL     1      58.931   0.940  10.473  1.00  0.00    -0.169 SA
HETATM    2  C   UNL     1      58.967   1.718  13.590  1.00  0.00     0.185 C 
HETATM    3  C   UNL     1      57.877   2.265  12.661  1.00  0.00     0.043 C 
HETATM    4  C   UNL     1      59.508   0.363  13.124  1.00  0.00     0.043 C 
HETATM    5  C   UNL     1      60.129   0.422  11.734  1.00  0.00     0.076 C 
HETATM    6  C   UNL     1      58.381   2.489  11.242  1.00  0.00     0.076 C 
ENDROOT
BRANCH   2   7
HETATM    7  N   UNL     1      58.442   1.583  14.953  1.00  0.00    -0.075 N 
HETATM    8  H   UNL     1      59.060   2.062  15.605  1.00  0.00     0.274 HD
HETATM    9  H   UNL     1      58.387   0.594  15.200  1.00  0.00     0.274 HD
HETATM   10  H   UNL     1      57.510   1.996  15.001  1.00  0.00     0.274 HD
ENDBRANCH   2   7
TORSDOF 1
ENDMDL
MODEL 9
REMARK VINA RESULT:      -2.6      5.277      6.097
REMARK  1 active torsions:
REMARK  status: ('A' for Active; 'I' for Inactive)
REMARK    1  A    between atoms: C_2  and  N_3 
ROOT
HETATM    1  S   UNL     1      66.592   6.828   7.936  1.00  0.00    -0.169 SA
HETATM    2  C   UNL     1      67.525   6.394   4.892  1.00  0.00     0.185 C 
HETATM    3  C   UNL     1      67.542   5.229   5.888  1.00  0.00     0.043 C 
HETATM    4  C   UNL     1      66.460   7.440   5.233  1.00  0.00     0.043 C 
HETATM    5  C   UNL     1      66.665   8.064   6.608  1.00  0.00     0.076 C 
HETATM    6  C   UNL     1      67.852   5.683   7.308  1.00  0.00     0.076 C 
ENDROOT
BRANCH   2   7
HETATM    7  N   UNL     1      67.285   5.889   3.535  1.00  0.00    -0.075 N 
HETATM    8  H   UNL     1      66.871   4.960   3.586  1.00  0.00     0.274 HD
HETATM    9  H   UNL     1      68.169   5.840   3.029  1.00  0.00     0.274 HD
HETATM   10  H   UNL     1      66.649   6.519   3.046  1.00  0.00     0.274 HD
ENDBRANCH   2   7
TORSDOF 1
ENDMDL
