MODEL 1
REMARK VINA RESULT:      -3.4      0.000      0.000
REMARK  1 active torsions:
REMARK  status: ('A' for Active; 'I' for Inactive)
REMARK    1  A    between atoms: C_2  and  O_5 
ROOT
HETATM    1  S   UNL     1      62.513   8.686   2.942  1.00  0.00    -0.169 SA
HETATM    2  C   UNL     1      63.318  10.338   5.563  1.00  0.00     0.119 C 
HETATM    3  C   UNL     1      62.497  11.001   4.460  1.00  0.00     0.042 C 
HETATM    4  C   UNL     1      64.220   9.220   5.045  1.00  0.00     0.042 C 
HETATM    5  C   UNL     1      61.580  10.026   3.737  1.00  0.00     0.076 C 
HETATM    6  C   UNL     1      63.438   8.094   4.388  1.00  0.00     0.076 C 
ENDROOT
BRANCH   2   7
HETATM    7  O   UNL     1      64.122  11.326   6.205  1.00  0.00    -0.396 OA
HETATM    8  H   UNL     1      64.015  12.175   5.750  1.00  0.00     0.210 HD
ENDBRANCH   2   7
TORSDOF 1
ENDMDL
MODEL 2
REMARK VINA RESULT:      -3.4      1.735      2.079
REMARK  1 active torsions:
REMARK  status: ('A' for Active; 'I' for Inactive)
REMARK    1  A    between atoms: C_2  and  O_5 
ROOT
HETATM    1  S   UNL     1      62.588   8.101   2.208  1.00  0.00    -0.169 SA
HETATM    2  C   UNL     1      61.792  10.804   3.727  1.00  0.00     0.119 C 
HETATM    3  C   UNL     1      61.947  10.794   2.207  1.00  0.00     0.042 C 
HETATM    4  C   UNL     1      62.653   9.751   4.421  1.00  0.00     0.042 C 
HETATM    5  C   UNL     1      61.562   9.461   1.582  1.00  0.00     0.076 C 
HETATM    6  C   UNL     1      62.309   8.336   3.987  1.00  0.00     0.076 C 
ENDROOT
BRANCH   2   7
HETATM    7  O   UNL     1      62.143  12.094   4.223  1.00  0.00    -0.396 OA
HETATM    8  H   UNL     1      62.382  12.672   3.481  1.00  0.00     0.210 HD
ENDBRANCH   2   7
TORSDOF 1
ENDMDL
MODEL 3
REMARK VINA RESULT:      -3.0      0.902      2.176
REMARK  1 active torsions:
REMARK  status: ('A' for Active; 'I' for Inactive)
REMARK    1  A    between atoms: C_2  and  O_5 
ROOT
HETATM    1  S   UNL     1      62.033   8.637   2.568  1.00  0.00    -0.169 SA
HETATM    2  C   UNL     1      63.128  10.414   4.995  1.00  0.00     0.119 C 
HETATM    3  C   UNL     1      63.238   8.891   5.047  1.00  0.00     0.042 C 
HETATM    4  C   UNL     1      61.952  10.898   4.150  1.00  0.00     0.042 C 
HETATM    5  C   UNL     1      63.424   8.265   3.673  1.00  0.00     0.076 C 
HETATM    6  C   UNL     1      62.047  10.448   2.701  1.00  0.00     0.076 C 
ENDROOT
BRANCH   2   7
HETATM    7  O   UNL     1      62.987  10.917   6.322  1.00  0.00    -0.396 OA
HETATM    8  H   UNL     1      62.632  10.221   6.896  1.00  0.00     0.210 HD
ENDBRANCH   2   7
TORSDOF 1
ENDMDL
MODEL 4
REMARK VINA RESULT:      -3.0      2.382      3.312
REMARK  1 active torsions:
REMARK  status: ('A' for Active; 'I' for Inactive)
REMARK    1  A    between atoms: C_2  and  O_5 
ROOT
HETATM    1  S   UNL     1      62.598   7.090   1.542  1.00  0.00    -0.169 SA
HETATM    2  C   UNL     1      62.137   9.935   2.936  1.00  0.00     0.119 C 
HETATM    3  C   UNL     1      62.414   8.698   3.788  1.00  0.00     0.042 C 
HETATM    4  C   UNL     1      61.460   9.605   1.607  1.00  0.00     0.042 C 
HETATM    5  C   UNL     1      63.321   7.693   3.094  1.00  0.00     0.076 C 
HETATM    6  C   UNL     1      62.301   8.689   0.733  1.00  0.00     0.076 C 
ENDROOT
BRANCH   2   7
HETATM    7  O   UNL     1      61.308  10.833   3.671  1.00  0.00    -0.396 OA
HETATM    8  H   UNL     1      61.244  10.533   4.592  1.00  0.00     0.210 HD
ENDBRANCH   2   7
TORSDOF 1
ENDMDL
MODEL 5
REMARK VINA RESULT:      -2.9      1.951      2.663
REMARK  1 active torsions:
REMARK  status: ('A' for Active; 'I' for Inactive)
REMARK    1  A    between atoms: C_2  and  O_5 
ROOT
HETATM    1  S   UNL     1      63.344   7.161   4.557  1.00  0.00    -0.169 SA
HETATM    2  C   UNL     1      62.292  10.028   3.597  1.00  0.00     0.119 C 
HETATM    3  C   UNL     1      62.915   9.862   4.982  1.00  0.00     0.042 C 
HETATM    4  C   UNL     1      61.633   8.750   3.083  1.00  0.00     0.042 C 
HETATM    5  C   UNL     1      63.994   8.791   5.021  1.00  0.00     0.076 C 
HETATM    6  C   UNL     1      62.616   7.597   2.952  1.00  0.00     0.076 C 
ENDROOT
BRANCH   2   7
HETATM    7  O   UNL     1      61.317  11.068   3.645  1.00  0.00    -0.396 OA
HETATM    8  H   UNL     1      60.491  10.755   3.245  1.00  0.00     0.210 HD
ENDBRANCH   2   7
TORSDOF 1
ENDMDL
MODEL 6
REMARK VINA RESULT:      -2.7     12.949     13.335
REMARK  1 active torsions:
REMARK  status: ('A' for Active; 'I' for Inactive)
REMARK    1  A    between atoms: C_2  and  O_5 
ROOT
HETATM    1  S   UNL     1      55.690   0.551  12.580  1.00  0.00    -0.169 SA
HETATM    2  C   UNL     1      58.378   1.923  13.648  1.00  0.00     0.119 C 
HETATM    3  C   UNL     1      57.764   2.366  12.321  1.00  0.00     0.042 C 
HETATM    4  C   UNL     1      58.058   0.471  13.998  1.00  0.00     0.042 C 
HETATM    5  C   UNL     1      56.247   2.257  12.306  1.00  0.00     0.076 C 
HETATM    6  C   UNL     1      56.566   0.218  14.136  1.00  0.00     0.076 C 
ENDROOT
BRANCH   2   7
HETATM    7  O   UNL     1      59.793   2.086  13.584  1.00  0.00    -0.396 OA
HETATM    8  H   UNL     1      60.208   1.235  13.371  1.00  0.00     0.210 HD
ENDBRANCH   2   7
TORSDOF 1
ENDMDL
MODEL 7
REMARK VINA RESULT:      -2.6     11.993     12.607
REMARK  1 active torsions:
REMARK  status: ('A' for Active; 'I' for Inactive)
REMARK    1  A    between atoms: C_2  and  O_5 
ROOT
HETATM    1  S   UNL     1      58.927   0.940  10.607  1.00  0.00    -0.169 SA
HETATM    2  C   UNL     1      58.994   1.683  13.720  1.00  0.00     0.119 C 
HETATM    3  C   UNL     1      59.551   0.345  13.237  1.00  0.00     0.042 C 
HETATM    4  C   UNL     1      57.891   2.230  12.817  1.00  0.00     0.042 C 
HETATM    5  C   UNL     1      60.152   0.424  11.842  1.00  0.00     0.076 C 
HETATM    6  C   UNL     1      58.367   2.477  11.395  1.00  0.00     0.076 C 
ENDROOT
BRANCH   2   7
HETATM    7  O   UNL     1      58.481   1.525  15.041  1.00  0.00    -0.396 OA
HETATM    8  H   UNL     1      58.122   2.371  15.352  1.00  0.00     0.210 HD
ENDBRANCH   2   7
TORSDOF 1
ENDMDL
MODEL 8
REMARK VINA RESULT:      -2.6      1.233      2.391
REMARK  1 active torsions:
REMARK  status: ('A' for Active; 'I' for Inactive)
REMARK    1  A    between atoms: C_2  and  O_5 
ROOT
HETATM    1  S   UNL     1      61.118   7.680   3.697  1.00  0.00    -0.169 SA
HETATM    2  C   UNL     1      63.704   9.241   4.758  1.00  0.00     0.119 C 
HETATM    3  C   UNL     1      63.378   7.845   5.288  1.00  0.00     0.042 C 
HETATM    4  C   UNL     1      62.465  10.012   4.307  1.00  0.00     0.042 C 
HETATM    5  C   UNL     1      62.692   6.966   4.253  1.00  0.00     0.076 C 
HETATM    6  C   UNL     1      61.720   9.313   3.181  1.00  0.00     0.076 C 
ENDROOT
BRANCH   2   7
HETATM    7  O   UNL     1      64.369   9.983   5.778  1.00  0.00    -0.396 OA
HETATM    8  H   UNL     1      64.348  10.927   5.557  1.00  0.00     0.210 HD
ENDBRANCH   2   7
TORSDOF 1
ENDMDL
MODEL 9
REMARK VINA RESULT:      -2.6      4.554      5.151
REMARK  1 active torsions:
REMARK  status: ('A' for Active; 'I' for Inactive)
REMARK    1  A    between atoms: C_2  and  O_5 
ROOT
HETATM    1  S   UNL     1      66.619   4.627   6.207  1.00  0.00    -0.169 SA
HETATM    2  C   UNL     1      66.211   7.783   6.555  1.00  0.00     0.119 C 
HETATM    3  C   UNL     1      65.026   6.832   6.720  1.00  0.00     0.042 C 
HETATM    4  C   UNL     1      67.285   7.241   5.614  1.00  0.00     0.042 C 
HETATM    5  C   UNL     1      65.429   5.478   7.282  1.00  0.00     0.076 C 
HETATM    6  C   UNL     1      67.880   5.929   6.101  1.00  0.00     0.076 C 
ENDROOT
BRANCH   2   7
HETATM    7  O   UNL     1      65.740   9.032   6.054  1.00  0.00    -0.396 OA
HETATM    8  H   UNL     1      64.785   9.105   6.209  1.00  0.00     0.210 HD
ENDBRANCH   2   7
TORSDOF 1
ENDMDL
