MODEL 1
REMARK VINA RESULT:      -3.5      0.000      0.000
REMARK  2 active torsions:
REMARK  status: ('A' for Active; 'I' for Inactive)
REMARK    1  A    between atoms: N_1  and  C_4 
REMARK    2  A    between atoms: C_4  and  C_6 
ROOT
HETATM    1  S   UNL     1      59.803   7.266   2.432  1.00  0.00    -0.169 SA
HETATM    2  C   UNL     1      62.389   9.035   1.652  1.00  0.00     0.075 C 
HETATM    3  C   UNL     1      60.040   8.275   0.942  1.00  0.00     0.075 C 
HETATM    4  C   UNL     1      60.918   8.147   3.561  1.00  0.00     0.075 C 
HETATM    5  C   UNL     1      61.516   8.390   0.565  1.00  0.00     0.028 C 
HETATM    6  C   UNL     1      62.325   8.267   2.979  1.00  0.00     0.028 C 
ENDROOT
BRANCH   2   7
HETATM    7  C   UNL     1      61.926  10.465   1.877  1.00  0.00    -0.073 C 
BRANCH   7   8
HETATM    8  N   UNL     1      61.543  11.652   2.065  1.00  0.00    -0.369 N 
ATOM      9  HN2 UNL     1      61.853  10.692   1.913  1.00  0.00     0.165 HD
ATOM     10  HN1 UNL     1      61.232  12.611   2.216  1.00  0.00     0.165 HD
ENDBRANCH   7   8
ENDBRANCH   2   7
TORSDOF 2
ENDMDL
MODEL 2
REMARK VINA RESULT:      -3.1      3.630      4.250
REMARK  2 active torsions:
REMARK  status: ('A' for Active; 'I' for Inactive)
REMARK    1  A    between atoms: N_1  and  C_4 
REMARK    2  A    between atoms: C_4  and  C_6 
ROOT
HETATM    1  S   UNL     1      63.596   6.334   6.253  1.00  0.00    -0.169 SA
HETATM    2  C   UNL     1      63.297   8.845   4.246  1.00  0.00     0.075 C 
HETATM    3  C   UNL     1      62.127   7.366   5.991  1.00  0.00     0.075 C 
HETATM    4  C   UNL     1      64.879   7.527   5.782  1.00  0.00     0.075 C 
HETATM    5  C   UNL     1      62.092   7.953   4.580  1.00  0.00     0.028 C 
HETATM    6  C   UNL     1      64.629   8.097   4.386  1.00  0.00     0.028 C 
ENDROOT
BRANCH   2   7
HETATM    7  C   UNL     1      63.298  10.048   5.175  1.00  0.00    -0.073 C 
BRANCH   7   8
HETATM    8  N   UNL     1      63.298  11.046   5.945  1.00  0.00    -0.369 N 
ATOM      9  HN2 UNL     1      63.298  10.239   5.322  1.00  0.00     0.165 HD
ATOM     10  HN1 UNL     1      63.299  11.854   6.568  1.00  0.00     0.165 HD
ENDBRANCH   7   8
ENDBRANCH   2   7
TORSDOF 2
ENDMDL
MODEL 3
REMARK VINA RESULT:      -3.1     12.812     13.935
REMARK  2 active torsions:
REMARK  status: ('A' for Active; 'I' for Inactive)
REMARK    1  A    between atoms: N_1  and  C_4 
REMARK    2  A    between atoms: C_4  and  C_6 
ROOT
HETATM    1  S   UNL     1      58.078  -1.272  13.504  1.00  0.00    -0.169 SA
HETATM    2  C   UNL     1      59.474   1.631  13.294  1.00  0.00     0.075 C 
HETATM    3  C   UNL     1      59.199  -0.679  12.206  1.00  0.00     0.075 C 
HETATM    4  C   UNL     1      57.401   0.319  14.053  1.00  0.00     0.075 C 
HETATM    5  C   UNL     1      60.166   0.380  12.734  1.00  0.00     0.028 C 
HETATM    6  C   UNL     1      58.510   1.297  14.440  1.00  0.00     0.028 C 
ENDROOT
BRANCH   2   7
HETATM    7  C   UNL     1      58.706   2.319  12.177  1.00  0.00    -0.073 C 
BRANCH   7   8
HETATM    8  N   UNL     1      58.069   2.889  11.250  1.00  0.00    -0.369 N 
ATOM      9  HN2 UNL     1      58.585   2.428  12.000  1.00  0.00     0.165 HD
ATOM     10  HN1 UNL     1      57.554   3.350  10.501  1.00  0.00     0.165 HD
ENDBRANCH   7   8
ENDBRANCH   2   7
TORSDOF 2
ENDMDL
MODEL 4
REMARK VINA RESULT:      -3.1      5.037      5.889
REMARK  2 active torsions:
REMARK  status: ('A' for Active; 'I' for Inactive)
REMARK    1  A    between atoms: N_1  and  C_4 
REMARK    2  A    between atoms: C_4  and  C_6 
ROOT
HETATM    1  S   UNL     1      66.241   6.572   7.402  1.00  0.00    -0.169 SA
HETATM    2  C   UNL     1      65.014   7.728   4.648  1.00  0.00     0.075 C 
HETATM    3  C   UNL     1      64.528   6.441   6.818  1.00  0.00     0.075 C 
HETATM    4  C   UNL     1      66.734   8.082   6.523  1.00  0.00     0.075 C 
HETATM    5  C   UNL     1      64.448   6.454   5.292  1.00  0.00     0.028 C 
HETATM    6  C   UNL     1      66.484   7.962   5.020  1.00  0.00     0.028 C 
ENDROOT
BRANCH   2   7
HETATM    7  C   UNL     1      64.187   8.922   5.097  1.00  0.00    -0.073 C 
BRANCH   7   8
HETATM    8  N   UNL     1      63.502   9.912   5.469  1.00  0.00    -0.369 N 
ATOM      9  HN2 UNL     1      64.056   9.111   5.168  1.00  0.00     0.165 HD
ATOM     10  HN1 UNL     1      62.947  10.713   5.770  1.00  0.00     0.165 HD
ENDBRANCH   7   8
ENDBRANCH   2   7
TORSDOF 2
ENDMDL
MODEL 5
REMARK VINA RESULT:      -3.1      2.211      2.728
REMARK  2 active torsions:
REMARK  status: ('A' for Active; 'I' for Inactive)
REMARK    1  A    between atoms: N_1  and  C_4 
REMARK    2  A    between atoms: C_4  and  C_6 
ROOT
HETATM    1  S   UNL     1      63.205   7.721   3.246  1.00  0.00    -0.169 SA
HETATM    2  C   UNL     1      61.600   8.799   0.661  1.00  0.00     0.075 C 
HETATM    3  C   UNL     1      62.491   6.734   1.902  1.00  0.00     0.075 C 
HETATM    4  C   UNL     1      62.123   9.175   3.148  1.00  0.00     0.075 C 
HETATM    5  C   UNL     1      62.441   7.516   0.591  1.00  0.00     0.028 C 
HETATM    6  C   UNL     1      62.107   9.766   1.739  1.00  0.00     0.028 C 
ENDROOT
BRANCH   2   7
HETATM    7  C   UNL     1      60.155   8.431   0.957  1.00  0.00    -0.073 C 
BRANCH   7   8
HETATM    8  N   UNL     1      58.956   8.126   1.203  1.00  0.00    -0.369 N 
ATOM      9  HN2 UNL     1      59.926   8.373   1.004  1.00  0.00     0.165 HD
ATOM     10  HN1 UNL     1      57.987   7.879   1.401  1.00  0.00     0.165 HD
ENDBRANCH   7   8
ENDBRANCH   2   7
TORSDOF 2
ENDMDL
MODEL 6
REMARK VINA RESULT:      -3.0     12.967     14.044
REMARK  2 active torsions:
REMARK  status: ('A' for Active; 'I' for Inactive)
REMARK    1  A    between atoms: N_1  and  C_4 
REMARK    2  A    between atoms: C_4  and  C_6 
ROOT
HETATM    1  S   UNL     1      56.312   0.931  12.848  1.00  0.00    -0.169 SA
HETATM    2  C   UNL     1      59.407   1.779  13.199  1.00  0.00     0.075 C 
HETATM    3  C   UNL     1      57.459   0.400  14.149  1.00  0.00     0.075 C 
HETATM    4  C   UNL     1      57.510   1.299  11.535  1.00  0.00     0.075 C 
HETATM    5  C   UNL     1      58.534   1.452  14.419  1.00  0.00     0.028 C 
HETATM    6  C   UNL     1      58.578   2.283  12.011  1.00  0.00     0.028 C 
ENDROOT
BRANCH   2   7
HETATM    7  C   UNL     1      60.170   0.531  12.784  1.00  0.00    -0.073 C 
BRANCH   7   8
HETATM    8  N   UNL     1      60.803  -0.504  12.439  1.00  0.00    -0.369 N 
ATOM      9  HN2 UNL     1      60.291   0.333  12.718  1.00  0.00     0.165 HD
ATOM     10  HN1 UNL     1      61.315  -1.341  12.161  1.00  0.00     0.165 HD
ENDBRANCH   7   8
ENDBRANCH   2   7
TORSDOF 2
ENDMDL
MODEL 7
REMARK VINA RESULT:      -2.9      7.224      7.960
REMARK  2 active torsions:
REMARK  status: ('A' for Active; 'I' for Inactive)
REMARK    1  A    between atoms: N_1  and  C_4 
REMARK    2  A    between atoms: C_4  and  C_6 
ROOT
HETATM    1  S   UNL     1      64.758   7.297   5.862  1.00  0.00    -0.169 SA
HETATM    2  C   UNL     1      67.629   5.892   6.315  1.00  0.00     0.075 C 
HETATM    3  C   UNL     1      66.345   8.113   6.187  1.00  0.00     0.075 C 
HETATM    4  C   UNL     1      65.090   5.693   6.644  1.00  0.00     0.075 C 
HETATM    5  C   UNL     1      67.523   7.284   5.676  1.00  0.00     0.028 C 
HETATM    6  C   UNL     1      66.364   5.054   6.093  1.00  0.00     0.028 C 
ENDROOT
BRANCH   2   7
HETATM    7  C   UNL     1      67.873   6.046   7.807  1.00  0.00    -0.073 C 
BRANCH   7   8
HETATM    8  N   UNL     1      68.075   6.174   9.045  1.00  0.00    -0.369 N 
ATOM      9  HN2 UNL     1      67.912   6.071   8.044  1.00  0.00     0.165 HD
ATOM     10  HN1 UNL     1      68.238   6.277  10.047  1.00  0.00     0.165 HD
ENDBRANCH   7   8
ENDBRANCH   2   7
TORSDOF 2
ENDMDL
MODEL 8
REMARK VINA RESULT:      -2.9     13.082     14.522
REMARK  2 active torsions:
REMARK  status: ('A' for Active; 'I' for Inactive)
REMARK    1  A    between atoms: N_1  and  C_4 
REMARK    2  A    between atoms: C_4  and  C_6 
ROOT
HETATM    1  S   UNL     1      59.177   1.694  12.931  1.00  0.00    -0.169 SA
HETATM    2  C   UNL     1      56.035   0.995  13.173  1.00  0.00     0.075 C 
HETATM    3  C   UNL     1      58.298   1.063  14.387  1.00  0.00     0.075 C 
HETATM    4  C   UNL     1      57.796   2.519  12.091  1.00  0.00     0.075 C 
HETATM    5  C   UNL     1      57.080   0.227  13.994  1.00  0.00     0.028 C 
HETATM    6  C   UNL     1      56.622   1.566  11.875  1.00  0.00     0.028 C 
ENDROOT
BRANCH   2   7
HETATM    7  C   UNL     1      55.478   2.132  14.014  1.00  0.00    -0.073 C 
BRANCH   7   8
HETATM    8  N   UNL     1      55.016   3.075  14.712  1.00  0.00    -0.369 N 
ATOM      9  HN2 UNL     1      55.390   2.312  14.148  1.00  0.00     0.165 HD
ATOM     10  HN1 UNL     1      54.643   3.838  15.277  1.00  0.00     0.165 HD
ENDBRANCH   7   8
ENDBRANCH   2   7
TORSDOF 2
ENDMDL
MODEL 9
REMARK VINA RESULT:      -2.8     13.119     14.455
REMARK  2 active torsions:
REMARK  status: ('A' for Active; 'I' for Inactive)
REMARK    1  A    between atoms: N_1  and  C_4 
REMARK    2  A    between atoms: C_4  and  C_6 
ROOT
HETATM    1  S   UNL     1      59.124   0.766  10.939  1.00  0.00    -0.169 SA
HETATM    2  C   UNL     1      58.700   0.410  14.119  1.00  0.00     0.075 C 
HETATM    3  C   UNL     1      58.746   2.061  12.151  1.00  0.00     0.075 C 
HETATM    4  C   UNL     1      58.409  -0.661  11.803  1.00  0.00     0.075 C 
HETATM    5  C   UNL     1      59.278   1.709  13.540  1.00  0.00     0.028 C 
HETATM    6  C   UNL     1      58.973  -0.800  13.216  1.00  0.00     0.028 C 
ENDROOT
BRANCH   2   7
HETATM    7  C   UNL     1      57.200   0.571  14.301  1.00  0.00    -0.073 C 
BRANCH   7   8
HETATM    8  N   UNL     1      55.955   0.705  14.452  1.00  0.00    -0.369 N 
ATOM      9  HN2 UNL     1      56.962   0.597  14.330  1.00  0.00     0.165 HD
ATOM     10  HN1 UNL     1      54.948   0.813  14.574  1.00  0.00     0.165 HD
ENDBRANCH   7   8
ENDBRANCH   2   7
TORSDOF 2
ENDMDL
