MODEL 1
REMARK VINA RESULT:      -4.4      0.000      0.000
REMARK  2 active torsions:
REMARK  status: ('A' for Active; 'I' for Inactive)
REMARK    1  A    between atoms: C_6  and  C_11 
REMARK    2  A    between atoms: N_10  and  C_11 
ROOT
HETATM    1  C   UNL     1      63.270   8.637   3.931  1.00  0.00    -0.014 A 
HETATM    2  C   UNL     1      62.470   9.637   3.413  1.00  0.00    -0.007 A 
HETATM    3  S   UNL     1      61.734   9.215   1.945  1.00  0.00    -0.106 SA
HETATM    4  C   UNL     1      63.239   7.476   3.099  1.00  0.00     0.018 A 
HETATM    5  C   UNL     1      62.453   7.662   1.979  1.00  0.00     0.051 A 
HETATM    6  C   UNL     1      64.009   8.836   5.238  1.00  0.00     0.180 C 
HETATM    7  O   UNL     1      64.057  10.246   5.607  1.00  0.00    -0.379 OA
HETATM    8  C   UNL     1      62.296  10.969   4.065  1.00  0.00     0.073 C 
HETATM    9  C   UNL     1      62.761  10.864   5.526  1.00  0.00     0.173 C 
ENDROOT
BRANCH   6  10
HETATM   10  C   UNL     1      65.467   8.316   5.180  1.00  0.00     0.266 C 
BRANCH  10  11
HETATM   11  N   UNL     1      66.159   8.388   6.476  1.00  0.00    -0.077 N 
HETATM   12  H   UNL     1      67.150   8.571   6.324  1.00  0.00     0.274 HD
HETATM   13  H   UNL     1      66.049   7.501   6.970  1.00  0.00     0.274 HD
HETATM   14  H   UNL     1      65.756   9.139   7.036  1.00  0.00     0.274 HD
ENDBRANCH  10  11
ENDBRANCH   6  10
TORSDOF 2
ENDMDL
MODEL 2
REMARK VINA RESULT:      -4.3      1.956      2.772
REMARK  2 active torsions:
REMARK  status: ('A' for Active; 'I' for Inactive)
REMARK    1  A    between atoms: C_6  and  C_11 
REMARK    2  A    between atoms: N_10  and  C_11 
ROOT
HETATM    1  C   UNL     1      62.319   9.109   3.815  1.00  0.00    -0.014 A 
HETATM    2  C   UNL     1      61.704   7.872   3.788  1.00  0.00    -0.007 A 
HETATM    3  S   UNL     1      60.845   7.580   2.355  1.00  0.00    -0.106 SA
HETATM    4  C   UNL     1      62.096   9.817   2.594  1.00  0.00     0.018 A 
HETATM    5  C   UNL     1      61.299   9.104   1.721  1.00  0.00     0.051 A 
HETATM    6  C   UNL     1      63.131   9.543   5.017  1.00  0.00     0.180 C 
HETATM    7  O   UNL     1      62.848   8.704   6.176  1.00  0.00    -0.379 OA
HETATM    8  C   UNL     1      61.764   6.901   4.921  1.00  0.00     0.073 C 
HETATM    9  C   UNL     1      62.917   7.305   5.852  1.00  0.00     0.173 C 
ENDROOT
BRANCH   6  10
HETATM   10  C   UNL     1      62.851  11.012   5.422  1.00  0.00     0.266 C 
BRANCH  10  11
HETATM   11  N   UNL     1      63.811  11.532   6.408  1.00  0.00    -0.077 N 
HETATM   12  H   UNL     1      63.493  11.301   7.349  1.00  0.00     0.274 HD
HETATM   13  H   UNL     1      63.881  12.546   6.313  1.00  0.00     0.274 HD
HETATM   14  H   UNL     1      64.727  11.113   6.246  1.00  0.00     0.274 HD
ENDBRANCH  10  11
ENDBRANCH   6  10
TORSDOF 2
ENDMDL
MODEL 3
REMARK VINA RESULT:      -4.2      2.598      3.639
REMARK  2 active torsions:
REMARK  status: ('A' for Active; 'I' for Inactive)
REMARK    1  A    between atoms: C_6  and  C_11 
REMARK    2  A    between atoms: N_10  and  C_11 
ROOT
HETATM    1  C   UNL     1      63.207   7.864   5.257  1.00  0.00    -0.014 A 
HETATM    2  C   UNL     1      63.824   6.833   5.938  1.00  0.00    -0.007 A 
HETATM    3  S   UNL     1      62.851   5.454   6.096  1.00  0.00    -0.106 SA
HETATM    4  C   UNL     1      61.900   7.479   4.825  1.00  0.00     0.018 A 
HETATM    5  C   UNL     1      61.578   6.199   5.227  1.00  0.00     0.051 A 
HETATM    6  C   UNL     1      63.925   9.176   5.021  1.00  0.00     0.180 C 
HETATM    7  O   UNL     1      65.089   9.304   5.890  1.00  0.00    -0.379 OA
HETATM    8  C   UNL     1      65.201   6.935   6.507  1.00  0.00     0.073 C 
HETATM    9  C   UNL     1      65.916   8.127   5.852  1.00  0.00     0.173 C 
ENDROOT
BRANCH   6  10
HETATM   10  C   UNL     1      63.015  10.404   5.274  1.00  0.00     0.266 C 
BRANCH  10  11
HETATM   11  N   UNL     1      63.615  11.391   6.185  1.00  0.00    -0.077 N 
HETATM   12  H   UNL     1      63.962  10.918   7.019  1.00  0.00     0.274 HD
HETATM   13  H   UNL     1      62.911  12.079   6.453  1.00  0.00     0.274 HD
HETATM   14  H   UNL     1      64.388  11.863   5.715  1.00  0.00     0.274 HD
ENDBRANCH  10  11
ENDBRANCH   6  10
TORSDOF 2
ENDMDL
MODEL 4
REMARK VINA RESULT:      -4.1      2.082      2.552
REMARK  2 active torsions:
REMARK  status: ('A' for Active; 'I' for Inactive)
REMARK    1  A    between atoms: C_6  and  C_11 
REMARK    2  A    between atoms: N_10  and  C_11 
ROOT
HETATM    1  C   UNL     1      62.208   8.873   3.525  1.00  0.00    -0.014 A 
HETATM    2  C   UNL     1      62.180   8.910   2.144  1.00  0.00    -0.007 A 
HETATM    3  S   UNL     1      62.254   7.376   1.429  1.00  0.00    -0.106 SA
HETATM    4  C   UNL     1      62.256   7.525   3.998  1.00  0.00     0.018 A 
HETATM    5  C   UNL     1      62.299   6.614   2.962  1.00  0.00     0.051 A 
HETATM    6  C   UNL     1      62.151  10.151   4.335  1.00  0.00     0.180 C 
HETATM    7  O   UNL     1      62.444  11.314   3.507  1.00  0.00    -0.379 OA
HETATM    8  C   UNL     1      62.124  10.180   1.359  1.00  0.00     0.073 C 
HETATM    9  C   UNL     1      61.673  11.314   2.293  1.00  0.00     0.173 C 
ENDROOT
BRANCH   6  10
HETATM   10  C   UNL     1      63.156  10.150   5.515  1.00  0.00     0.266 C 
BRANCH  10  11
HETATM   11  N   UNL     1      63.367  11.485   6.095  1.00  0.00    -0.077 N 
HETATM   12  H   UNL     1      62.486  11.839   6.468  1.00  0.00     0.274 HD
HETATM   13  H   UNL     1      63.709  12.120   5.372  1.00  0.00     0.274 HD
HETATM   14  H   UNL     1      64.055  11.425   6.846  1.00  0.00     0.274 HD
ENDBRANCH  10  11
ENDBRANCH   6  10
TORSDOF 2
ENDMDL
MODEL 5
REMARK VINA RESULT:      -4.0      2.928      3.604
REMARK  2 active torsions:
REMARK  status: ('A' for Active; 'I' for Inactive)
REMARK    1  A    between atoms: C_6  and  C_11 
REMARK    2  A    between atoms: N_10  and  C_11 
ROOT
HETATM    1  C   UNL     1      63.048   8.548   3.599  1.00  0.00    -0.014 A 
HETATM    2  C   UNL     1      63.628   9.101   4.723  1.00  0.00    -0.007 A 
HETATM    3  S   UNL     1      64.923   8.190   5.329  1.00  0.00    -0.106 SA
HETATM    4  C   UNL     1      63.725   7.350   3.212  1.00  0.00     0.018 A 
HETATM    5  C   UNL     1      64.754   7.035   4.076  1.00  0.00     0.051 A 
HETATM    6  C   UNL     1      61.876   9.224   2.919  1.00  0.00     0.180 C 
HETATM    7  O   UNL     1      61.268  10.225   3.788  1.00  0.00    -0.379 OA
HETATM    8  C   UNL     1      63.142  10.361   5.361  1.00  0.00     0.073 C 
HETATM    9  C   UNL     1      62.252  11.108   4.355  1.00  0.00     0.173 C 
ENDROOT
BRANCH   6  10
HETATM   10  C   UNL     1      60.767   8.221   2.512  1.00  0.00     0.266 C 
BRANCH  10  11
HETATM   11  N   UNL     1      59.646   8.181   3.464  1.00  0.00    -0.077 N 
HETATM   12  H   UNL     1      58.764   8.212   2.953  1.00  0.00     0.274 HD
HETATM   13  H   UNL     1      59.703   8.985   4.091  1.00  0.00     0.274 HD
HETATM   14  H   UNL     1      59.693   7.321   4.010  1.00  0.00     0.274 HD
ENDBRANCH  10  11
ENDBRANCH   6  10
TORSDOF 2
ENDMDL
MODEL 6
REMARK VINA RESULT:      -3.9      2.952      4.188
REMARK  2 active torsions:
REMARK  status: ('A' for Active; 'I' for Inactive)
REMARK    1  A    between atoms: C_6  and  C_11 
REMARK    2  A    between atoms: N_10  and  C_11 
ROOT
HETATM    1  C   UNL     1      63.078   8.730   3.957  1.00  0.00    -0.014 A 
HETATM    2  C   UNL     1      63.527   7.597   3.306  1.00  0.00    -0.007 A 
HETATM    3  S   UNL     1      64.954   6.964   3.967  1.00  0.00    -0.106 SA
HETATM    4  C   UNL     1      63.928   9.056   5.059  1.00  0.00     0.018 A 
HETATM    5  C   UNL     1      64.993   8.185   5.166  1.00  0.00     0.051 A 
HETATM    6  C   UNL     1      61.816   9.433   3.505  1.00  0.00     0.180 C 
HETATM    7  O   UNL     1      61.424   9.006   2.167  1.00  0.00    -0.379 OA
HETATM    8  C   UNL     1      62.841   7.007   2.118  1.00  0.00     0.073 C 
HETATM    9  C   UNL     1      61.414   7.573   2.045  1.00  0.00     0.173 C 
ENDROOT
BRANCH   6  10
HETATM   10  C   UNL     1      61.974  10.975   3.477  1.00  0.00     0.266 C 
BRANCH  10  11
HETATM   11  N   UNL     1      61.623  11.568   2.177  1.00  0.00    -0.077 N 
HETATM   12  H   UNL     1      61.033  12.387   2.325  1.00  0.00     0.274 HD
HETATM   13  H   UNL     1      61.118  10.883   1.615  1.00  0.00     0.274 HD
HETATM   14  H   UNL     1      62.474  11.845   1.688  1.00  0.00     0.274 HD
ENDBRANCH  10  11
ENDBRANCH   6  10
TORSDOF 2
ENDMDL
MODEL 7
REMARK VINA RESULT:      -3.7      3.399      4.158
REMARK  2 active torsions:
REMARK  status: ('A' for Active; 'I' for Inactive)
REMARK    1  A    between atoms: C_6  and  C_11 
REMARK    2  A    between atoms: N_10  and  C_11 
ROOT
HETATM    1  C   UNL     1      62.754   8.557   2.634  1.00  0.00    -0.014 A 
HETATM    2  C   UNL     1      62.631   9.382   3.735  1.00  0.00    -0.007 A 
HETATM    3  S   UNL     1      63.269   8.709   5.153  1.00  0.00    -0.106 SA
HETATM    4  C   UNL     1      63.431   7.346   2.977  1.00  0.00     0.018 A 
HETATM    5  C   UNL     1      63.753   7.296   4.318  1.00  0.00     0.051 A 
HETATM    6  C   UNL     1      62.239   8.993   1.278  1.00  0.00     0.180 C 
HETATM    7  O   UNL     1      61.327  10.125   1.399  1.00  0.00    -0.379 OA
HETATM    8  C   UNL     1      61.971  10.722   3.686  1.00  0.00     0.073 C 
HETATM    9  C   UNL     1      61.879  11.169   2.220  1.00  0.00     0.173 C 
ENDROOT
BRANCH   6  10
HETATM   10  C   UNL     1      61.484   7.860   0.538  1.00  0.00     0.266 C 
BRANCH  10  11
HETATM   11  N   UNL     1      60.036   8.100   0.438  1.00  0.00    -0.077 N 
HETATM   12  H   UNL     1      59.739   8.714   1.196  1.00  0.00     0.274 HD
HETATM   13  H   UNL     1      59.538   7.211   0.507  1.00  0.00     0.274 HD
HETATM   14  H   UNL     1      59.824   8.538  -0.459  1.00  0.00     0.274 HD
ENDBRANCH  10  11
ENDBRANCH   6  10
TORSDOF 2
ENDMDL
MODEL 8
REMARK VINA RESULT:      -3.6      1.833      3.082
REMARK  2 active torsions:
REMARK  status: ('A' for Active; 'I' for Inactive)
REMARK    1  A    between atoms: C_6  and  C_11 
REMARK    2  A    between atoms: N_10  and  C_11 
ROOT
HETATM    1  C   UNL     1      63.156   8.517   4.112  1.00  0.00    -0.014 A 
HETATM    2  C   UNL     1      62.638   8.449   2.833  1.00  0.00    -0.007 A 
HETATM    3  S   UNL     1      61.787   9.842   2.378  1.00  0.00    -0.106 SA
HETATM    4  C   UNL     1      62.865   9.781   4.714  1.00  0.00     0.018 A 
HETATM    5  C   UNL     1      62.114  10.588   3.884  1.00  0.00     0.051 A 
HETATM    6  C   UNL     1      63.948   7.363   4.689  1.00  0.00     0.180 C 
HETATM    7  O   UNL     1      63.745   6.144   3.915  1.00  0.00    -0.379 OA
HETATM    8  C   UNL     1      62.786   7.253   1.951  1.00  0.00     0.073 C 
HETATM    9  C   UNL     1      63.917   6.373   2.505  1.00  0.00     0.173 C 
ENDROOT
BRANCH   6  10
HETATM   10  C   UNL     1      63.561   7.055   6.158  1.00  0.00     0.266 C 
BRANCH  10  11
HETATM   11  N   UNL     1      64.703   7.127   7.083  1.00  0.00    -0.077 N 
HETATM   12  H   UNL     1      65.559   7.299   6.556  1.00  0.00     0.274 HD
HETATM   13  H   UNL     1      64.788   6.244   7.588  1.00  0.00     0.274 HD
HETATM   14  H   UNL     1      64.554   7.885   7.749  1.00  0.00     0.274 HD
ENDBRANCH  10  11
ENDBRANCH   6  10
TORSDOF 2
ENDMDL
MODEL 9
REMARK VINA RESULT:      -3.5      2.202      3.624
REMARK  2 active torsions:
REMARK  status: ('A' for Active; 'I' for Inactive)
REMARK    1  A    between atoms: C_6  and  C_11 
REMARK    2  A    between atoms: N_10  and  C_11 
ROOT
HETATM    1  C   UNL     1      64.892   7.871   4.694  1.00  0.00    -0.014 A 
HETATM    2  C   UNL     1      64.249   7.193   3.677  1.00  0.00    -0.007 A 
HETATM    3  S   UNL     1      62.802   7.929   3.189  1.00  0.00    -0.106 SA
HETATM    4  C   UNL     1      64.176   9.056   5.050  1.00  0.00     0.018 A 
HETATM    5  C   UNL     1      63.015   9.198   4.318  1.00  0.00     0.051 A 
HETATM    6  C   UNL     1      66.201   7.361   5.259  1.00  0.00     0.180 C 
HETATM    7  O   UNL     1      66.434   5.972   4.879  1.00  0.00    -0.379 OA
HETATM    8  C   UNL     1      64.762   5.920   3.088  1.00  0.00     0.073 C 
HETATM    9  C   UNL     1      66.243   5.765   3.469  1.00  0.00     0.173 C 
ENDROOT
BRANCH   6  10
HETATM   10  C   UNL     1      66.249   7.438   6.806  1.00  0.00     0.266 C 
BRANCH  10  11
HETATM   11  N   UNL     1      67.014   8.592   7.304  1.00  0.00    -0.077 N 
HETATM   12  H   UNL     1      67.433   9.088   6.517  1.00  0.00     0.274 HD
HETATM   13  H   UNL     1      67.750   8.267   7.931  1.00  0.00     0.274 HD
HETATM   14  H   UNL     1      66.391   9.221   7.810  1.00  0.00     0.274 HD
ENDBRANCH  10  11
ENDBRANCH   6  10
TORSDOF 2
ENDMDL
