MODEL 1
REMARK VINA RESULT:      -5.7      0.000      0.000
REMARK  4 active torsions:
REMARK  status: ('A' for Active; 'I' for Inactive)
REMARK    1  A    between atoms: O_1  and  C_4 
REMARK    2  A    between atoms: O_1  and  C_7 
REMARK    3  A    between atoms: C_3  and  N_5 
REMARK    4  A    between atoms: C_4  and  C_6 
ROOT
HETATM    1  C   UNL     1      65.342   7.845   5.659  1.00  0.00     0.038 A 
HETATM    2  C   UNL     1      66.645   7.807   6.165  1.00  0.00     0.026 A 
HETATM    3  C   UNL     1      64.968   7.094   4.530  1.00  0.00    -0.032 A 
HETATM    4  C   UNL     1      67.262   6.345   4.329  1.00  0.00     0.003 A 
HETATM    5  C   UNL     1      67.610   7.087   5.460  1.00  0.00     0.029 A 
HETATM    6  C   UNL     1      65.944   6.346   3.867  1.00  0.00     0.009 A 
ENDROOT
BRANCH   3   7
HETATM    7  C   UNL     1      63.553   7.218   4.010  1.00  0.00     0.214 C 
BRANCH   7   8
HETATM    8  O   UNL     1      62.825   8.261   4.662  1.00  0.00    -0.347 OA
BRANCH   8   9
HETATM    9  C   UNL     1      62.469   9.325   3.870  1.00  0.00     0.069 A 
HETATM   10  C   UNL     1      62.219  10.626   4.314  1.00  0.00     0.037 A 
HETATM   11  C   UNL     1      61.879  11.631   3.403  1.00  0.00     0.003 A 
HETATM   12  C   UNL     1      61.784  11.342   2.045  1.00  0.00     0.000 A 
HETATM   13  C   UNL     1      62.019  10.044   1.596  1.00  0.00     0.003 A 
HETATM   14  C   UNL     1      62.358   9.041   2.507  1.00  0.00     0.037 A 
ENDBRANCH   8   9
ENDBRANCH   7   8
ENDBRANCH   3   7
BRANCH   2  15
HETATM   15  N   UNL     1      67.018   8.666   7.205  1.00  0.00    -0.399 N 
HETATM   16  H   UNL     1      66.772   8.450   8.133  1.00  0.00     0.156 HD
HETATM   17  H   UNL     1      67.525   9.485   7.008  1.00  0.00     0.156 HD
ENDBRANCH   2  15
TORSDOF 4
ENDMDL
MODEL 2
REMARK VINA RESULT:      -5.6      2.339      6.010
REMARK  4 active torsions:
REMARK  status: ('A' for Active; 'I' for Inactive)
REMARK    1  A    between atoms: O_1  and  C_4 
REMARK    2  A    between atoms: O_1  and  C_7 
REMARK    3  A    between atoms: C_3  and  N_5 
REMARK    4  A    between atoms: C_4  and  C_6 
ROOT
HETATM    1  C   UNL     1      62.723   8.799   2.933  1.00  0.00     0.038 A 
HETATM    2  C   UNL     1      62.166   9.441   1.824  1.00  0.00     0.026 A 
HETATM    3  C   UNL     1      62.795   9.426   4.190  1.00  0.00    -0.032 A 
HETATM    4  C   UNL     1      61.848  11.420   3.192  1.00  0.00     0.003 A 
HETATM    5  C   UNL     1      61.773  10.773   1.956  1.00  0.00     0.029 A 
HETATM    6  C   UNL     1      62.354  10.747   4.307  1.00  0.00     0.009 A 
ENDROOT
BRANCH   3   7
HETATM    7  C   UNL     1      63.453   8.689   5.335  1.00  0.00     0.214 C 
BRANCH   7   8
HETATM    8  O   UNL     1      64.807   9.098   5.536  1.00  0.00    -0.347 OA
BRANCH   8   9
HETATM    9  C   UNL     1      65.735   8.087   5.576  1.00  0.00     0.069 A 
HETATM   10  C   UNL     1      66.491   7.715   6.691  1.00  0.00     0.037 A 
HETATM   11  C   UNL     1      67.396   6.652   6.610  1.00  0.00     0.003 A 
HETATM   12  C   UNL     1      67.554   5.957   5.414  1.00  0.00     0.000 A 
HETATM   13  C   UNL     1      66.815   6.331   4.295  1.00  0.00     0.003 A 
HETATM   14  C   UNL     1      65.911   7.393   4.377  1.00  0.00     0.037 A 
ENDBRANCH   8   9
ENDBRANCH   7   8
ENDBRANCH   3   7
BRANCH   2  15
HETATM   15  N   UNL     1      62.231   8.842   0.561  1.00  0.00    -0.399 N 
HETATM   16  H   UNL     1      63.017   8.988  -0.013  1.00  0.00     0.156 HD
HETATM   17  H   UNL     1      61.491   8.274   0.247  1.00  0.00     0.156 HD
ENDBRANCH   2  15
TORSDOF 4
ENDMDL
MODEL 3
REMARK VINA RESULT:      -5.4      2.478      5.899
REMARK  4 active torsions:
REMARK  status: ('A' for Active; 'I' for Inactive)
REMARK    1  A    between atoms: O_1  and  C_4 
REMARK    2  A    between atoms: O_1  and  C_7 
REMARK    3  A    between atoms: C_3  and  N_5 
REMARK    4  A    between atoms: C_4  and  C_6 
ROOT
HETATM    1  C   UNL     1      62.437  10.252   3.601  1.00  0.00     0.038 A 
HETATM    2  C   UNL     1      61.974  10.546   2.315  1.00  0.00     0.026 A 
HETATM    3  C   UNL     1      62.962   8.988   3.924  1.00  0.00    -0.032 A 
HETATM    4  C   UNL     1      62.445   8.253   1.676  1.00  0.00     0.003 A 
HETATM    5  C   UNL     1      61.939   9.520   1.371  1.00  0.00     0.029 A 
HETATM    6  C   UNL     1      62.958   7.989   2.948  1.00  0.00     0.009 A 
ENDROOT
BRANCH   3   7
HETATM    7  C   UNL     1      63.403   8.726   5.347  1.00  0.00     0.214 C 
BRANCH   7   8
HETATM    8  O   UNL     1      64.772   9.070   5.563  1.00  0.00    -0.347 OA
BRANCH   8   9
HETATM    9  C   UNL     1      65.639   8.013   5.697  1.00  0.00     0.069 A 
HETATM   10  C   UNL     1      66.881   7.889   5.068  1.00  0.00     0.037 A 
HETATM   11  C   UNL     1      67.682   6.768   5.299  1.00  0.00     0.003 A 
HETATM   12  C   UNL     1      67.248   5.761   6.157  1.00  0.00     0.000 A 
HETATM   13  C   UNL     1      66.005   5.871   6.778  1.00  0.00     0.003 A 
HETATM   14  C   UNL     1      65.205   6.992   6.545  1.00  0.00     0.037 A 
ENDBRANCH   8   9
ENDBRANCH   7   8
ENDBRANCH   3   7
BRANCH   2  15
HETATM   15  N   UNL     1      61.335  11.765   2.062  1.00  0.00    -0.399 N 
HETATM   16  H   UNL     1      60.976  12.296   2.808  1.00  0.00     0.156 HD
HETATM   17  H   UNL     1      61.246  12.091   1.138  1.00  0.00     0.156 HD
ENDBRANCH   2  15
TORSDOF 4
ENDMDL
MODEL 4
REMARK VINA RESULT:      -5.3      1.924      5.820
REMARK  4 active torsions:
REMARK  status: ('A' for Active; 'I' for Inactive)
REMARK    1  A    between atoms: O_1  and  C_4 
REMARK    2  A    between atoms: O_1  and  C_7 
REMARK    3  A    between atoms: C_3  and  N_5 
REMARK    4  A    between atoms: C_4  and  C_6 
ROOT
HETATM    1  C   UNL     1      63.740   9.348   5.111  1.00  0.00     0.038 A 
HETATM    2  C   UNL     1      63.155  10.613   5.206  1.00  0.00     0.026 A 
HETATM    3  C   UNL     1      63.466   8.487   4.033  1.00  0.00    -0.032 A 
HETATM    4  C   UNL     1      61.901  10.129   3.186  1.00  0.00     0.003 A 
HETATM    5  C   UNL     1      62.198  10.975   4.257  1.00  0.00     0.029 A 
HETATM    6  C   UNL     1      62.536   8.891   3.072  1.00  0.00     0.009 A 
ENDROOT
BRANCH   3   7
HETATM    7  C   UNL     1      64.099   7.113   4.019  1.00  0.00     0.214 C 
BRANCH   7   8
HETATM    8  O   UNL     1      64.079   6.494   5.306  1.00  0.00    -0.347 OA
BRANCH   8   9
HETATM    9  C   UNL     1      65.305   6.291   5.890  1.00  0.00     0.069 A 
HETATM   10  C   UNL     1      66.440   5.783   5.252  1.00  0.00     0.037 A 
HETATM   11  C   UNL     1      67.641   5.638   5.953  1.00  0.00     0.003 A 
HETATM   12  C   UNL     1      67.715   5.998   7.296  1.00  0.00     0.000 A 
HETATM   13  C   UNL     1      66.585   6.493   7.942  1.00  0.00     0.003 A 
HETATM   14  C   UNL     1      65.385   6.636   7.241  1.00  0.00     0.037 A 
ENDBRANCH   8   9
ENDBRANCH   7   8
ENDBRANCH   3   7
BRANCH   2  15
HETATM   15  N   UNL     1      63.344  11.389   6.355  1.00  0.00    -0.399 N 
HETATM   16  H   UNL     1      63.643  10.964   7.191  1.00  0.00     0.156 HD
HETATM   17  H   UNL     1      63.177  12.358   6.327  1.00  0.00     0.156 HD
ENDBRANCH   2  15
TORSDOF 4
ENDMDL
MODEL 5
REMARK VINA RESULT:      -5.2      2.396      3.013
REMARK  4 active torsions:
REMARK  status: ('A' for Active; 'I' for Inactive)
REMARK    1  A    between atoms: O_1  and  C_4 
REMARK    2  A    between atoms: O_1  and  C_7 
REMARK    3  A    between atoms: C_3  and  N_5 
REMARK    4  A    between atoms: C_4  and  C_6 
ROOT
HETATM    1  C   UNL     1      65.559   5.781   6.549  1.00  0.00     0.038 A 
HETATM    2  C   UNL     1      65.787   4.862   7.577  1.00  0.00     0.026 A 
HETATM    3  C   UNL     1      66.130   7.067   6.569  1.00  0.00    -0.032 A 
HETATM    4  C   UNL     1      67.078   6.556   8.739  1.00  0.00     0.003 A 
HETATM    5  C   UNL     1      66.513   5.280   8.693  1.00  0.00     0.029 A 
HETATM    6  C   UNL     1      66.891   7.446   7.678  1.00  0.00     0.009 A 
ENDROOT
BRANCH   3   7
HETATM    7  C   UNL     1      65.803   8.026   5.447  1.00  0.00     0.214 C 
BRANCH   7   8
HETATM    8  O   UNL     1      64.999   9.122   5.887  1.00  0.00    -0.347 OA
BRANCH   8   9
HETATM    9  C   UNL     1      63.937   9.445   5.079  1.00  0.00     0.069 A 
HETATM   10  C   UNL     1      63.154  10.598   5.180  1.00  0.00     0.037 A 
HETATM   11  C   UNL     1      62.107  10.823   4.282  1.00  0.00     0.003 A 
HETATM   12  C   UNL     1      61.832   9.897   3.280  1.00  0.00     0.000 A 
HETATM   13  C   UNL     1      62.599   8.738   3.181  1.00  0.00     0.003 A 
HETATM   14  C   UNL     1      63.646   8.514   4.079  1.00  0.00     0.037 A 
ENDBRANCH   8   9
ENDBRANCH   7   8
ENDBRANCH   3   7
BRANCH   2  15
HETATM   15  N   UNL     1      65.098   3.644   7.593  1.00  0.00    -0.399 N 
HETATM   16  H   UNL     1      65.272   2.990   8.308  1.00  0.00     0.156 HD
HETATM   17  H   UNL     1      64.440   3.442   6.890  1.00  0.00     0.156 HD
ENDBRANCH   2  15
TORSDOF 4
ENDMDL
MODEL 6
REMARK VINA RESULT:      -5.2      2.322      6.066
REMARK  4 active torsions:
REMARK  status: ('A' for Active; 'I' for Inactive)
REMARK    1  A    between atoms: O_1  and  C_4 
REMARK    2  A    between atoms: O_1  and  C_7 
REMARK    3  A    between atoms: C_3  and  N_5 
REMARK    4  A    between atoms: C_4  and  C_6 
ROOT
HETATM    1  C   UNL     1      62.574   8.797   2.953  1.00  0.00     0.038 A 
HETATM    2  C   UNL     1      62.147   9.458   1.798  1.00  0.00     0.026 A 
HETATM    3  C   UNL     1      62.592   9.438   4.205  1.00  0.00    -0.032 A 
HETATM    4  C   UNL     1      61.859  11.474   3.116  1.00  0.00     0.003 A 
HETATM    5  C   UNL     1      61.835  10.815   1.885  1.00  0.00     0.029 A 
HETATM    6  C   UNL     1      62.233  10.787   4.274  1.00  0.00     0.009 A 
ENDROOT
BRANCH   3   7
HETATM    7  C   UNL     1      63.110   8.678   5.405  1.00  0.00     0.214 C 
BRANCH   7   8
HETATM    8  O   UNL     1      63.628   7.394   5.051  1.00  0.00    -0.347 OA
BRANCH   8   9
HETATM    9  C   UNL     1      64.938   7.165   5.393  1.00  0.00     0.069 A 
HETATM   10  C   UNL     1      66.035   7.257   4.532  1.00  0.00     0.037 A 
HETATM   11  C   UNL     1      67.328   7.015   5.006  1.00  0.00     0.003 A 
HETATM   12  C   UNL     1      67.533   6.676   6.341  1.00  0.00     0.000 A 
HETATM   13  C   UNL     1      66.443   6.569   7.201  1.00  0.00     0.003 A 
HETATM   14  C   UNL     1      65.151   6.811   6.727  1.00  0.00     0.037 A 
ENDBRANCH   8   9
ENDBRANCH   7   8
ENDBRANCH   3   7
BRANCH   2  15
HETATM   15  N   UNL     1      62.268   8.836   0.550  1.00  0.00    -0.399 N 
HETATM   16  H   UNL     1      61.510   8.842  -0.078  1.00  0.00     0.156 HD
HETATM   17  H   UNL     1      63.110   8.393   0.301  1.00  0.00     0.156 HD
ENDBRANCH   2  15
TORSDOF 4
ENDMDL
MODEL 7
REMARK VINA RESULT:      -5.1      1.532      2.224
REMARK  4 active torsions:
REMARK  status: ('A' for Active; 'I' for Inactive)
REMARK    1  A    between atoms: O_1  and  C_4 
REMARK    2  A    between atoms: O_1  and  C_7 
REMARK    3  A    between atoms: C_3  and  N_5 
REMARK    4  A    between atoms: C_4  and  C_6 
ROOT
HETATM    1  C   UNL     1      65.382   7.263   4.664  1.00  0.00     0.038 A 
HETATM    2  C   UNL     1      66.598   6.580   4.757  1.00  0.00     0.026 A 
HETATM    3  C   UNL     1      64.486   7.323   5.747  1.00  0.00    -0.032 A 
HETATM    4  C   UNL     1      65.985   5.893   7.001  1.00  0.00     0.003 A 
HETATM    5  C   UNL     1      66.868   5.857   5.919  1.00  0.00     0.029 A 
HETATM    6  C   UNL     1      64.799   6.627   6.917  1.00  0.00     0.009 A 
ENDROOT
BRANCH   3   7
HETATM    7  C   UNL     1      63.167   8.040   5.562  1.00  0.00     0.214 C 
BRANCH   7   8
HETATM    8  O   UNL     1      62.573   7.763   4.293  1.00  0.00    -0.347 OA
BRANCH   8   9
HETATM    9  C   UNL     1      62.347   8.853   3.489  1.00  0.00     0.069 A 
HETATM   10  C   UNL     1      62.280   8.839   2.093  1.00  0.00     0.037 A 
HETATM   11  C   UNL     1      62.026  10.018   1.386  1.00  0.00     0.003 A 
HETATM   12  C   UNL     1      61.840  11.218   2.067  1.00  0.00     0.000 A 
HETATM   13  C   UNL     1      61.918  11.242   3.458  1.00  0.00     0.003 A 
HETATM   14  C   UNL     1      62.173  10.063   4.164  1.00  0.00     0.037 A 
ENDBRANCH   8   9
ENDBRANCH   7   8
ENDBRANCH   3   7
BRANCH   2  15
HETATM   15  N   UNL     1      67.403   6.427   3.622  1.00  0.00    -0.399 N 
HETATM   16  H   UNL     1      67.957   7.177   3.307  1.00  0.00     0.156 HD
HETATM   17  H   UNL     1      67.416   5.569   3.141  1.00  0.00     0.156 HD
ENDBRANCH   2  15
TORSDOF 4
ENDMDL
MODEL 8
REMARK VINA RESULT:      -5.0      2.738      6.127
REMARK  4 active torsions:
REMARK  status: ('A' for Active; 'I' for Inactive)
REMARK    1  A    between atoms: O_1  and  C_4 
REMARK    2  A    between atoms: O_1  and  C_7 
REMARK    3  A    between atoms: C_3  and  N_5 
REMARK    4  A    between atoms: C_4  and  C_6 
ROOT
HETATM    1  C   UNL     1      62.688   9.192   3.235  1.00  0.00     0.038 A 
HETATM    2  C   UNL     1      61.969  10.389   3.187  1.00  0.00     0.026 A 
HETATM    3  C   UNL     1      63.442   8.830   4.365  1.00  0.00    -0.032 A 
HETATM    4  C   UNL     1      62.851  10.949   5.376  1.00  0.00     0.003 A 
HETATM    5  C   UNL     1      62.097  11.284   4.249  1.00  0.00     0.029 A 
HETATM    6  C   UNL     1      63.519   9.724   5.436  1.00  0.00     0.009 A 
ENDROOT
BRANCH   3   7
HETATM    7  C   UNL     1      64.233   7.541   4.330  1.00  0.00     0.214 C 
BRANCH   7   8
HETATM    8  O   UNL     1      65.567   7.711   4.813  1.00  0.00    -0.347 OA
BRANCH   8   9
HETATM    9  C   UNL     1      65.856   7.083   6.000  1.00  0.00     0.069 A 
HETATM   10  C   UNL     1      66.641   7.605   7.031  1.00  0.00     0.037 A 
HETATM   11  C   UNL     1      66.849   6.872   8.203  1.00  0.00     0.003 A 
HETATM   12  C   UNL     1      66.277   5.611   8.351  1.00  0.00     0.000 A 
HETATM   13  C   UNL     1      65.504   5.078   7.322  1.00  0.00     0.003 A 
HETATM   14  C   UNL     1      65.297   5.811   6.151  1.00  0.00     0.037 A 
ENDBRANCH   8   9
ENDBRANCH   7   8
ENDBRANCH   3   7
BRANCH   2  15
HETATM   15  N   UNL     1      61.339  10.782   2.000  1.00  0.00    -0.399 N 
HETATM   16  H   UNL     1      60.992  11.698   1.908  1.00  0.00     0.156 HD
HETATM   17  H   UNL     1      61.245  10.142   1.258  1.00  0.00     0.156 HD
ENDBRANCH   2  15
TORSDOF 4
ENDMDL
MODEL 9
REMARK VINA RESULT:      -4.7      3.311      5.093
REMARK  4 active torsions:
REMARK  status: ('A' for Active; 'I' for Inactive)
REMARK    1  A    between atoms: O_1  and  C_4 
REMARK    2  A    between atoms: O_1  and  C_7 
REMARK    3  A    between atoms: C_3  and  N_5 
REMARK    4  A    between atoms: C_4  and  C_6 
ROOT
HETATM    1  C   UNL     1      62.641   9.473   3.865  1.00  0.00     0.038 A 
HETATM    2  C   UNL     1      62.505  10.833   4.159  1.00  0.00     0.026 A 
HETATM    3  C   UNL     1      62.336   8.960   2.591  1.00  0.00    -0.032 A 
HETATM    4  C   UNL     1      61.629  11.178   1.923  1.00  0.00     0.003 A 
HETATM    5  C   UNL     1      61.952  11.670   3.191  1.00  0.00     0.029 A 
HETATM    6  C   UNL     1      61.824   9.828   1.623  1.00  0.00     0.009 A 
ENDROOT
BRANCH   3   7
HETATM    7  C   UNL     1      62.463   7.472   2.356  1.00  0.00     0.214 C 
BRANCH   7   8
HETATM    8  O   UNL     1      61.563   6.716   3.170  1.00  0.00    -0.347 OA
BRANCH   8   9
HETATM    9  C   UNL     1      60.230   6.854   2.871  1.00  0.00     0.069 A 
HETATM   10  C   UNL     1      59.247   7.351   3.732  1.00  0.00     0.037 A 
HETATM   11  C   UNL     1      57.921   7.458   3.303  1.00  0.00     0.003 A 
HETATM   12  C   UNL     1      57.567   7.068   2.015  1.00  0.00     0.000 A 
HETATM   13  C   UNL     1      58.539   6.559   1.156  1.00  0.00     0.003 A 
HETATM   14  C   UNL     1      59.864   6.451   1.585  1.00  0.00     0.037 A 
ENDBRANCH   8   9
ENDBRANCH   7   8
ENDBRANCH   3   7
BRANCH   2  15
HETATM   15  N   UNL     1      62.688  11.288   5.470  1.00  0.00    -0.399 N 
HETATM   16  H   UNL     1      62.200  10.862   6.211  1.00  0.00     0.156 HD
HETATM   17  H   UNL     1      63.305  12.032   5.650  1.00  0.00     0.156 HD
ENDBRANCH   2  15
TORSDOF 4
ENDMDL
