MODEL 1
REMARK VINA RESULT:      -6.0      0.000      0.000
REMARK  4 active torsions:
REMARK  status: ('A' for Active; 'I' for Inactive)
REMARK    1  A    between atoms: C_1  and  C_2 
REMARK    2  A    between atoms: O_5  and  C_8 
REMARK    3  A    between atoms: O_5  and  C_9 
REMARK    4  A    between atoms: C_7  and  C_8 
ROOT
HETATM    1  C   UNL     1      62.309   9.841   3.467  1.00  0.00     0.041 A 
HETATM    2  C   UNL     1      62.517   9.199   4.696  1.00  0.00     0.027 A 
HETATM    3  C   UNL     1      62.736   7.810   4.751  1.00  0.00    -0.033 A 
HETATM    4  C   UNL     1      62.298   9.093   2.286  1.00  0.00     0.018 A 
HETATM    5  C   UNL     1      62.525   7.716   2.331  1.00  0.00     0.002 A 
HETATM    6  C   UNL     1      62.742   7.080   3.556  1.00  0.00     0.009 A 
ENDROOT
BRANCH   3   7
HETATM    7  C   UNL     1      62.788   7.131   6.103  1.00  0.00     0.214 C 
BRANCH   7   8
HETATM    8  O   UNL     1      63.941   7.494   6.864  1.00  0.00    -0.347 OA
BRANCH   8   9
HETATM    9  C   UNL     1      65.142   7.057   6.360  1.00  0.00     0.069 A 
HETATM   10  C   UNL     1      65.487   5.725   6.110  1.00  0.00     0.037 A 
HETATM   11  C   UNL     1      66.738   5.405   5.571  1.00  0.00     0.003 A 
HETATM   12  C   UNL     1      67.655   6.413   5.288  1.00  0.00     0.000 A 
HETATM   13  C   UNL     1      67.324   7.741   5.550  1.00  0.00     0.003 A 
HETATM   14  C   UNL     1      66.074   8.061   6.086  1.00  0.00     0.037 A 
ENDBRANCH   8   9
ENDBRANCH   7   8
ENDBRANCH   3   7
BRANCH   1  15
HETATM   15  C   UNL     1      62.006  11.292   3.384  1.00  0.00     0.209 C 
HETATM   16  O   UNL     1      61.815  11.985   4.370  1.00  0.00    -0.644 OA
HETATM   17  O   UNL     1      61.938  11.768   2.124  1.00  0.00    -0.644 OA
ENDBRANCH   1  15
TORSDOF 4
ENDMDL
MODEL 2
REMARK VINA RESULT:      -5.7      1.835      2.165
REMARK  4 active torsions:
REMARK  status: ('A' for Active; 'I' for Inactive)
REMARK    1  A    between atoms: C_1  and  C_2 
REMARK    2  A    between atoms: O_5  and  C_8 
REMARK    3  A    between atoms: O_5  and  C_9 
REMARK    4  A    between atoms: C_7  and  C_8 
ROOT
HETATM    1  C   UNL     1      63.109   9.565   4.311  1.00  0.00     0.041 A 
HETATM    2  C   UNL     1      64.101   8.671   4.739  1.00  0.00     0.027 A 
HETATM    3  C   UNL     1      64.340   7.475   4.037  1.00  0.00    -0.033 A 
HETATM    4  C   UNL     1      62.334   9.256   3.190  1.00  0.00     0.018 A 
HETATM    5  C   UNL     1      62.571   8.077   2.481  1.00  0.00     0.002 A 
HETATM    6  C   UNL     1      63.567   7.192   2.904  1.00  0.00     0.009 A 
ENDROOT
BRANCH   3   7
HETATM    7  C   UNL     1      65.299   6.462   4.624  1.00  0.00     0.214 C 
BRANCH   7   8
HETATM    8  O   UNL     1      64.933   6.048   5.941  1.00  0.00    -0.347 OA
BRANCH   8   9
HETATM    9  C   UNL     1      65.975   5.905   6.826  1.00  0.00     0.069 A 
HETATM   10  C   UNL     1      67.058   5.033   6.679  1.00  0.00     0.037 A 
HETATM   11  C   UNL     1      68.074   4.994   7.640  1.00  0.00     0.003 A 
HETATM   12  C   UNL     1      68.010   5.821   8.758  1.00  0.00     0.000 A 
HETATM   13  C   UNL     1      66.926   6.683   8.918  1.00  0.00     0.003 A 
HETATM   14  C   UNL     1      65.912   6.722   7.957  1.00  0.00     0.037 A 
ENDBRANCH   8   9
ENDBRANCH   7   8
ENDBRANCH   3   7
BRANCH   1  15
HETATM   15  C   UNL     1      62.787  10.799   5.071  1.00  0.00     0.209 C 
HETATM   16  O   UNL     1      63.156  10.983   6.219  1.00  0.00    -0.644 OA
HETATM   17  O   UNL     1      62.035  11.684   4.387  1.00  0.00    -0.644 OA
ENDBRANCH   1  15
TORSDOF 4
ENDMDL
MODEL 3
REMARK VINA RESULT:      -5.7      2.007      6.377
REMARK  4 active torsions:
REMARK  status: ('A' for Active; 'I' for Inactive)
REMARK    1  A    between atoms: C_1  and  C_2 
REMARK    2  A    between atoms: O_5  and  C_8 
REMARK    3  A    between atoms: O_5  and  C_9 
REMARK    4  A    between atoms: C_7  and  C_8 
ROOT
HETATM    1  C   UNL     1      66.722   6.539   7.243  1.00  0.00     0.041 A 
HETATM    2  C   UNL     1      65.354   6.703   6.981  1.00  0.00     0.027 A 
HETATM    3  C   UNL     1      64.915   7.179   5.732  1.00  0.00    -0.033 A 
HETATM    4  C   UNL     1      67.660   6.870   6.261  1.00  0.00     0.018 A 
HETATM    5  C   UNL     1      67.233   7.333   5.016  1.00  0.00     0.002 A 
HETATM    6  C   UNL     1      65.869   7.487   4.754  1.00  0.00     0.009 A 
ENDROOT
BRANCH   3   7
HETATM    7  C   UNL     1      63.448   7.503   5.547  1.00  0.00     0.214 C 
BRANCH   7   8
HETATM    8  O   UNL     1      63.165   8.896   5.680  1.00  0.00    -0.347 OA
BRANCH   8   9
HETATM    9  C   UNL     1      62.720   9.519   4.538  1.00  0.00     0.069 A 
HETATM   10  C   UNL     1      62.285  10.845   4.446  1.00  0.00     0.037 A 
HETATM   11  C   UNL     1      61.876  11.374   3.218  1.00  0.00     0.003 A 
HETATM   12  C   UNL     1      61.890  10.580   2.075  1.00  0.00     0.000 A 
HETATM   13  C   UNL     1      62.307   9.253   2.162  1.00  0.00     0.003 A 
HETATM   14  C   UNL     1      62.718   8.725   3.389  1.00  0.00     0.037 A 
ENDBRANCH   8   9
ENDBRANCH   7   8
ENDBRANCH   3   7
BRANCH   1  15
HETATM   15  C   UNL     1      67.217   6.105   8.573  1.00  0.00     0.209 C 
HETATM   16  O   UNL     1      68.075   5.249   8.713  1.00  0.00    -0.644 OA
HETATM   17  O   UNL     1      66.619   6.725   9.611  1.00  0.00    -0.644 OA
ENDBRANCH   1  15
TORSDOF 4
ENDMDL
MODEL 4
REMARK VINA RESULT:      -5.5      2.004      2.894
REMARK  4 active torsions:
REMARK  status: ('A' for Active; 'I' for Inactive)
REMARK    1  A    between atoms: C_1  and  C_2 
REMARK    2  A    between atoms: O_5  and  C_8 
REMARK    3  A    between atoms: O_5  and  C_9 
REMARK    4  A    between atoms: C_7  and  C_8 
ROOT
HETATM    1  C   UNL     1      62.049   8.809   1.912  1.00  0.00     0.041 A 
HETATM    2  C   UNL     1      62.597   8.363   3.123  1.00  0.00     0.027 A 
HETATM    3  C   UNL     1      62.785   9.253   4.196  1.00  0.00    -0.033 A 
HETATM    4  C   UNL     1      61.706  10.156   1.760  1.00  0.00     0.018 A 
HETATM    5  C   UNL     1      61.880  11.044   2.823  1.00  0.00     0.002 A 
HETATM    6  C   UNL     1      62.417  10.595   4.033  1.00  0.00     0.009 A 
ENDROOT
BRANCH   3   7
HETATM    7  C   UNL     1      63.532   8.773   5.423  1.00  0.00     0.214 C 
BRANCH   7   8
HETATM    8  O   UNL     1      64.909   9.151   5.418  1.00  0.00    -0.347 OA
BRANCH   8   9
HETATM    9  C   UNL     1      65.805   8.115   5.525  1.00  0.00     0.069 A 
HETATM   10  C   UNL     1      66.546   7.789   6.665  1.00  0.00     0.037 A 
HETATM   11  C   UNL     1      67.413   6.691   6.659  1.00  0.00     0.003 A 
HETATM   12  C   UNL     1      67.552   5.917   5.510  1.00  0.00     0.000 A 
HETATM   13  C   UNL     1      66.828   6.245   4.366  1.00  0.00     0.003 A 
HETATM   14  C   UNL     1      65.961   7.341   4.373  1.00  0.00     0.037 A 
ENDBRANCH   8   9
ENDBRANCH   7   8
ENDBRANCH   3   7
BRANCH   1  15
HETATM   15  C   UNL     1      61.904   7.909   0.741  1.00  0.00     0.209 C 
HETATM   16  O   UNL     1      62.830   7.254   0.291  1.00  0.00    -0.644 OA
HETATM   17  O   UNL     1      60.666   7.899   0.206  1.00  0.00    -0.644 OA
ENDBRANCH   1  15
TORSDOF 4
ENDMDL
MODEL 5
REMARK VINA RESULT:      -5.3      3.327      5.406
REMARK  4 active torsions:
REMARK  status: ('A' for Active; 'I' for Inactive)
REMARK    1  A    between atoms: C_1  and  C_2 
REMARK    2  A    between atoms: O_5  and  C_8 
REMARK    3  A    between atoms: O_5  and  C_9 
REMARK    4  A    between atoms: C_7  and  C_8 
ROOT
HETATM    1  C   UNL     1      62.233  10.007   3.590  1.00  0.00     0.041 A 
HETATM    2  C   UNL     1      62.228   8.634   3.874  1.00  0.00     0.027 A 
HETATM    3  C   UNL     1      62.033   7.690   2.848  1.00  0.00    -0.033 A 
HETATM    4  C   UNL     1      62.021  10.445   2.280  1.00  0.00     0.018 A 
HETATM    5  C   UNL     1      61.837   9.516   1.255  1.00  0.00     0.002 A 
HETATM    6  C   UNL     1      61.842   8.147   1.538  1.00  0.00     0.009 A 
ENDROOT
BRANCH   3   7
HETATM    7  C   UNL     1      61.866   6.232   3.218  1.00  0.00     0.214 C 
BRANCH   7   8
HETATM    8  O   UNL     1      60.578   5.716   2.879  1.00  0.00    -0.347 OA
BRANCH   8   9
HETATM    9  C   UNL     1      59.551   6.105   3.705  1.00  0.00     0.069 A 
HETATM   10  C   UNL     1      59.419   5.774   5.057  1.00  0.00     0.037 A 
HETATM   11  C   UNL     1      58.336   6.251   5.802  1.00  0.00     0.003 A 
HETATM   12  C   UNL     1      57.373   7.055   5.199  1.00  0.00     0.000 A 
HETATM   13  C   UNL     1      57.490   7.376   3.848  1.00  0.00     0.003 A 
HETATM   14  C   UNL     1      58.572   6.901   3.104  1.00  0.00     0.037 A 
ENDBRANCH   8   9
ENDBRANCH   7   8
ENDBRANCH   3   7
BRANCH   1  15
HETATM   15  C   UNL     1      62.367  11.026   4.661  1.00  0.00     0.209 C 
HETATM   16  O   UNL     1      61.913  12.154   4.560  1.00  0.00    -0.644 OA
HETATM   17  O   UNL     1      63.053  10.601   5.741  1.00  0.00    -0.644 OA
ENDBRANCH   1  15
TORSDOF 4
ENDMDL
MODEL 6
REMARK VINA RESULT:      -5.3      1.973      2.764
REMARK  4 active torsions:
REMARK  status: ('A' for Active; 'I' for Inactive)
REMARK    1  A    between atoms: C_1  and  C_2 
REMARK    2  A    between atoms: O_5  and  C_8 
REMARK    3  A    between atoms: O_5  and  C_9 
REMARK    4  A    between atoms: C_7  and  C_8 
ROOT
HETATM    1  C   UNL     1      62.308   9.018   3.102  1.00  0.00     0.041 A 
HETATM    2  C   UNL     1      63.381   8.374   3.735  1.00  0.00     0.027 A 
HETATM    3  C   UNL     1      63.995   8.947   4.864  1.00  0.00    -0.033 A 
HETATM    4  C   UNL     1      61.857  10.250   3.582  1.00  0.00     0.018 A 
HETATM    5  C   UNL     1      62.454  10.821   4.708  1.00  0.00     0.002 A 
HETATM    6  C   UNL     1      63.517  10.173   5.343  1.00  0.00     0.009 A 
ENDROOT
BRANCH   3   7
HETATM    7  C   UNL     1      65.253   8.310   5.415  1.00  0.00     0.214 C 
BRANCH   7   8
HETATM    8  O   UNL     1      65.052   7.692   6.686  1.00  0.00    -0.347 OA
BRANCH   8   9
HETATM    9  C   UNL     1      66.015   6.786   7.061  1.00  0.00     0.069 A 
HETATM   10  C   UNL     1      66.368   6.463   8.375  1.00  0.00     0.037 A 
HETATM   11  C   UNL     1      67.352   5.503   8.630  1.00  0.00     0.003 A 
HETATM   12  C   UNL     1      67.997   4.865   7.574  1.00  0.00     0.000 A 
HETATM   13  C   UNL     1      67.661   5.192   6.262  1.00  0.00     0.003 A 
HETATM   14  C   UNL     1      66.676   6.150   6.007  1.00  0.00     0.037 A 
ENDBRANCH   8   9
ENDBRANCH   7   8
ENDBRANCH   3   7
BRANCH   1  15
HETATM   15  C   UNL     1      61.687   8.472   1.869  1.00  0.00     0.209 C 
HETATM   16  O   UNL     1      60.964   7.489   1.872  1.00  0.00    -0.644 OA
HETATM   17  O   UNL     1      62.010   9.145   0.747  1.00  0.00    -0.644 OA
ENDBRANCH   1  15
TORSDOF 4
ENDMDL
MODEL 7
REMARK VINA RESULT:      -5.2      2.151      6.557
REMARK  4 active torsions:
REMARK  status: ('A' for Active; 'I' for Inactive)
REMARK    1  A    between atoms: C_1  and  C_2 
REMARK    2  A    between atoms: O_5  and  C_8 
REMARK    3  A    between atoms: O_5  and  C_9 
REMARK    4  A    between atoms: C_7  and  C_8 
ROOT
HETATM    1  C   UNL     1      66.656   4.772   6.144  1.00  0.00     0.041 A 
HETATM    2  C   UNL     1      66.094   6.044   6.328  1.00  0.00     0.027 A 
HETATM    3  C   UNL     1      66.016   6.954   5.258  1.00  0.00    -0.033 A 
HETATM    4  C   UNL     1      67.162   4.412   4.892  1.00  0.00     0.018 A 
HETATM    5  C   UNL     1      67.079   5.305   3.823  1.00  0.00     0.002 A 
HETATM    6  C   UNL     1      66.510   6.568   4.005  1.00  0.00     0.009 A 
ENDROOT
BRANCH   3   7
HETATM    7  C   UNL     1      65.560   8.371   5.535  1.00  0.00     0.214 C 
BRANCH   7   8
HETATM    8  O   UNL     1      64.172   8.455   5.861  1.00  0.00    -0.347 OA
BRANCH   8   9
HETATM    9  C   UNL     1      63.418   9.251   5.032  1.00  0.00     0.069 A 
HETATM   10  C   UNL     1      62.984  10.549   5.318  1.00  0.00     0.037 A 
HETATM   11  C   UNL     1      62.239  11.271   4.381  1.00  0.00     0.003 A 
HETATM   12  C   UNL     1      61.916  10.698   3.154  1.00  0.00     0.000 A 
HETATM   13  C   UNL     1      62.333   9.399   2.868  1.00  0.00     0.003 A 
HETATM   14  C   UNL     1      63.078   8.679   3.804  1.00  0.00     0.037 A 
ENDBRANCH   8   9
ENDBRANCH   7   8
ENDBRANCH   3   7
BRANCH   1  15
HETATM   15  C   UNL     1      66.816   3.818   7.270  1.00  0.00     0.209 C 
HETATM   16  O   UNL     1      67.188   2.666   7.113  1.00  0.00    -0.644 OA
HETATM   17  O   UNL     1      66.492   4.330   8.474  1.00  0.00    -0.644 OA
ENDBRANCH   1  15
TORSDOF 4
ENDMDL
MODEL 8
REMARK VINA RESULT:      -4.9      2.073      6.041
REMARK  4 active torsions:
REMARK  status: ('A' for Active; 'I' for Inactive)
REMARK    1  A    between atoms: C_1  and  C_2 
REMARK    2  A    between atoms: O_5  and  C_8 
REMARK    3  A    between atoms: O_5  and  C_9 
REMARK    4  A    between atoms: C_7  and  C_8 
ROOT
HETATM    1  C   UNL     1      65.280   6.034   7.148  1.00  0.00     0.041 A 
HETATM    2  C   UNL     1      64.282   6.883   6.649  1.00  0.00     0.027 A 
HETATM    3  C   UNL     1      63.195   6.361   5.922  1.00  0.00    -0.033 A 
HETATM    4  C   UNL     1      65.209   4.659   6.905  1.00  0.00     0.018 A 
HETATM    5  C   UNL     1      64.129   4.132   6.194  1.00  0.00     0.002 A 
HETATM    6  C   UNL     1      63.129   4.979   5.705  1.00  0.00     0.009 A 
ENDROOT
BRANCH   3   7
HETATM    7  C   UNL     1      62.232   7.321   5.258  1.00  0.00     0.214 C 
BRANCH   7   8
HETATM    8  O   UNL     1      62.682   8.676   5.295  1.00  0.00    -0.347 OA
BRANCH   8   9
HETATM    9  C   UNL     1      62.391   9.425   4.181  1.00  0.00     0.069 A 
HETATM   10  C   UNL     1      62.111  10.795   4.166  1.00  0.00     0.037 A 
HETATM   11  C   UNL     1      61.851  11.454   2.961  1.00  0.00     0.003 A 
HETATM   12  C   UNL     1      61.860  10.747   1.762  1.00  0.00     0.000 A 
HETATM   13  C   UNL     1      62.123   9.378   1.770  1.00  0.00     0.003 A 
HETATM   14  C   UNL     1      62.384   8.720   2.974  1.00  0.00     0.037 A 
ENDBRANCH   8   9
ENDBRANCH   7   8
ENDBRANCH   3   7
BRANCH   1  15
HETATM   15  C   UNL     1      66.473   6.562   7.856  1.00  0.00     0.209 C 
HETATM   16  O   UNL     1      67.022   5.962   8.766  1.00  0.00    -0.644 OA
HETATM   17  O   UNL     1      66.880   7.772   7.421  1.00  0.00    -0.644 OA
ENDBRANCH   1  15
TORSDOF 4
ENDMDL
MODEL 9
REMARK VINA RESULT:      -4.9      3.273      6.158
REMARK  4 active torsions:
REMARK  status: ('A' for Active; 'I' for Inactive)
REMARK    1  A    between atoms: C_1  and  C_2 
REMARK    2  A    between atoms: O_5  and  C_8 
REMARK    3  A    between atoms: O_5  and  C_9 
REMARK    4  A    between atoms: C_7  and  C_8 
ROOT
HETATM    1  C   UNL     1      59.817   5.506   7.869  1.00  0.00     0.041 A 
HETATM    2  C   UNL     1      60.521   6.539   7.235  1.00  0.00     0.027 A 
HETATM    3  C   UNL     1      61.601   6.251   6.380  1.00  0.00    -0.033 A 
HETATM    4  C   UNL     1      60.203   4.178   7.668  1.00  0.00     0.018 A 
HETATM    5  C   UNL     1      61.266   3.882   6.814  1.00  0.00     0.002 A 
HETATM    6  C   UNL     1      61.961   4.913   6.175  1.00  0.00     0.009 A 
ENDROOT
BRANCH   3   7
HETATM    7  C   UNL     1      62.440   7.395   5.850  1.00  0.00     0.214 C 
BRANCH   7   8
HETATM    8  O   UNL     1      62.912   7.169   4.521  1.00  0.00    -0.347 OA
BRANCH   8   9
HETATM    9  C   UNL     1      62.589   8.143   3.607  1.00  0.00     0.069 A 
HETATM   10  C   UNL     1      62.491   7.966   2.224  1.00  0.00     0.037 A 
HETATM   11  C   UNL     1      62.130   9.033   1.395  1.00  0.00     0.003 A 
HETATM   12  C   UNL     1      61.872  10.287   1.943  1.00  0.00     0.000 A 
HETATM   13  C   UNL     1      61.982  10.474   3.320  1.00  0.00     0.003 A 
HETATM   14  C   UNL     1      62.341   9.407   4.147  1.00  0.00     0.037 A 
ENDBRANCH   8   9
ENDBRANCH   7   8
ENDBRANCH   3   7
BRANCH   1  15
HETATM   15  C   UNL     1      58.720   5.783   8.830  1.00  0.00     0.209 C 
HETATM   16  O   UNL     1      58.506   6.893   9.289  1.00  0.00    -0.644 OA
HETATM   17  O   UNL     1      57.996   4.696   9.166  1.00  0.00    -0.644 OA
ENDBRANCH   1  15
TORSDOF 4
ENDMDL
