MODEL 1
REMARK VINA RESULT:      -5.7      0.000      0.000
REMARK  3 active torsions:
REMARK  status: ('A' for Active; 'I' for Inactive)
REMARK    1  A    between atoms: C_3  and  C_7 
REMARK    2  A    between atoms: C_6  and  C_8 
REMARK    3  A    between atoms: C_8  and  N_9 
ROOT
HETATM    1  N   UNL     1      62.898   8.036   6.212  1.00  0.00    -0.260 N 
ATOM      2  HN  UNL     1      61.916   8.212   6.428  1.00  0.00     0.195 HD
HETATM    3  C   UNL     1      63.564   8.429   5.113  1.00  0.00     0.067 A 
HETATM    4  C   UNL     1      64.910   7.984   5.172  1.00  0.00     0.069 A 
HETATM    5  O   UNL     1      63.805   7.347   6.993  1.00  0.00    -0.240 OA
HETATM    6  C   UNL     1      65.010   7.312   6.364  1.00  0.00     0.104 A 
ENDROOT
BRANCH   3   7
HETATM    7  C   UNL     1      62.922   9.196   4.047  1.00  0.00    -0.007 A 
HETATM    8  C   UNL     1      62.466  10.502   4.283  1.00  0.00     0.014 A 
HETATM    9  C   UNL     1      61.865  11.240   3.260  1.00  0.00     0.001 A 
HETATM   10  C   UNL     1      61.715  10.683   1.992  1.00  0.00     0.000 A 
HETATM   11  C   UNL     1      62.160   9.387   1.745  1.00  0.00     0.001 A 
HETATM   12  C   UNL     1      62.757   8.644   2.768  1.00  0.00     0.014 A 
ENDBRANCH   3   7
BRANCH   6  13
HETATM   13  C   UNL     1      66.105   6.596   7.054  1.00  0.00     0.296 C 
BRANCH  13  14
HETATM   14  N   UNL     1      67.073   7.541   7.605  1.00  0.00    -0.073 N 
HETATM   15  H   UNL     1      67.573   7.104   8.378  1.00  0.00     0.274 HD
HETATM   16  H   UNL     1      66.583   8.370   7.942  1.00  0.00     0.274 HD
HETATM   17  H   UNL     1      67.737   7.811   6.879  1.00  0.00     0.274 HD
ENDBRANCH  13  14
ENDBRANCH   6  13
TORSDOF 3
ENDMDL
MODEL 2
REMARK VINA RESULT:      -5.7      0.035      1.339
REMARK  3 active torsions:
REMARK  status: ('A' for Active; 'I' for Inactive)
REMARK    1  A    between atoms: C_3  and  C_7 
REMARK    2  A    between atoms: C_6  and  C_8 
REMARK    3  A    between atoms: C_8  and  N_9 
ROOT
HETATM    1  N   UNL     1      62.889   8.034   6.215  1.00  0.00    -0.260 N 
ATOM      2  HN  UNL     1      61.910   8.223   6.429  1.00  0.00     0.195 HD
HETATM    3  C   UNL     1      63.563   8.419   5.117  1.00  0.00     0.067 A 
HETATM    4  C   UNL     1      64.903   7.955   5.178  1.00  0.00     0.069 A 
HETATM    5  O   UNL     1      63.786   7.330   6.996  1.00  0.00    -0.240 OA
HETATM    6  C   UNL     1      64.991   7.280   6.369  1.00  0.00     0.104 A 
ENDROOT
BRANCH   3   7
HETATM    7  C   UNL     1      62.934   9.197   4.051  1.00  0.00    -0.007 A 
HETATM    8  C   UNL     1      62.758   8.645   2.774  1.00  0.00     0.014 A 
HETATM    9  C   UNL     1      62.143   9.383   1.759  1.00  0.00     0.001 A 
HETATM   10  C   UNL     1      61.696  10.678   2.010  1.00  0.00     0.000 A 
HETATM   11  C   UNL     1      61.868  11.240   3.273  1.00  0.00     0.001 A 
HETATM   12  C   UNL     1      62.487  10.506   4.289  1.00  0.00     0.014 A 
ENDBRANCH   3   7
BRANCH   6  13
HETATM   13  C   UNL     1      66.075   6.547   7.059  1.00  0.00     0.296 C 
BRANCH  13  14
HETATM   14  N   UNL     1      67.035   7.479   7.646  1.00  0.00    -0.073 N 
HETATM   15  H   UNL     1      66.756   8.435   7.432  1.00  0.00     0.274 HD
HETATM   16  H   UNL     1      67.962   7.300   7.260  1.00  0.00     0.274 HD
HETATM   17  H   UNL     1      67.058   7.351   8.659  1.00  0.00     0.274 HD
ENDBRANCH  13  14
ENDBRANCH   6  13
TORSDOF 3
ENDMDL
MODEL 3
REMARK VINA RESULT:      -4.8      2.115      5.589
REMARK  3 active torsions:
REMARK  status: ('A' for Active; 'I' for Inactive)
REMARK    1  A    between atoms: C_3  and  C_7 
REMARK    2  A    between atoms: C_6  and  C_8 
REMARK    3  A    between atoms: C_8  and  N_9 
ROOT
HETATM    1  N   UNL     1      64.022   9.716   5.682  1.00  0.00    -0.260 N 
ATOM      2  HN  UNL     1      64.414  10.142   6.521  1.00  0.00     0.195 HD
HETATM    3  C   UNL     1      64.431   8.581   5.087  1.00  0.00     0.067 A 
HETATM    4  C   UNL     1      63.643   8.321   3.936  1.00  0.00     0.069 A 
HETATM    5  O   UNL     1      62.964  10.190   4.930  1.00  0.00    -0.240 OA
HETATM    6  C   UNL     1      62.743   9.356   3.880  1.00  0.00     0.104 A 
ENDROOT
BRANCH   3   7
HETATM    7  C   UNL     1      65.542   7.788   5.608  1.00  0.00    -0.007 A 
HETATM    8  C   UNL     1      66.810   7.855   5.010  1.00  0.00     0.014 A 
HETATM    9  C   UNL     1      67.876   7.108   5.516  1.00  0.00     0.001 A 
HETATM   10  C   UNL     1      67.688   6.287   6.626  1.00  0.00     0.000 A 
HETATM   11  C   UNL     1      66.435   6.207   7.227  1.00  0.00     0.001 A 
HETATM   12  C   UNL     1      65.365   6.951   6.720  1.00  0.00     0.014 A 
ENDBRANCH   3   7
BRANCH   6  13
HETATM   13  C   UNL     1      61.649   9.720   2.954  1.00  0.00     0.296 C 
BRANCH  13  14
HETATM   14  N   UNL     1      61.606  11.166   2.751  1.00  0.00    -0.073 N 
HETATM   15  H   UNL     1      62.079  11.633   3.523  1.00  0.00     0.274 HD
HETATM   16  H   UNL     1      60.634  11.474   2.712  1.00  0.00     0.274 HD
HETATM   17  H   UNL     1      62.072  11.401   1.874  1.00  0.00     0.274 HD
ENDBRANCH  13  14
ENDBRANCH   6  13
TORSDOF 3
ENDMDL
MODEL 4
REMARK VINA RESULT:      -4.5      1.500      1.991
REMARK  3 active torsions:
REMARK  status: ('A' for Active; 'I' for Inactive)
REMARK    1  A    between atoms: C_3  and  C_7 
REMARK    2  A    between atoms: C_6  and  C_8 
REMARK    3  A    between atoms: C_8  and  N_9 
ROOT
HETATM    1  N   UNL     1      64.000   6.690   3.573  1.00  0.00    -0.260 N 
ATOM      2  HN  UNL     1      63.961   6.516   2.568  1.00  0.00     0.195 HD
HETATM    3  C   UNL     1      63.542   7.775   4.221  1.00  0.00     0.067 A 
HETATM    4  C   UNL     1      63.789   7.653   5.613  1.00  0.00     0.069 A 
HETATM    5  O   UNL     1      64.534   5.856   4.536  1.00  0.00    -0.240 OA
HETATM    6  C   UNL     1      64.411   6.439   5.758  1.00  0.00     0.104 A 
ENDROOT
BRANCH   3   7
HETATM    7  C   UNL     1      62.900   8.886   3.521  1.00  0.00    -0.007 A 
HETATM    8  C   UNL     1      62.579   8.781   2.159  1.00  0.00     0.014 A 
HETATM    9  C   UNL     1      61.952   9.837   1.493  1.00  0.00     0.001 A 
HETATM   10  C   UNL     1      61.638  11.008   2.180  1.00  0.00     0.000 A 
HETATM   11  C   UNL     1      61.954  11.127   3.531  1.00  0.00     0.001 A 
HETATM   12  C   UNL     1      62.586  10.073   4.199  1.00  0.00     0.014 A 
ENDBRANCH   3   7
BRANCH   6  13
HETATM   13  C   UNL     1      64.948   5.688   6.915  1.00  0.00     0.296 C 
BRANCH  13  14
HETATM   14  N   UNL     1      65.728   6.568   7.782  1.00  0.00    -0.073 N 
HETATM   15  H   UNL     1      66.315   6.006   8.397  1.00  0.00     0.274 HD
HETATM   16  H   UNL     1      65.096   7.139   8.344  1.00  0.00     0.274 HD
HETATM   17  H   UNL     1      66.317   7.175   7.211  1.00  0.00     0.274 HD
ENDBRANCH  13  14
ENDBRANCH   6  13
TORSDOF 3
ENDMDL
MODEL 5
REMARK VINA RESULT:      -4.3      1.556      1.756
REMARK  3 active torsions:
REMARK  status: ('A' for Active; 'I' for Inactive)
REMARK    1  A    between atoms: C_3  and  C_7 
REMARK    2  A    between atoms: C_6  and  C_8 
REMARK    3  A    between atoms: C_8  and  N_9 
ROOT
HETATM    1  N   UNL     1      64.443   6.301   4.115  1.00  0.00    -0.260 N 
ATOM      2  HN  UNL     1      64.118   5.545   3.513  1.00  0.00     0.195 HD
HETATM    3  C   UNL     1      64.098   7.598   4.038  1.00  0.00     0.067 A 
HETATM    4  C   UNL     1      64.769   8.343   5.042  1.00  0.00     0.069 A 
HETATM    5  O   UNL     1      65.327   6.196   5.171  1.00  0.00    -0.240 OA
HETATM    6  C   UNL     1      65.526   7.422   5.721  1.00  0.00     0.104 A 
ENDROOT
BRANCH   3   7
HETATM    7  C   UNL     1      63.164   8.095   3.029  1.00  0.00    -0.007 A 
HETATM    8  C   UNL     1      62.590   9.370   3.154  1.00  0.00     0.014 A 
HETATM    9  C   UNL     1      61.708   9.851   2.183  1.00  0.00     0.001 A 
HETATM   10  C   UNL     1      61.393   9.065   1.076  1.00  0.00     0.000 A 
HETATM   11  C   UNL     1      61.952   7.797   0.942  1.00  0.00     0.001 A 
HETATM   12  C   UNL     1      62.831   7.311   1.914  1.00  0.00     0.014 A 
ENDBRANCH   3   7
BRANCH   6  13
HETATM   13  C   UNL     1      66.462   7.501   6.863  1.00  0.00     0.296 C 
BRANCH  13  14
HETATM   14  N   UNL     1      67.846   7.497   6.396  1.00  0.00    -0.073 N 
HETATM   15  H   UNL     1      67.876   7.202   5.421  1.00  0.00     0.274 HD
HETATM   16  H   UNL     1      68.395   6.851   6.964  1.00  0.00     0.274 HD
HETATM   17  H   UNL     1      68.236   8.437   6.479  1.00  0.00     0.274 HD
ENDBRANCH  13  14
ENDBRANCH   6  13
TORSDOF 3
ENDMDL
MODEL 6
REMARK VINA RESULT:      -4.0     12.435     13.976
REMARK  3 active torsions:
REMARK  status: ('A' for Active; 'I' for Inactive)
REMARK    1  A    between atoms: C_3  and  C_7 
REMARK    2  A    between atoms: C_6  and  C_8 
REMARK    3  A    between atoms: C_8  and  N_9 
ROOT
HETATM    1  N   UNL     1      55.430   2.760  11.861  1.00  0.00    -0.260 N 
ATOM      2  HN  UNL     1      55.778   2.426  10.961  1.00  0.00     0.195 HD
HETATM    3  C   UNL     1      55.914   2.451  13.076  1.00  0.00     0.067 A 
HETATM    4  C   UNL     1      55.157   3.104  14.084  1.00  0.00     0.069 A 
HETATM    5  O   UNL     1      54.369   3.620  12.070  1.00  0.00    -0.240 OA
HETATM    6  C   UNL     1      54.203   3.819  13.404  1.00  0.00     0.104 A 
ENDROOT
BRANCH   3   7
HETATM    7  C   UNL     1      57.055   1.555  13.254  1.00  0.00    -0.007 A 
HETATM    8  C   UNL     1      56.859   0.208  13.594  1.00  0.00     0.014 A 
HETATM    9  C   UNL     1      57.949  -0.652  13.750  1.00  0.00     0.001 A 
HETATM   10  C   UNL     1      59.246  -0.175  13.567  1.00  0.00     0.000 A 
HETATM   11  C   UNL     1      59.455   1.160  13.234  1.00  0.00     0.001 A 
HETATM   12  C   UNL     1      58.366   2.024  13.081  1.00  0.00     0.014 A 
ENDBRANCH   3   7
BRANCH   6  13
HETATM   13  C   UNL     1      53.094   4.707  13.816  1.00  0.00     0.296 C 
BRANCH  13  14
HETATM   14  N   UNL     1      53.540   5.645  14.843  1.00  0.00    -0.073 N 
HETATM   15  H   UNL     1      54.422   5.323  15.240  1.00  0.00     0.274 HD
HETATM   16  H   UNL     1      52.836   5.702  15.580  1.00  0.00     0.274 HD
HETATM   17  H   UNL     1      53.671   6.568  14.427  1.00  0.00     0.274 HD
ENDBRANCH  13  14
ENDBRANCH   6  13
TORSDOF 3
ENDMDL
MODEL 7
REMARK VINA RESULT:      -3.9     11.913     13.620
REMARK  3 active torsions:
REMARK  status: ('A' for Active; 'I' for Inactive)
REMARK    1  A    between atoms: C_3  and  C_7 
REMARK    2  A    between atoms: C_6  and  C_8 
REMARK    3  A    between atoms: C_8  and  N_9 
ROOT
HETATM    1  N   UNL     1      57.872   2.341  11.984  1.00  0.00    -0.260 N 
ATOM      2  HN  UNL     1      58.534   2.485  11.221  1.00  0.00     0.195 HD
HETATM    3  C   UNL     1      57.923   1.382  12.925  1.00  0.00     0.067 A 
HETATM    4  C   UNL     1      56.817   1.503  13.806  1.00  0.00     0.069 A 
HETATM    5  O   UNL     1      56.745   3.092  12.254  1.00  0.00    -0.240 OA
HETATM    6  C   UNL     1      56.111   2.584  13.343  1.00  0.00     0.104 A 
ENDROOT
BRANCH   3   7
HETATM    7  C   UNL     1      58.993   0.387  12.964  1.00  0.00    -0.007 A 
HETATM    8  C   UNL     1      60.187   0.595  12.256  1.00  0.00     0.014 A 
HETATM    9  C   UNL     1      61.215  -0.349  12.305  1.00  0.00     0.001 A 
HETATM   10  C   UNL     1      61.064  -1.509  13.062  1.00  0.00     0.000 A 
HETATM   11  C   UNL     1      59.883  -1.729  13.767  1.00  0.00     0.001 A 
HETATM   12  C   UNL     1      58.850  -0.789  13.716  1.00  0.00     0.014 A 
ENDBRANCH   3   7
BRANCH   6  13
HETATM   13  C   UNL     1      54.866   3.260  13.770  1.00  0.00     0.296 C 
BRANCH  13  14
HETATM   14  N   UNL     1      54.228   2.524  14.859  1.00  0.00    -0.073 N 
HETATM   15  H   UNL     1      54.906   1.897  15.290  1.00  0.00     0.274 HD
HETATM   16  H   UNL     1      53.448   1.980  14.489  1.00  0.00     0.274 HD
HETATM   17  H   UNL     1      53.881   3.183  15.557  1.00  0.00     0.274 HD
ENDBRANCH  13  14
ENDBRANCH   6  13
TORSDOF 3
ENDMDL
MODEL 8
REMARK VINA RESULT:      -3.9      2.708      3.107
REMARK  3 active torsions:
REMARK  status: ('A' for Active; 'I' for Inactive)
REMARK    1  A    between atoms: C_3  and  C_7 
REMARK    2  A    between atoms: C_6  and  C_8 
REMARK    3  A    between atoms: C_8  and  N_9 
ROOT
HETATM    1  N   UNL     1      60.861   6.417   3.655  1.00  0.00    -0.260 N 
ATOM      2  HN  UNL     1      60.255   6.428   2.834  1.00  0.00     0.195 HD
HETATM    3  C   UNL     1      61.670   7.406   4.073  1.00  0.00     0.067 A 
HETATM    4  C   UNL     1      62.360   7.010   5.248  1.00  0.00     0.069 A 
HETATM    5  O   UNL     1      61.012   5.383   4.558  1.00  0.00    -0.240 OA
HETATM    6  C   UNL     1      61.916   5.738   5.508  1.00  0.00     0.104 A 
ENDROOT
BRANCH   3   7
HETATM    7  C   UNL     1      61.775   8.678   3.360  1.00  0.00    -0.007 A 
HETATM    8  C   UNL     1      61.816   8.709   1.958  1.00  0.00     0.014 A 
HETATM    9  C   UNL     1      61.902   9.925   1.276  1.00  0.00     0.001 A 
HETATM   10  C   UNL     1      61.946  11.123   1.986  1.00  0.00     0.000 A 
HETATM   11  C   UNL     1      61.909  11.107   3.378  1.00  0.00     0.001 A 
HETATM   12  C   UNL     1      61.828   9.891   4.064  1.00  0.00     0.014 A 
ENDBRANCH   3   7
BRANCH   6  13
HETATM   13  C   UNL     1      62.216   4.737   6.555  1.00  0.00     0.296 C 
BRANCH  13  14
HETATM   14  N   UNL     1      63.632   4.379   6.535  1.00  0.00    -0.073 N 
HETATM   15  H   UNL     1      63.812   3.660   7.235  1.00  0.00     0.274 HD
HETATM   16  H   UNL     1      64.195   5.205   6.742  1.00  0.00     0.274 HD
HETATM   17  H   UNL     1      63.880   4.022   5.611  1.00  0.00     0.274 HD
ENDBRANCH  13  14
ENDBRANCH   6  13
TORSDOF 3
ENDMDL
MODEL 9
REMARK VINA RESULT:      -3.8      2.635      5.739
REMARK  3 active torsions:
REMARK  status: ('A' for Active; 'I' for Inactive)
REMARK    1  A    between atoms: C_3  and  C_7 
REMARK    2  A    between atoms: C_6  and  C_8 
REMARK    3  A    between atoms: C_8  and  N_9 
ROOT
HETATM    1  N   UNL     1      64.250   6.539   2.892  1.00  0.00    -0.260 N 
ATOM      2  HN  UNL     1      64.711   5.678   2.596  1.00  0.00     0.195 HD
HETATM    3  C   UNL     1      64.559   7.292   3.962  1.00  0.00     0.067 A 
HETATM    4  C   UNL     1      63.683   8.405   4.045  1.00  0.00     0.069 A 
HETATM    5  O   UNL     1      63.184   7.161   2.271  1.00  0.00    -0.240 OA
HETATM    6  C   UNL     1      62.842   8.277   2.968  1.00  0.00     0.104 A 
ENDROOT
BRANCH   3   7
HETATM    7  C   UNL     1      65.652   6.944   4.868  1.00  0.00    -0.007 A 
HETATM    8  C   UNL     1      65.448   6.029   5.913  1.00  0.00     0.014 A 
HETATM    9  C   UNL     1      66.495   5.685   6.771  1.00  0.00     0.001 A 
HETATM   10  C   UNL     1      67.757   6.249   6.594  1.00  0.00     0.000 A 
HETATM   11  C   UNL     1      67.972   7.160   5.563  1.00  0.00     0.001 A 
HETATM   12  C   UNL     1      66.925   7.510   4.706  1.00  0.00     0.014 A 
ENDBRANCH   3   7
BRANCH   6  13
HETATM   13  C   UNL     1      61.702   9.065   2.453  1.00  0.00     0.296 C 
BRANCH  13  14
HETATM   14  N   UNL     1      61.168   9.940   3.494  1.00  0.00    -0.073 N 
HETATM   15  H   UNL     1      61.937  10.378   3.998  1.00  0.00     0.274 HD
HETATM   16  H   UNL     1      60.604   9.390   4.143  1.00  0.00     0.274 HD
HETATM   17  H   UNL     1      60.586  10.662   3.067  1.00  0.00     0.274 HD
ENDBRANCH  13  14
ENDBRANCH   6  13
TORSDOF 3
ENDMDL
