MODEL 1
REMARK VINA RESULT:      -4.6      0.000      0.000
REMARK  1 active torsions:
REMARK  status: ('A' for Active; 'I' for Inactive)
REMARK    1  A    between atoms: C_2  and  C_8 
ROOT
HETATM    1  C   UNL     1      61.357   8.871   2.709  1.00  0.00     0.147 A 
HETATM    2  C   UNL     1      62.563  10.100   4.445  1.00  0.00     0.100 A 
HETATM    3  S   UNL     1      62.249   8.450   4.134  1.00  0.00    -0.046 SA
HETATM    4  N   UNL     1      61.268  10.169   2.504  1.00  0.00    -0.345 N 
ATOM      5  HN  UNL     1      60.774  10.599   1.723  1.00  0.00     0.167 HD
HETATM    6  C   UNL     1      61.936  10.868   3.489  1.00  0.00     0.116 A 
HETATM    7  N   UNL     1      60.822   7.942   1.876  1.00  0.00    -0.361 N 
HETATM    8  C   UNL     1      60.086   8.338   0.685  1.00  0.00     0.125 C 
HETATM    9  C   UNL     1      60.537   6.570   2.265  1.00  0.00     0.125 C 
HETATM   10  C   UNL     1      59.742   6.009   1.088  1.00  0.00     0.021 C 
HETATM   11  C   UNL     1      59.047   7.233   0.514  1.00  0.00     0.021 C 
ENDROOT
BRANCH   2  12
HETATM   12  C   UNL     1      63.377  10.494   5.558  1.00  0.00     0.218 C 
HETATM   13  O   UNL     1      63.169  11.365   6.389  1.00  0.00    -0.643 OA
HETATM   14  O   UNL     1      64.496   9.740   5.648  1.00  0.00    -0.643 OA
ENDBRANCH   2  12
TORSDOF 1
ENDMDL
MODEL 2
REMARK VINA RESULT:      -4.5      3.132      3.896
REMARK  1 active torsions:
REMARK  status: ('A' for Active; 'I' for Inactive)
REMARK    1  A    between atoms: C_2  and  C_8 
ROOT
HETATM    1  C   UNL     1      63.963   7.718   3.563  1.00  0.00     0.147 A 
HETATM    2  C   UNL     1      65.575   7.513   5.391  1.00  0.00     0.100 A 
HETATM    3  S   UNL     1      64.334   8.619   4.996  1.00  0.00    -0.046 SA
HETATM    4  N   UNL     1      64.748   6.678   3.374  1.00  0.00    -0.345 N 
ATOM      5  HN  UNL     1      64.684   6.041   2.580  1.00  0.00     0.167 HD
HETATM    6  C   UNL     1      65.669   6.566   4.396  1.00  0.00     0.116 A 
HETATM    7  N   UNL     1      62.943   8.049   2.731  1.00  0.00    -0.361 N 
HETATM    8  C   UNL     1      62.660   7.261   1.541  1.00  0.00     0.125 C 
HETATM    9  C   UNL     1      62.343   9.373   2.667  1.00  0.00     0.125 C 
HETATM   10  C   UNL     1      61.430   9.307   1.444  1.00  0.00     0.021 C 
HETATM   11  C   UNL     1      62.110   8.282   0.550  1.00  0.00     0.021 C 
ENDROOT
BRANCH   2  12
HETATM   12  C   UNL     1      66.325   7.655   6.604  1.00  0.00     0.218 C 
HETATM   13  O   UNL     1      66.723   6.786   7.365  1.00  0.00    -0.643 OA
HETATM   14  O   UNL     1      66.613   8.951   6.864  1.00  0.00    -0.643 OA
ENDBRANCH   2  12
TORSDOF 1
ENDMDL
MODEL 3
REMARK VINA RESULT:      -4.4      4.281      5.833
REMARK  1 active torsions:
REMARK  status: ('A' for Active; 'I' for Inactive)
REMARK    1  A    between atoms: C_2  and  C_8 
ROOT
HETATM    1  C   UNL     1      64.755   7.904   5.208  1.00  0.00     0.147 A 
HETATM    2  C   UNL     1      62.971   9.213   4.166  1.00  0.00     0.100 A 
HETATM    3  S   UNL     1      63.698   7.700   3.850  1.00  0.00    -0.046 SA
HETATM    4  N   UNL     1      64.597   9.053   5.832  1.00  0.00    -0.345 N 
ATOM      5  HN  UNL     1      65.138   9.349   6.645  1.00  0.00     0.167 HD
HETATM    6  C   UNL     1      63.601   9.802   5.240  1.00  0.00     0.116 A 
HETATM    7  N   UNL     1      65.643   6.954   5.598  1.00  0.00    -0.361 N 
HETATM    8  C   UNL     1      66.507   7.163   6.749  1.00  0.00     0.125 C 
HETATM    9  C   UNL     1      66.133   5.896   4.729  1.00  0.00     0.125 C 
HETATM   10  C   UNL     1      67.262   5.251   5.532  1.00  0.00     0.021 C 
HETATM   11  C   UNL     1      67.775   6.390   6.398  1.00  0.00     0.021 C 
ENDROOT
BRANCH   2  12
HETATM   12  C   UNL     1      61.875   9.680   3.368  1.00  0.00     0.218 C 
HETATM   13  O   UNL     1      61.241   9.082   2.512  1.00  0.00    -0.643 OA
HETATM   14  O   UNL     1      61.541  10.954   3.677  1.00  0.00    -0.643 OA
ENDBRANCH   2  12
TORSDOF 1
ENDMDL
MODEL 4
REMARK VINA RESULT:      -4.3      3.526      4.626
REMARK  1 active torsions:
REMARK  status: ('A' for Active; 'I' for Inactive)
REMARK    1  A    between atoms: C_2  and  C_8 
ROOT
HETATM    1  C   UNL     1      63.513   7.783   4.417  1.00  0.00     0.147 A 
HETATM    2  C   UNL     1      62.499   9.889   3.698  1.00  0.00     0.100 A 
HETATM    3  S   UNL     1      63.320   9.364   5.100  1.00  0.00    -0.046 SA
HETATM    4  N   UNL     1      62.960   7.650   3.229  1.00  0.00    -0.345 N 
ATOM      5  HN  UNL     1      62.966   6.789   2.681  1.00  0.00     0.167 HD
HETATM    6  C   UNL     1      62.374   8.832   2.824  1.00  0.00     0.116 A 
HETATM    7  N   UNL     1      64.191   6.789   5.044  1.00  0.00    -0.361 N 
HETATM    8  C   UNL     1      64.336   5.477   4.431  1.00  0.00     0.125 C 
HETATM    9  C   UNL     1      64.442   6.755   6.476  1.00  0.00     0.125 C 
HETATM   10  C   UNL     1      65.010   5.358   6.720  1.00  0.00     0.021 C 
HETATM   11  C   UNL     1      64.376   4.521   5.620  1.00  0.00     0.021 C 
ENDROOT
BRANCH   2  12
HETATM   12  C   UNL     1      62.065  11.249   3.569  1.00  0.00     0.218 C 
HETATM   13  O   UNL     1      61.811  12.059   4.448  1.00  0.00    -0.643 OA
HETATM   14  O   UNL     1      61.970  11.622   2.272  1.00  0.00    -0.643 OA
ENDBRANCH   2  12
TORSDOF 1
ENDMDL
MODEL 5
REMARK VINA RESULT:      -4.3      4.548      5.484
REMARK  1 active torsions:
REMARK  status: ('A' for Active; 'I' for Inactive)
REMARK    1  A    between atoms: C_2  and  C_8 
ROOT
HETATM    1  C   UNL     1      64.662   7.443   5.889  1.00  0.00     0.147 A 
HETATM    2  C   UNL     1      66.279   6.610   7.525  1.00  0.00     0.100 A 
HETATM    3  S   UNL     1      64.786   6.049   6.912  1.00  0.00    -0.046 SA
HETATM    4  N   UNL     1      65.659   8.292   6.030  1.00  0.00    -0.345 N 
ATOM      5  HN  UNL     1      65.747   9.170   5.518  1.00  0.00     0.167 HD
HETATM    6  C   UNL     1      66.567   7.833   6.962  1.00  0.00     0.116 A 
HETATM    7  N   UNL     1      63.641   7.622   5.013  1.00  0.00    -0.361 N 
HETATM    8  C   UNL     1      63.579   8.804   4.166  1.00  0.00     0.125 C 
HETATM    9  C   UNL     1      62.353   6.956   5.118  1.00  0.00     0.125 C 
HETATM   10  C   UNL     1      61.488   7.652   4.070  1.00  0.00     0.021 C 
HETATM   11  C   UNL     1      62.083   9.049   3.992  1.00  0.00     0.021 C 
ENDROOT
BRANCH   2  12
HETATM   12  C   UNL     1      67.024   5.829   8.468  1.00  0.00     0.218 C 
HETATM   13  O   UNL     1      68.075   6.101   9.028  1.00  0.00    -0.643 OA
HETATM   14  O   UNL     1      66.407   4.657   8.743  1.00  0.00    -0.643 OA
ENDBRANCH   2  12
TORSDOF 1
ENDMDL
MODEL 6
REMARK VINA RESULT:      -4.2      4.100      5.243
REMARK  1 active torsions:
REMARK  status: ('A' for Active; 'I' for Inactive)
REMARK    1  A    between atoms: C_2  and  C_8 
ROOT
HETATM    1  C   UNL     1      64.569   7.971   4.798  1.00  0.00     0.147 A 
HETATM    2  C   UNL     1      66.273   6.418   5.613  1.00  0.00     0.100 A 
HETATM    3  S   UNL     1      65.440   6.626   4.137  1.00  0.00    -0.046 SA
HETATM    4  N   UNL     1      64.859   8.220   6.058  1.00  0.00    -0.345 N 
ATOM      5  HN  UNL     1      64.437   8.965   6.613  1.00  0.00     0.167 HD
HETATM    6  C   UNL     1      65.810   7.337   6.528  1.00  0.00     0.116 A 
HETATM    7  N   UNL     1      63.691   8.707   4.071  1.00  0.00    -0.361 N 
HETATM    8  C   UNL     1      62.986   9.833   4.663  1.00  0.00     0.125 C 
HETATM    9  C   UNL     1      63.046   8.234   2.856  1.00  0.00     0.125 C 
HETATM   10  C   UNL     1      61.995   9.301   2.555  1.00  0.00     0.021 C 
HETATM   11  C   UNL     1      61.648   9.853   3.928  1.00  0.00     0.021 C 
ENDROOT
BRANCH   2  12
HETATM   12  C   UNL     1      67.284   5.410   5.748  1.00  0.00     0.218 C 
HETATM   13  O   UNL     1      67.531   4.468   5.009  1.00  0.00    -0.643 OA
HETATM   14  O   UNL     1      68.040   5.606   6.852  1.00  0.00    -0.643 OA
ENDBRANCH   2  12
TORSDOF 1
ENDMDL
MODEL 7
REMARK VINA RESULT:      -4.0      1.666      2.377
REMARK  1 active torsions:
REMARK  status: ('A' for Active; 'I' for Inactive)
REMARK    1  A    between atoms: C_2  and  C_8 
ROOT
HETATM    1  C   UNL     1      61.316   7.892   3.506  1.00  0.00     0.147 A 
HETATM    2  C   UNL     1      63.367   8.393   4.741  1.00  0.00     0.100 A 
HETATM    3  S   UNL     1      62.724   8.864   3.230  1.00  0.00    -0.046 SA
HETATM    4  N   UNL     1      61.348   7.227   4.643  1.00  0.00    -0.345 N 
ATOM      5  HN  UNL     1      60.612   6.598   4.966  1.00  0.00     0.167 HD
HETATM    6  C   UNL     1      62.509   7.496   5.337  1.00  0.00     0.116 A 
HETATM    7  N   UNL     1      60.274   7.844   2.638  1.00  0.00    -0.361 N 
HETATM    8  C   UNL     1      59.107   7.020   2.912  1.00  0.00     0.125 C 
HETATM    9  C   UNL     1      60.370   8.208   1.233  1.00  0.00     0.125 C 
HETATM   10  C   UNL     1      59.033   7.765   0.643  1.00  0.00     0.021 C 
HETATM   11  C   UNL     1      58.626   6.596   1.527  1.00  0.00     0.021 C 
ENDROOT
BRANCH   2  12
HETATM   12  C   UNL     1      64.612   8.930   5.207  1.00  0.00     0.218 C 
HETATM   13  O   UNL     1      65.740   8.483   5.064  1.00  0.00    -0.643 OA
HETATM   14  O   UNL     1      64.437  10.099   5.863  1.00  0.00    -0.643 OA
ENDBRANCH   2  12
TORSDOF 1
ENDMDL
MODEL 8
REMARK VINA RESULT:      -4.0      5.305      6.447
REMARK  1 active torsions:
REMARK  status: ('A' for Active; 'I' for Inactive)
REMARK    1  A    between atoms: C_2  and  C_8 
ROOT
HETATM    1  C   UNL     1      64.691   6.507   6.438  1.00  0.00     0.147 A 
HETATM    2  C   UNL     1      66.325   5.364   7.854  1.00  0.00     0.100 A 
HETATM    3  S   UNL     1      66.164   6.948   7.236  1.00  0.00    -0.046 SA
HETATM    4  N   UNL     1      64.364   5.241   6.594  1.00  0.00    -0.345 N 
ATOM      5  HN  UNL     1      63.537   4.803   6.188  1.00  0.00     0.167 HD
HETATM    6  C   UNL     1      65.290   4.588   7.381  1.00  0.00     0.116 A 
HETATM    7  N   UNL     1      63.939   7.395   5.738  1.00  0.00    -0.361 N 
HETATM    8  C   UNL     1      62.704   6.985   5.089  1.00  0.00     0.125 C 
HETATM    9  C   UNL     1      64.451   8.647   5.202  1.00  0.00     0.125 C 
HETATM   10  C   UNL     1      63.318   9.160   4.315  1.00  0.00     0.021 C 
HETATM   11  C   UNL     1      62.619   7.888   3.862  1.00  0.00     0.021 C 
ENDROOT
BRANCH   2  12
HETATM   12  C   UNL     1      67.409   5.024   8.727  1.00  0.00     0.218 C 
HETATM   13  O   UNL     1      67.926   3.934   8.919  1.00  0.00    -0.643 OA
HETATM   14  O   UNL     1      67.887   6.111   9.375  1.00  0.00    -0.643 OA
ENDBRANCH   2  12
TORSDOF 1
ENDMDL
MODEL 9
REMARK VINA RESULT:      -3.9      2.187      2.500
REMARK  1 active torsions:
REMARK  status: ('A' for Active; 'I' for Inactive)
REMARK    1  A    between atoms: C_2  and  C_8 
ROOT
HETATM    1  C   UNL     1      60.783   7.817   3.959  1.00  0.00     0.147 A 
HETATM    2  C   UNL     1      63.003   8.680   4.515  1.00  0.00     0.100 A 
HETATM    3  S   UNL     1      62.086   7.318   4.987  1.00  0.00    -0.046 SA
HETATM    4  N   UNL     1      61.009   8.954   3.334  1.00  0.00    -0.345 N 
ATOM      5  HN  UNL     1      60.351   9.405   2.697  1.00  0.00     0.167 HD
HETATM    6  C   UNL     1      62.255   9.453   3.655  1.00  0.00     0.116 A 
HETATM    7  N   UNL     1      59.650   7.087   3.802  1.00  0.00    -0.361 N 
HETATM    8  C   UNL     1      58.583   7.539   2.922  1.00  0.00     0.125 C 
HETATM    9  C   UNL     1      59.191   6.086   4.752  1.00  0.00     0.125 C 
HETATM   10  C   UNL     1      57.788   5.729   4.265  1.00  0.00     0.021 C 
HETATM   11  C   UNL     1      57.315   7.003   3.582  1.00  0.00     0.021 C 
ENDROOT
BRANCH   2  12
HETATM   12  C   UNL     1      64.338   8.870   5.003  1.00  0.00     0.218 C 
HETATM   13  O   UNL     1      65.328   8.179   4.817  1.00  0.00    -0.643 OA
HETATM   14  O   UNL     1      64.442   9.998   5.742  1.00  0.00    -0.643 OA
ENDBRANCH   2  12
TORSDOF 1
ENDMDL
