MODEL 1
REMARK VINA RESULT:      -6.0      0.000      0.000
REMARK  2 active torsions:
REMARK  status: ('A' for Active; 'I' for Inactive)
REMARK    1  A    between atoms: C_1  and  C_7 
REMARK    2  A    between atoms: C_6  and  C_9 
ROOT
HETATM    1  C   UNL     1      64.935   7.250   6.357  1.00  0.00     0.177 A 
HETATM    2  C   UNL     1      64.849   7.978   5.194  1.00  0.00     0.079 A 
HETATM    3  N   UNL     1      62.841   8.042   6.236  1.00  0.00    -0.260 N 
ATOM      4  HN  UNL     1      61.869   8.249   6.467  1.00  0.00     0.195 HD
HETATM    5  O   UNL     1      63.726   7.287   6.980  1.00  0.00    -0.231 OA
HETATM    6  C   UNL     1      63.513   8.451   5.148  1.00  0.00     0.068 A 
ENDROOT
BRANCH   6   7
HETATM    7  C   UNL     1      62.886   9.265   4.108  1.00  0.00    -0.007 A 
HETATM    8  C   UNL     1      62.472  10.576   4.380  1.00  0.00     0.014 A 
HETATM    9  C   UNL     1      61.877  11.354   3.384  1.00  0.00     0.001 A 
HETATM   10  C   UNL     1      61.683  10.827   2.109  1.00  0.00     0.000 A 
HETATM   11  C   UNL     1      62.088   9.524   1.826  1.00  0.00     0.001 A 
HETATM   12  C   UNL     1      62.688   8.746   2.819  1.00  0.00     0.014 A 
ENDBRANCH   6   7
BRANCH   1  13
HETATM   13  C   UNL     1      65.997   6.520   6.976  1.00  0.00     0.236 C 
HETATM   14  O   UNL     1      66.871   5.847   6.449  1.00  0.00    -0.642 OA
HETATM   15  O   UNL     1      65.958   6.641   8.324  1.00  0.00    -0.642 OA
ENDBRANCH   1  13
TORSDOF 2
ENDMDL
MODEL 2
REMARK VINA RESULT:      -5.5      1.547      2.294
REMARK  2 active torsions:
REMARK  status: ('A' for Active; 'I' for Inactive)
REMARK    1  A    between atoms: C_1  and  C_7 
REMARK    2  A    between atoms: C_6  and  C_9 
ROOT
HETATM    1  C   UNL     1      65.730   6.738   7.440  1.00  0.00     0.177 A 
HETATM    2  C   UNL     1      64.655   6.704   6.584  1.00  0.00     0.079 A 
HETATM    3  N   UNL     1      65.828   8.600   6.195  1.00  0.00    -0.260 N 
ATOM      4  HN  UNL     1      66.143   9.488   5.805  1.00  0.00     0.195 HD
HETATM    5  O   UNL     1      66.432   7.880   7.208  1.00  0.00    -0.231 OA
HETATM    6  C   UNL     1      64.745   7.898   5.825  1.00  0.00     0.068 A 
ENDROOT
BRANCH   6   7
HETATM    7  C   UNL     1      63.837   8.365   4.779  1.00  0.00    -0.007 A 
HETATM    8  C   UNL     1      63.696   7.648   3.583  1.00  0.00     0.014 A 
HETATM    9  C   UNL     1      62.825   8.094   2.586  1.00  0.00     0.001 A 
HETATM   10  C   UNL     1      62.092   9.265   2.772  1.00  0.00     0.000 A 
HETATM   11  C   UNL     1      62.225   9.988   3.955  1.00  0.00     0.001 A 
HETATM   12  C   UNL     1      63.092   9.541   4.955  1.00  0.00     0.014 A 
ENDBRANCH   6   7
BRANCH   1  13
HETATM   13  C   UNL     1      66.200   5.846   8.454  1.00  0.00     0.236 C 
HETATM   14  O   UNL     1      66.219   4.624   8.449  1.00  0.00    -0.642 OA
HETATM   15  O   UNL     1      66.668   6.525   9.528  1.00  0.00    -0.642 OA
ENDBRANCH   1  13
TORSDOF 2
ENDMDL
MODEL 3
REMARK VINA RESULT:      -5.2      1.875      2.522
REMARK  2 active torsions:
REMARK  status: ('A' for Active; 'I' for Inactive)
REMARK    1  A    between atoms: C_1  and  C_7 
REMARK    2  A    between atoms: C_6  and  C_9 
ROOT
HETATM    1  C   UNL     1      64.962   8.468   5.324  1.00  0.00     0.177 A 
HETATM    2  C   UNL     1      64.272   7.824   4.325  1.00  0.00     0.079 A 
HETATM    3  N   UNL     1      63.246   9.795   4.754  1.00  0.00    -0.260 N 
ATOM      4  HN  UNL     1      62.605  10.588   4.720  1.00  0.00     0.195 HD
HETATM    5  O   UNL     1      64.342   9.651   5.583  1.00  0.00    -0.231 OA
HETATM    6  C   UNL     1      63.193   8.685   4.001  1.00  0.00     0.068 A 
ENDROOT
BRANCH   6   7
HETATM    7  C   UNL     1      62.142   8.470   3.008  1.00  0.00    -0.007 A 
HETATM    8  C   UNL     1      62.333   8.845   1.672  1.00  0.00     0.014 A 
HETATM    9  C   UNL     1      61.328   8.635   0.724  1.00  0.00     0.001 A 
HETATM   10  C   UNL     1      60.120   8.053   1.105  1.00  0.00     0.000 A 
HETATM   11  C   UNL     1      59.917   7.678   2.431  1.00  0.00     0.001 A 
HETATM   12  C   UNL     1      60.922   7.883   3.379  1.00  0.00     0.014 A 
ENDBRANCH   6   7
BRANCH   1  13
HETATM   13  C   UNL     1      66.130   8.133   6.078  1.00  0.00     0.236 C 
HETATM   14  O   UNL     1      66.741   8.816   6.886  1.00  0.00    -0.642 OA
HETATM   15  O   UNL     1      66.550   6.876   5.801  1.00  0.00    -0.642 OA
ENDBRANCH   1  13
TORSDOF 2
ENDMDL
MODEL 4
REMARK VINA RESULT:      -4.8      1.524      1.998
REMARK  2 active torsions:
REMARK  status: ('A' for Active; 'I' for Inactive)
REMARK    1  A    between atoms: C_1  and  C_7 
REMARK    2  A    between atoms: C_6  and  C_9 
ROOT
HETATM    1  C   UNL     1      64.728   7.658   5.953  1.00  0.00     0.177 A 
HETATM    2  C   UNL     1      64.404   7.907   4.640  1.00  0.00     0.079 A 
HETATM    3  N   UNL     1      62.490   7.603   5.810  1.00  0.00    -0.260 N 
ATOM      4  HN  UNL     1      61.506   7.527   6.065  1.00  0.00     0.195 HD
HETATM    5  O   UNL     1      63.577   7.472   6.654  1.00  0.00    -0.231 OA
HETATM    6  C   UNL     1      62.988   7.853   4.588  1.00  0.00     0.068 A 
ENDROOT
BRANCH   6   7
HETATM    7  C   UNL     1      62.126   8.032   3.421  1.00  0.00    -0.007 A 
HETATM    8  C   UNL     1      60.828   7.504   3.403  1.00  0.00     0.014 A 
HETATM    9  C   UNL     1      60.005   7.680   2.288  1.00  0.00     0.001 A 
HETATM   10  C   UNL     1      60.474   8.378   1.177  1.00  0.00     0.000 A 
HETATM   11  C   UNL     1      61.764   8.904   1.181  1.00  0.00     0.001 A 
HETATM   12  C   UNL     1      62.587   8.735   2.297  1.00  0.00     0.014 A 
ENDBRANCH   6   7
BRANCH   1  13
HETATM   13  C   UNL     1      65.972   7.570   6.652  1.00  0.00     0.236 C 
HETATM   14  O   UNL     1      66.490   6.592   7.171  1.00  0.00    -0.642 OA
HETATM   15  O   UNL     1      66.596   8.771   6.699  1.00  0.00    -0.642 OA
ENDBRANCH   1  13
TORSDOF 2
ENDMDL
MODEL 5
REMARK VINA RESULT:      -4.7      2.725      5.943
REMARK  2 active torsions:
REMARK  status: ('A' for Active; 'I' for Inactive)
REMARK    1  A    between atoms: C_1  and  C_7 
REMARK    2  A    between atoms: C_6  and  C_9 
ROOT
HETATM    1  C   UNL     1      63.001   9.335   4.008  1.00  0.00     0.177 A 
HETATM    2  C   UNL     1      63.882   9.174   5.051  1.00  0.00     0.079 A 
HETATM    3  N   UNL     1      63.981   7.337   3.732  1.00  0.00    -0.260 N 
ATOM      4  HN  UNL     1      64.239   6.431   3.341  1.00  0.00     0.195 HD
HETATM    5  O   UNL     1      63.058   8.229   3.218  1.00  0.00    -0.231 OA
HETATM    6  C   UNL     1      64.470   7.900   4.848  1.00  0.00     0.068 A 
ENDROOT
BRANCH   6   7
HETATM    7  C   UNL     1      65.467   7.231   5.682  1.00  0.00    -0.007 A 
HETATM    8  C   UNL     1      66.748   6.955   5.183  1.00  0.00     0.014 A 
HETATM    9  C   UNL     1      67.700   6.320   5.982  1.00  0.00     0.001 A 
HETATM   10  C   UNL     1      67.380   5.946   7.286  1.00  0.00     0.000 A 
HETATM   11  C   UNL     1      66.110   6.211   7.793  1.00  0.00     0.001 A 
HETATM   12  C   UNL     1      65.158   6.852   6.997  1.00  0.00     0.014 A 
ENDBRANCH   6   7
BRANCH   1  13
HETATM   13  C   UNL     1      62.105  10.387   3.640  1.00  0.00     0.236 C 
HETATM   14  O   UNL     1      61.700  11.320   4.318  1.00  0.00    -0.642 OA
HETATM   15  O   UNL     1      61.697  10.260   2.355  1.00  0.00    -0.642 OA
ENDBRANCH   1  13
TORSDOF 2
ENDMDL
MODEL 6
REMARK VINA RESULT:      -4.5      1.849      2.039
REMARK  2 active torsions:
REMARK  status: ('A' for Active; 'I' for Inactive)
REMARK    1  A    between atoms: C_1  and  C_7 
REMARK    2  A    between atoms: C_6  and  C_9 
ROOT
HETATM    1  C   UNL     1      63.912   5.805   4.833  1.00  0.00     0.177 A 
HETATM    2  C   UNL     1      63.625   6.601   3.749  1.00  0.00     0.079 A 
HETATM    3  N   UNL     1      63.109   7.737   5.637  1.00  0.00    -0.260 N 
ATOM      4  HN  UNL     1      62.806   8.465   6.285  1.00  0.00     0.195 HD
HETATM    5  O   UNL     1      63.598   6.487   5.966  1.00  0.00    -0.231 OA
HETATM    6  C   UNL     1      63.111   7.804   4.297  1.00  0.00     0.068 A 
ENDROOT
BRANCH   6   7
HETATM    7  C   UNL     1      62.636   8.984   3.577  1.00  0.00    -0.007 A 
HETATM    8  C   UNL     1      62.403  10.189   4.255  1.00  0.00     0.014 A 
HETATM    9  C   UNL     1      61.953  11.317   3.565  1.00  0.00     0.001 A 
HETATM   10  C   UNL     1      61.723  11.250   2.191  1.00  0.00     0.000 A 
HETATM   11  C   UNL     1      61.948  10.057   1.507  1.00  0.00     0.001 A 
HETATM   12  C   UNL     1      62.403   8.930   2.194  1.00  0.00     0.014 A 
ENDBRANCH   6   7
BRANCH   1  13
HETATM   13  C   UNL     1      64.445   4.484   4.960  1.00  0.00     0.236 C 
HETATM   14  O   UNL     1      63.875   3.412   4.818  1.00  0.00    -0.642 OA
HETATM   15  O   UNL     1      65.760   4.513   5.282  1.00  0.00    -0.642 OA
ENDBRANCH   1  13
TORSDOF 2
ENDMDL
MODEL 7
REMARK VINA RESULT:      -4.3     11.914     13.569
REMARK  2 active torsions:
REMARK  status: ('A' for Active; 'I' for Inactive)
REMARK    1  A    between atoms: C_1  and  C_7 
REMARK    2  A    between atoms: C_6  and  C_9 
ROOT
HETATM    1  C   UNL     1      55.873   2.847  13.218  1.00  0.00     0.177 A 
HETATM    2  C   UNL     1      56.516   1.744  13.728  1.00  0.00     0.079 A 
HETATM    3  N   UNL     1      57.723   2.542  11.988  1.00  0.00    -0.260 N 
ATOM      4  HN  UNL     1      58.451   2.672  11.285  1.00  0.00     0.195 HD
HETATM    5  O   UNL     1      56.597   3.323  12.170  1.00  0.00    -0.231 OA
HETATM    6  C   UNL     1      57.669   1.578  12.920  1.00  0.00     0.068 A 
ENDROOT
BRANCH   6   7
HETATM    7  C   UNL     1      58.694   0.540  13.025  1.00  0.00    -0.007 A 
HETATM    8  C   UNL     1      58.444  -0.642  13.735  1.00  0.00     0.014 A 
HETATM    9  C   UNL     1      59.423  -1.634  13.830  1.00  0.00     0.001 A 
HETATM   10  C   UNL     1      60.664  -1.451  13.222  1.00  0.00     0.000 A 
HETATM   11  C   UNL     1      60.925  -0.279  12.515  1.00  0.00     0.001 A 
HETATM   12  C   UNL     1      59.946   0.712  12.415  1.00  0.00     0.014 A 
ENDBRANCH   6   7
BRANCH   1  13
HETATM   13  C   UNL     1      54.666   3.526  13.574  1.00  0.00     0.236 C 
HETATM   14  O   UNL     1      54.431   4.725  13.565  1.00  0.00    -0.642 OA
HETATM   15  O   UNL     1      53.706   2.653  13.962  1.00  0.00    -0.642 OA
ENDBRANCH   1  13
TORSDOF 2
ENDMDL
MODEL 8
REMARK VINA RESULT:      -4.1      7.234      7.881
REMARK  2 active torsions:
REMARK  status: ('A' for Active; 'I' for Inactive)
REMARK    1  A    between atoms: C_1  and  C_7 
REMARK    2  A    between atoms: C_6  and  C_9 
ROOT
HETATM    1  C   UNL     1      57.627   6.296   7.498  1.00  0.00     0.177 A 
HETATM    2  C   UNL     1      57.614   6.287   6.124  1.00  0.00     0.079 A 
HETATM    3  N   UNL     1      55.478   6.184   6.865  1.00  0.00    -0.260 N 
ATOM      4  HN  UNL     1      54.460   6.143   6.900  1.00  0.00     0.195 HD
HETATM    5  O   UNL     1      56.343   6.231   7.943  1.00  0.00    -0.231 OA
HETATM    6  C   UNL     1      56.245   6.203   5.764  1.00  0.00     0.068 A 
ENDROOT
BRANCH   6   7
HETATM    7  C   UNL     1      55.674   6.145   4.419  1.00  0.00    -0.007 A 
HETATM    8  C   UNL     1      54.380   5.648   4.213  1.00  0.00     0.014 A 
HETATM    9  C   UNL     1      53.835   5.597   2.929  1.00  0.00     0.001 A 
HETATM   10  C   UNL     1      54.580   6.035   1.835  1.00  0.00     0.000 A 
HETATM   11  C   UNL     1      55.869   6.529   2.027  1.00  0.00     0.001 A 
HETATM   12  C   UNL     1      56.414   6.586   3.311  1.00  0.00     0.014 A 
ENDBRANCH   6   7
BRANCH   1  13
HETATM   13  C   UNL     1      58.678   6.360   8.465  1.00  0.00     0.236 C 
HETATM   14  O   UNL     1      59.745   5.764   8.476  1.00  0.00    -0.642 OA
HETATM   15  O   UNL     1      58.373   7.217   9.468  1.00  0.00    -0.642 OA
ENDBRANCH   1  13
TORSDOF 2
ENDMDL
MODEL 9
REMARK VINA RESULT:      -4.0      4.397      5.462
REMARK  2 active torsions:
REMARK  status: ('A' for Active; 'I' for Inactive)
REMARK    1  A    between atoms: C_1  and  C_7 
REMARK    2  A    between atoms: C_6  and  C_9 
ROOT
HETATM    1  C   UNL     1      59.633   5.078   8.089  1.00  0.00     0.177 A 
HETATM    2  C   UNL     1      59.979   6.228   7.419  1.00  0.00     0.079 A 
HETATM    3  N   UNL     1      61.419   4.587   6.825  1.00  0.00    -0.260 N 
ATOM      4  HN  UNL     1      62.177   4.069   6.380  1.00  0.00     0.195 HD
HETATM    5  O   UNL     1      60.502   4.094   7.734  1.00  0.00    -0.231 OA
HETATM    6  C   UNL     1      61.114   5.881   6.643  1.00  0.00     0.068 A 
ENDROOT
BRANCH   6   7
HETATM    7  C   UNL     1      61.889   6.744   5.754  1.00  0.00    -0.007 A 
HETATM    8  C   UNL     1      61.391   7.104   4.494  1.00  0.00     0.014 A 
HETATM    9  C   UNL     1      62.132   7.932   3.648  1.00  0.00     0.001 A 
HETATM   10  C   UNL     1      63.381   8.403   4.049  1.00  0.00     0.000 A 
HETATM   11  C   UNL     1      63.888   8.050   5.297  1.00  0.00     0.001 A 
HETATM   12  C   UNL     1      63.147   7.227   6.147  1.00  0.00     0.014 A 
ENDBRANCH   6   7
BRANCH   1  13
HETATM   13  C   UNL     1      58.596   4.766   9.022  1.00  0.00     0.236 C 
HETATM   14  O   UNL     1      58.695   4.319  10.155  1.00  0.00    -0.642 OA
HETATM   15  O   UNL     1      57.373   5.029   8.504  1.00  0.00    -0.642 OA
ENDBRANCH   1  13
TORSDOF 2
ENDMDL
