MODEL 1
REMARK VINA RESULT:      -3.7      0.000      0.000
REMARK  2 active torsions:
REMARK  status: ('A' for Active; 'I' for Inactive)
REMARK    1  A    between atoms: C_2  and  C_7 
REMARK    2  A    between atoms: N_6  and  C_7 
ROOT
HETATM    1  S   UNL     1      62.314   9.093   2.985  1.00  0.00    -0.098 SA
HETATM    2  C   UNL     1      62.794   8.806   4.573  1.00  0.00     0.008 A 
HETATM    3  C   UNL     1      62.095  10.749   3.175  1.00  0.00    -0.021 A 
HETATM    4  C   UNL     1      62.395  11.101   4.487  1.00  0.00     0.015 A 
HETATM    5  C   UNL     1      62.787  10.011   5.271  1.00  0.00     0.017 A 
HETATM    6  C   UNL     1      61.655  11.681   2.096  1.00  0.00     0.056 C 
ENDROOT
BRANCH   2   7
HETATM    7  C   UNL     1      63.182   7.471   5.130  1.00  0.00     0.277 C 
BRANCH   7   8
HETATM    8  N   UNL     1      63.661   7.605   6.510  1.00  0.00    -0.075 N 
HETATM    9  C   UNL     1      64.741   6.651   6.771  1.00  0.00     0.267 C 
HETATM   10  H   UNL     1      62.890   7.424   7.152  1.00  0.00     0.277 HD
HETATM   11  H   UNL     1      64.016   8.552   6.647  1.00  0.00     0.277 HD
ENDBRANCH   7   8
ENDBRANCH   2   7
TORSDOF 2
ENDMDL
MODEL 2
REMARK VINA RESULT:      -3.6      1.128      1.579
REMARK  2 active torsions:
REMARK  status: ('A' for Active; 'I' for Inactive)
REMARK    1  A    between atoms: C_2  and  C_7 
REMARK    2  A    between atoms: N_6  and  C_7 
ROOT
HETATM    1  S   UNL     1      62.312  10.371   4.382  1.00  0.00    -0.098 SA
HETATM    2  C   UNL     1      62.541   8.703   4.370  1.00  0.00     0.008 A 
HETATM    3  C   UNL     1      62.028  10.510   2.731  1.00  0.00    -0.021 A 
HETATM    4  C   UNL     1      62.110   9.251   2.146  1.00  0.00     0.015 A 
HETATM    5  C   UNL     1      62.398   8.237   3.066  1.00  0.00     0.017 A 
HETATM    6  C   UNL     1      61.731  11.789   2.021  1.00  0.00     0.056 C 
ENDROOT
BRANCH   2   7
HETATM    7  C   UNL     1      62.833   7.863   5.575  1.00  0.00     0.277 C 
BRANCH   7   8
HETATM    8  N   UNL     1      64.214   8.068   6.026  1.00  0.00    -0.075 N 
HETATM    9  C   UNL     1      64.784   6.811   6.517  1.00  0.00     0.267 C 
HETATM   10  H   UNL     1      64.223   8.757   6.778  1.00  0.00     0.277 HD
HETATM   11  H   UNL     1      64.774   8.400   5.240  1.00  0.00     0.277 HD
ENDBRANCH   7   8
ENDBRANCH   2   7
TORSDOF 2
ENDMDL
MODEL 3
REMARK VINA RESULT:      -3.4      1.621      1.665
REMARK  2 active torsions:
REMARK  status: ('A' for Active; 'I' for Inactive)
REMARK    1  A    between atoms: C_2  and  C_7 
REMARK    2  A    between atoms: N_6  and  C_7 
ROOT
HETATM    1  S   UNL     1      63.217   7.836   3.143  1.00  0.00    -0.098 SA
HETATM    2  C   UNL     1      63.589   8.385   4.691  1.00  0.00     0.008 A 
HETATM    3  C   UNL     1      62.283   9.167   2.716  1.00  0.00    -0.021 A 
HETATM    4  C   UNL     1      62.248  10.061   3.781  1.00  0.00     0.015 A 
HETATM    5  C   UNL     1      62.981   9.621   4.889  1.00  0.00     0.017 A 
HETATM    6  C   UNL     1      61.609   9.348   1.397  1.00  0.00     0.056 C 
ENDROOT
BRANCH   2   7
HETATM    7  C   UNL     1      64.450   7.661   5.679  1.00  0.00     0.277 C 
BRANCH   7   8
HETATM    8  N   UNL     1      65.523   8.535   6.168  1.00  0.00    -0.075 N 
HETATM    9  C   UNL     1      66.616   7.737   6.728  1.00  0.00     0.267 C 
HETATM   10  H   UNL     1      65.151   9.151   6.891  1.00  0.00     0.277 HD
HETATM   11  H   UNL     1      65.882   9.086   5.388  1.00  0.00     0.277 HD
ENDBRANCH   7   8
ENDBRANCH   2   7
TORSDOF 2
ENDMDL
MODEL 4
REMARK VINA RESULT:      -3.3      3.055      5.827
REMARK  2 active torsions:
REMARK  status: ('A' for Active; 'I' for Inactive)
REMARK    1  A    between atoms: C_2  and  C_7 
REMARK    2  A    between atoms: N_6  and  C_7 
ROOT
HETATM    1  S   UNL     1      65.713   6.966   6.886  1.00  0.00    -0.098 SA
HETATM    2  C   UNL     1      65.669   7.804   5.426  1.00  0.00     0.008 A 
HETATM    3  C   UNL     1      67.335   6.533   6.779  1.00  0.00    -0.021 A 
HETATM    4  C   UNL     1      67.864   7.039   5.597  1.00  0.00     0.015 A 
HETATM    5  C   UNL     1      66.929   7.752   4.838  1.00  0.00     0.017 A 
HETATM    6  C   UNL     1      68.074   5.738   7.802  1.00  0.00     0.056 C 
ENDROOT
BRANCH   2   7
HETATM    7  C   UNL     1      64.468   8.504   4.869  1.00  0.00     0.277 C 
BRANCH   7   8
HETATM    8  N   UNL     1      64.106   9.655   5.705  1.00  0.00    -0.075 N 
HETATM    9  C   UNL     1      62.882  10.284   5.205  1.00  0.00     0.267 C 
HETATM   10  H   UNL     1      64.865  10.335   5.687  1.00  0.00     0.277 HD
HETATM   11  H   UNL     1      63.946   9.333   6.660  1.00  0.00     0.277 HD
ENDBRANCH   7   8
ENDBRANCH   2   7
TORSDOF 2
ENDMDL
MODEL 5
REMARK VINA RESULT:      -3.3      3.808      7.216
REMARK  2 active torsions:
REMARK  status: ('A' for Active; 'I' for Inactive)
REMARK    1  A    between atoms: C_2  and  C_7 
REMARK    2  A    between atoms: N_6  and  C_7 
ROOT
HETATM    1  S   UNL     1      66.126   4.530   7.577  1.00  0.00    -0.098 SA
HETATM    2  C   UNL     1      65.930   6.202   7.513  1.00  0.00     0.008 A 
HETATM    3  C   UNL     1      67.386   4.554   8.690  1.00  0.00    -0.021 A 
HETATM    4  C   UNL     1      67.672   5.873   9.027  1.00  0.00     0.015 A 
HETATM    5  C   UNL     1      66.855   6.797   8.366  1.00  0.00     0.017 A 
HETATM    6  C   UNL     1      68.074   3.343   9.226  1.00  0.00     0.056 C 
ENDROOT
BRANCH   2   7
HETATM    7  C   UNL     1      64.911   6.920   6.684  1.00  0.00     0.277 C 
BRANCH   7   8
HETATM    8  N   UNL     1      65.425   8.223   6.247  1.00  0.00    -0.075 N 
HETATM    9  C   UNL     1      64.691   8.693   5.070  1.00  0.00     0.267 C 
HETATM   10  H   UNL     1      66.413   8.133   6.013  1.00  0.00     0.277 HD
HETATM   11  H   UNL     1      65.304   8.897   7.003  1.00  0.00     0.277 HD
ENDBRANCH   7   8
ENDBRANCH   2   7
TORSDOF 2
ENDMDL
MODEL 6
REMARK VINA RESULT:      -3.2      2.388      4.368
REMARK  2 active torsions:
REMARK  status: ('A' for Active; 'I' for Inactive)
REMARK    1  A    between atoms: C_2  and  C_7 
REMARK    2  A    between atoms: N_6  and  C_7 
ROOT
HETATM    1  S   UNL     1      63.577   7.319   3.273  1.00  0.00    -0.098 SA
HETATM    2  C   UNL     1      62.818   8.633   4.002  1.00  0.00     0.008 A 
HETATM    3  C   UNL     1      64.979   7.404   4.197  1.00  0.00    -0.021 A 
HETATM    4  C   UNL     1      64.872   8.464   5.091  1.00  0.00     0.015 A 
HETATM    5  C   UNL     1      63.660   9.154   4.981  1.00  0.00     0.017 A 
HETATM    6  C   UNL     1      66.141   6.477   4.071  1.00  0.00     0.056 C 
ENDROOT
BRANCH   2   7
HETATM    7  C   UNL     1      61.451   9.139   3.659  1.00  0.00     0.277 C 
BRANCH   7   8
HETATM    8  N   UNL     1      61.509  10.547   3.249  1.00  0.00    -0.075 N 
HETATM    9  C   UNL     1      61.951  10.657   1.858  1.00  0.00     0.267 C 
HETATM   10  H   UNL     1      62.165  11.045   3.851  1.00  0.00     0.277 HD
HETATM   11  H   UNL     1      60.577  10.955   3.333  1.00  0.00     0.277 HD
ENDBRANCH   7   8
ENDBRANCH   2   7
TORSDOF 2
ENDMDL
MODEL 7
REMARK VINA RESULT:      -3.2      3.647      4.704
REMARK  2 active torsions:
REMARK  status: ('A' for Active; 'I' for Inactive)
REMARK    1  A    between atoms: C_2  and  C_7 
REMARK    2  A    between atoms: N_6  and  C_7 
ROOT
HETATM    1  S   UNL     1      64.562   6.386   6.485  1.00  0.00    -0.098 SA
HETATM    2  C   UNL     1      65.918   6.895   7.344  1.00  0.00     0.008 A 
HETATM    3  C   UNL     1      64.840   7.363   5.144  1.00  0.00    -0.021 A 
HETATM    4  C   UNL     1      65.999   8.103   5.352  1.00  0.00     0.015 A 
HETATM    5  C   UNL     1      66.604   7.840   6.586  1.00  0.00     0.017 A 
HETATM    6  C   UNL     1      63.973   7.413   3.931  1.00  0.00     0.056 C 
ENDROOT
BRANCH   2   7
HETATM    7  C   UNL     1      66.322   6.392   8.695  1.00  0.00     0.277 C 
BRANCH   7   8
HETATM    8  N   UNL     1      66.271   4.926   8.738  1.00  0.00    -0.075 N 
HETATM    9  C   UNL     1      67.622   4.366   8.671  1.00  0.00     0.267 C 
HETATM   10  H   UNL     1      65.726   4.585   7.946  1.00  0.00     0.277 HD
HETATM   11  H   UNL     1      65.836   4.635   9.614  1.00  0.00     0.277 HD
ENDBRANCH   7   8
ENDBRANCH   2   7
TORSDOF 2
ENDMDL
MODEL 8
REMARK VINA RESULT:      -3.0     12.637     13.401
REMARK  2 active torsions:
REMARK  status: ('A' for Active; 'I' for Inactive)
REMARK    1  A    between atoms: C_2  and  C_7 
REMARK    2  A    between atoms: N_6  and  C_7 
ROOT
HETATM    1  S   UNL     1      57.866   0.141  12.282  1.00  0.00    -0.098 SA
HETATM    2  C   UNL     1      57.213   1.210  13.407  1.00  0.00     0.008 A 
HETATM    3  C   UNL     1      59.470   0.554  12.574  1.00  0.00    -0.021 A 
HETATM    4  C   UNL     1      59.516   1.537  13.558  1.00  0.00     0.015 A 
HETATM    5  C   UNL     1      58.249   1.904  14.025  1.00  0.00     0.017 A 
HETATM    6  C   UNL     1      60.646  -0.051  11.884  1.00  0.00     0.056 C 
ENDROOT
BRANCH   2   7
HETATM    7  C   UNL     1      55.752   1.366  13.701  1.00  0.00     0.277 C 
BRANCH   7   8
HETATM    8  N   UNL     1      55.522   2.518  14.580  1.00  0.00    -0.075 N 
HETATM    9  C   UNL     1      54.706   3.525  13.899  1.00  0.00     0.267 C 
HETATM   10  H   UNL     1      56.420   2.930  14.837  1.00  0.00     0.277 HD
HETATM   11  H   UNL     1      55.029   2.204  15.416  1.00  0.00     0.277 HD
ENDBRANCH   7   8
ENDBRANCH   2   7
TORSDOF 2
ENDMDL
MODEL 9
REMARK VINA RESULT:      -2.8      2.320      3.098
REMARK  2 active torsions:
REMARK  status: ('A' for Active; 'I' for Inactive)
REMARK    1  A    between atoms: C_2  and  C_7 
REMARK    2  A    between atoms: N_6  and  C_7 
ROOT
HETATM    1  S   UNL     1      62.715   7.671   5.881  1.00  0.00    -0.098 SA
HETATM    2  C   UNL     1      64.272   7.035   5.792  1.00  0.00     0.008 A 
HETATM    3  C   UNL     1      62.601   8.056   4.248  1.00  0.00    -0.021 A 
HETATM    4  C   UNL     1      63.782   7.693   3.610  1.00  0.00     0.015 A 
HETATM    5  C   UNL     1      64.720   7.120   4.477  1.00  0.00     0.017 A 
HETATM    6  C   UNL     1      61.412   8.683   3.601  1.00  0.00     0.056 C 
ENDROOT
BRANCH   2   7
HETATM    7  C   UNL     1      65.035   6.458   6.945  1.00  0.00     0.277 C 
BRANCH   7   8
HETATM    8  N   UNL     1      66.117   7.360   7.353  1.00  0.00    -0.075 N 
HETATM    9  C   UNL     1      66.879   6.777   8.459  1.00  0.00     0.267 C 
HETATM   10  H   UNL     1      65.718   8.250   7.652  1.00  0.00     0.277 HD
HETATM   11  H   UNL     1      66.743   7.506   6.561  1.00  0.00     0.277 HD
ENDBRANCH   7   8
ENDBRANCH   2   7
TORSDOF 2
ENDMDL
