MODEL 1
REMARK VINA RESULT:      -4.4      0.000      0.000
REMARK  2 active torsions:
REMARK  status: ('A' for Active; 'I' for Inactive)
REMARK    1  A    between atoms: C_1  and  C_6 
REMARK    2  A    between atoms: C_6  and  O_7 
ROOT
HETATM    1  C   UNL     1      62.419   9.689   3.483  1.00  0.00     0.002 A 
HETATM    2  C   UNL     1      62.386  10.861   4.220  1.00  0.00     0.057 A 
HETATM    3  O   UNL     1      61.951  11.894   3.452  1.00  0.00    -0.326 OA
HETATM    4  C   UNL     1      61.971  10.044   2.169  1.00  0.00    -0.029 A 
HETATM    5  C   UNL     1      61.704  11.396   2.216  1.00  0.00     0.149 A 
HETATM    6  C   UNL     1      62.721  11.184   5.623  1.00  0.00     0.077 C 
HETATM    7  C   UNL     1      61.824   9.143   1.000  1.00  0.00     0.050 C 
ENDROOT
BRANCH   1   8
HETATM    8  C   UNL     1      62.832   8.342   3.961  1.00  0.00     0.206 C 
BRANCH   8   9
HETATM    9  O   UNL     1      64.214   8.308   4.297  1.00  0.00    -0.396 OA
HETATM   10  H   UNL     1      64.699   7.805   3.623  1.00  0.00     0.209 HD
ENDBRANCH   8   9
ENDBRANCH   1   8
TORSDOF 2
ENDMDL
MODEL 2
REMARK VINA RESULT:      -4.2      1.567      2.810
REMARK  2 active torsions:
REMARK  status: ('A' for Active; 'I' for Inactive)
REMARK    1  A    between atoms: C_1  and  C_6 
REMARK    2  A    between atoms: C_6  and  O_7 
ROOT
HETATM    1  C   UNL     1      62.682  10.110   4.601  1.00  0.00     0.002 A 
HETATM    2  C   UNL     1      62.949   8.753   4.683  1.00  0.00     0.057 A 
HETATM    3  O   UNL     1      62.682   8.144   3.498  1.00  0.00    -0.326 OA
HETATM    4  C   UNL     1      62.217  10.334   3.264  1.00  0.00    -0.029 A 
HETATM    5  C   UNL     1      62.241   9.101   2.648  1.00  0.00     0.149 A 
HETATM    6  C   UNL     1      63.446   7.884   5.770  1.00  0.00     0.077 C 
HETATM    7  C   UNL     1      61.799  11.625   2.667  1.00  0.00     0.050 C 
ENDROOT
BRANCH   1   8
HETATM    8  C   UNL     1      62.846  11.122   5.679  1.00  0.00     0.206 C 
BRANCH   8   9
HETATM    9  O   UNL     1      64.211  11.272   6.052  1.00  0.00    -0.396 OA
HETATM   10  H   UNL     1      64.355  10.868   6.923  1.00  0.00     0.209 HD
ENDBRANCH   8   9
ENDBRANCH   1   8
TORSDOF 2
ENDMDL
MODEL 3
REMARK VINA RESULT:      -4.1      1.635      2.936
REMARK  2 active torsions:
REMARK  status: ('A' for Active; 'I' for Inactive)
REMARK    1  A    between atoms: C_1  and  C_6 
REMARK    2  A    between atoms: C_6  and  O_7 
ROOT
HETATM    1  C   UNL     1      62.146   9.851   3.264  1.00  0.00     0.002 A 
HETATM    2  C   UNL     1      61.954  11.212   3.096  1.00  0.00     0.057 A 
HETATM    3  O   UNL     1      62.228  11.877   4.249  1.00  0.00    -0.326 OA
HETATM    4  C   UNL     1      62.567   9.683   4.623  1.00  0.00    -0.029 A 
HETATM    5  C   UNL     1      62.596  10.950   5.166  1.00  0.00     0.149 A 
HETATM    6  C   UNL     1      61.524  12.040   1.949  1.00  0.00     0.077 C 
HETATM    7  C   UNL     1      62.903   8.409   5.305  1.00  0.00     0.050 C 
ENDROOT
BRANCH   1   8
HETATM    8  C   UNL     1      61.955   8.787   2.242  1.00  0.00     0.206 C 
BRANCH   8   9
HETATM    9  O   UNL     1      60.586   8.648   1.880  1.00  0.00    -0.396 OA
HETATM   10  H   UNL     1      60.523   8.343   0.961  1.00  0.00     0.209 HD
ENDBRANCH   8   9
ENDBRANCH   1   8
TORSDOF 2
ENDMDL
MODEL 4
REMARK VINA RESULT:      -4.1      1.713      3.118
REMARK  2 active torsions:
REMARK  status: ('A' for Active; 'I' for Inactive)
REMARK    1  A    between atoms: C_1  and  C_6 
REMARK    2  A    between atoms: C_6  and  O_7 
ROOT
HETATM    1  C   UNL     1      62.535  10.128   4.430  1.00  0.00     0.002 A 
HETATM    2  C   UNL     1      62.121  10.390   3.135  1.00  0.00     0.057 A 
HETATM    3  O   UNL     1      62.031   9.236   2.422  1.00  0.00    -0.326 OA
HETATM    4  C   UNL     1      62.709   8.707   4.502  1.00  0.00    -0.029 A 
HETATM    5  C   UNL     1      62.388   8.226   3.251  1.00  0.00     0.149 A 
HETATM    6  C   UNL     1      61.775  11.633   2.415  1.00  0.00     0.077 C 
HETATM    7  C   UNL     1      63.145   7.917   5.680  1.00  0.00     0.050 C 
ENDROOT
BRANCH   1   8
HETATM    8  C   UNL     1      62.752  11.118   5.519  1.00  0.00     0.206 C 
BRANCH   8   9
HETATM    9  O   UNL     1      64.105  11.127   5.956  1.00  0.00    -0.396 OA
HETATM   10  H   UNL     1      64.695  11.142   5.185  1.00  0.00     0.209 HD
ENDBRANCH   8   9
ENDBRANCH   1   8
TORSDOF 2
ENDMDL
MODEL 5
REMARK VINA RESULT:      -3.9      1.670      3.119
REMARK  2 active torsions:
REMARK  status: ('A' for Active; 'I' for Inactive)
REMARK    1  A    between atoms: C_1  and  C_6 
REMARK    2  A    between atoms: C_6  and  O_7 
ROOT
HETATM    1  C   UNL     1      62.812   9.221   4.256  1.00  0.00     0.002 A 
HETATM    2  C   UNL     1      63.381  10.038   5.219  1.00  0.00     0.057 A 
HETATM    3  O   UNL     1      64.592   9.552   5.599  1.00  0.00    -0.326 OA
HETATM    4  C   UNL     1      63.753   8.162   4.040  1.00  0.00    -0.029 A 
HETATM    5  C   UNL     1      64.810   8.421   4.886  1.00  0.00     0.149 A 
HETATM    6  C   UNL     1      62.936  11.282   5.882  1.00  0.00     0.077 C 
HETATM    7  C   UNL     1      63.618   7.022   3.100  1.00  0.00     0.050 C 
ENDROOT
BRANCH   1   8
HETATM    8  C   UNL     1      61.498   9.409   3.585  1.00  0.00     0.206 C 
BRANCH   8   9
HETATM    9  O   UNL     1      61.310  10.757   3.171  1.00  0.00    -0.396 OA
HETATM   10  H   UNL     1      61.976  11.322   3.594  1.00  0.00     0.209 HD
ENDBRANCH   8   9
ENDBRANCH   1   8
TORSDOF 2
ENDMDL
MODEL 6
REMARK VINA RESULT:      -3.9      1.195      3.910
REMARK  2 active torsions:
REMARK  status: ('A' for Active; 'I' for Inactive)
REMARK    1  A    between atoms: C_1  and  C_6 
REMARK    2  A    between atoms: C_6  and  O_7 
ROOT
HETATM    1  C   UNL     1      62.258   9.904   2.939  1.00  0.00     0.002 A 
HETATM    2  C   UNL     1      62.399   8.872   2.026  1.00  0.00     0.057 A 
HETATM    3  O   UNL     1      63.098   7.845   2.575  1.00  0.00    -0.326 OA
HETATM    4  C   UNL     1      62.924   9.464   4.130  1.00  0.00    -0.029 A 
HETATM    5  C   UNL     1      63.412   8.207   3.842  1.00  0.00     0.149 A 
HETATM    6  C   UNL     1      61.954   8.690   0.629  1.00  0.00     0.077 C 
HETATM    7  C   UNL     1      63.059  10.206   5.406  1.00  0.00     0.050 C 
ENDROOT
BRANCH   1   8
HETATM    8  C   UNL     1      61.557  11.199   2.726  1.00  0.00     0.206 C 
BRANCH   8   9
HETATM    9  O   UNL     1      62.224  12.002   1.758  1.00  0.00    -0.396 OA
HETATM   10  H   UNL     1      63.118  11.654   1.610  1.00  0.00     0.209 HD
ENDBRANCH   8   9
ENDBRANCH   1   8
TORSDOF 2
ENDMDL
MODEL 7
REMARK VINA RESULT:      -3.7      1.916      2.862
REMARK  2 active torsions:
REMARK  status: ('A' for Active; 'I' for Inactive)
REMARK    1  A    between atoms: C_1  and  C_6 
REMARK    2  A    between atoms: C_6  and  O_7 
ROOT
HETATM    1  C   UNL     1      62.103   9.177   3.945  1.00  0.00     0.002 A 
HETATM    2  C   UNL     1      62.622   8.802   5.174  1.00  0.00     0.057 A 
HETATM    3  O   UNL     1      63.023   9.896   5.873  1.00  0.00    -0.326 OA
HETATM    4  C   UNL     1      62.201  10.606   3.902  1.00  0.00    -0.029 A 
HETATM    5  C   UNL     1      62.768  10.979   5.102  1.00  0.00     0.149 A 
HETATM    6  C   UNL     1      62.814   7.494   5.834  1.00  0.00     0.077 C 
HETATM    7  C   UNL     1      61.778  11.499   2.796  1.00  0.00     0.050 C 
ENDROOT
BRANCH   1   8
HETATM    8  C   UNL     1      61.557   8.279   2.892  1.00  0.00     0.206 C 
BRANCH   8   9
HETATM    9  O   UNL     1      60.135   8.320   2.856  1.00  0.00    -0.396 OA
HETATM   10  H   UNL     1      59.836   9.241   2.922  1.00  0.00     0.209 HD
ENDBRANCH   8   9
ENDBRANCH   1   8
TORSDOF 2
ENDMDL
MODEL 8
REMARK VINA RESULT:      -3.7      0.775      2.744
REMARK  2 active torsions:
REMARK  status: ('A' for Active; 'I' for Inactive)
REMARK    1  A    between atoms: C_1  and  C_6 
REMARK    2  A    between atoms: C_6  and  O_7 
ROOT
HETATM    1  C   UNL     1      62.428   9.444   3.309  1.00  0.00     0.002 A 
HETATM    2  C   UNL     1      62.035   9.594   1.989  1.00  0.00     0.057 A 
HETATM    3  O   UNL     1      61.686  10.884   1.741  1.00  0.00    -0.326 OA
HETATM    4  C   UNL     1      62.305  10.744   3.901  1.00  0.00    -0.029 A 
HETATM    5  C   UNL     1      61.850  11.571   2.897  1.00  0.00     0.149 A 
HETATM    6  C   UNL     1      61.928   8.655   0.853  1.00  0.00     0.077 C 
HETATM    7  C   UNL     1      62.606  11.120   5.304  1.00  0.00     0.050 C 
ENDROOT
BRANCH   1   8
HETATM    8  C   UNL     1      62.884   8.192   3.971  1.00  0.00     0.206 C 
BRANCH   8   9
HETATM    9  O   UNL     1      64.281   8.223   4.240  1.00  0.00    -0.396 OA
HETATM   10  H   UNL     1      64.488   8.992   4.794  1.00  0.00     0.209 HD
ENDBRANCH   8   9
ENDBRANCH   1   8
TORSDOF 2
ENDMDL
MODEL 9
REMARK VINA RESULT:      -3.7      1.596      3.072
REMARK  2 active torsions:
REMARK  status: ('A' for Active; 'I' for Inactive)
REMARK    1  A    between atoms: C_1  and  C_6 
REMARK    2  A    between atoms: C_6  and  O_7 
ROOT
HETATM    1  C   UNL     1      63.301   9.003   4.409  1.00  0.00     0.002 A 
HETATM    2  C   UNL     1      62.891   8.525   3.175  1.00  0.00     0.057 A 
HETATM    3  O   UNL     1      62.080   9.426   2.562  1.00  0.00    -0.326 OA
HETATM    4  C   UNL     1      62.688  10.291   4.549  1.00  0.00    -0.029 A 
HETATM    5  C   UNL     1      61.960  10.487   3.395  1.00  0.00     0.149 A 
HETATM    6  C   UNL     1      63.159   7.274   2.435  1.00  0.00     0.077 C 
HETATM    7  C   UNL     1      62.811  11.221   5.698  1.00  0.00     0.050 C 
ENDROOT
BRANCH   1   8
HETATM    8  C   UNL     1      64.194   8.320   5.383  1.00  0.00     0.206 C 
BRANCH   8   9
HETATM    9  O   UNL     1      65.364   9.085   5.645  1.00  0.00    -0.396 OA
HETATM   10  H   UNL     1      65.937   8.600   6.261  1.00  0.00     0.209 HD
ENDBRANCH   8   9
ENDBRANCH   1   8
TORSDOF 2
ENDMDL
