MODEL 1
REMARK VINA RESULT:      -5.0      0.000      0.000
REMARK  2 active torsions:
REMARK  status: ('A' for Active; 'I' for Inactive)
REMARK    1  A    between atoms: C_1  and  C_7 
REMARK    2  A    between atoms: C_2  and  C_8 
ROOT
HETATM    1  C   UNL     1      64.213   8.167   5.560  1.00  0.00     0.122 A 
HETATM    2  C   UNL     1      65.738   6.497   7.051  1.00  0.00     0.071 A 
HETATM    3  N   UNL     1      63.659   7.010   5.970  1.00  0.00    -0.350 N 
ATOM      4  HN  UNL     1      62.698   6.761   5.732  1.00  0.00     0.166 HD
HETATM    5  N   UNL     1      65.477   8.554   5.829  1.00  0.00    -0.350 N 
ATOM      6  HN  UNL     1      65.855   9.439   5.489  1.00  0.00     0.166 HD
HETATM    7  C   UNL     1      66.215   7.698   6.576  1.00  0.00     0.109 A 
HETATM    8  C   UNL     1      64.439   6.196   6.711  1.00  0.00     0.109 A 
ENDROOT
BRANCH   1   9
HETATM    9  C   UNL     1      63.378   9.101   4.796  1.00  0.00     0.049 A 
HETATM   10  S   UNL     1      62.781   8.671   3.238  1.00  0.00    -0.098 SA
HETATM   11  C   UNL     1      61.943  10.147   3.063  1.00  0.00     0.050 A 
HETATM   12  C   UNL     1      62.115  10.969   4.151  1.00  0.00     0.009 A 
HETATM   13  C   UNL     1      62.941  10.369   5.147  1.00  0.00     0.023 A 
ENDBRANCH   1   9
BRANCH   2  14
HETATM   14  C   UNL     1      66.581   5.623   7.871  1.00  0.00     0.212 C 
HETATM   15  O   UNL     1      66.183   4.857   8.727  1.00  0.00    -0.644 OA
HETATM   16  O   UNL     1      67.887   5.743   7.574  1.00  0.00    -0.644 OA
ENDBRANCH   2  14
TORSDOF 2
ENDMDL
MODEL 2
REMARK VINA RESULT:      -4.9      0.923      1.885
REMARK  2 active torsions:
REMARK  status: ('A' for Active; 'I' for Inactive)
REMARK    1  A    between atoms: C_1  and  C_7 
REMARK    2  A    between atoms: C_2  and  C_8 
ROOT
HETATM    1  C   UNL     1      64.312   8.033   5.630  1.00  0.00     0.122 A 
HETATM    2  C   UNL     1      65.926   6.566   7.237  1.00  0.00     0.071 A 
HETATM    3  N   UNL     1      65.540   8.519   5.898  1.00  0.00    -0.350 N 
ATOM      4  HN  UNL     1      65.861   9.409   5.514  1.00  0.00     0.166 HD
HETATM    5  N   UNL     1      63.820   6.873   6.111  1.00  0.00    -0.350 N 
ATOM      6  HN  UNL     1      62.879   6.551   5.886  1.00  0.00     0.166 HD
HETATM    7  C   UNL     1      64.650   6.162   6.911  1.00  0.00     0.109 A 
HETATM    8  C   UNL     1      66.323   7.769   6.701  1.00  0.00     0.109 A 
ENDROOT
BRANCH   1   9
HETATM    9  C   UNL     1      63.451   8.797   4.720  1.00  0.00     0.049 A 
HETATM   10  S   UNL     1      62.879  10.362   5.158  1.00  0.00    -0.098 SA
HETATM   11  C   UNL     1      62.057  10.565   3.677  1.00  0.00     0.050 A 
HETATM   12  C   UNL     1      62.191   9.468   2.859  1.00  0.00     0.009 A 
HETATM   13  C   UNL     1      62.991   8.451   3.459  1.00  0.00     0.023 A 
ENDBRANCH   1   9
BRANCH   2  14
HETATM   14  C   UNL     1      66.782   5.741   8.094  1.00  0.00     0.212 C 
HETATM   15  O   UNL     1      67.907   6.028   8.453  1.00  0.00    -0.644 OA
HETATM   16  O   UNL     1      66.184   4.597   8.468  1.00  0.00    -0.644 OA
ENDBRANCH   2  14
TORSDOF 2
ENDMDL
MODEL 3
REMARK VINA RESULT:      -4.8      3.957      5.995
REMARK  2 active torsions:
REMARK  status: ('A' for Active; 'I' for Inactive)
REMARK    1  A    between atoms: C_1  and  C_7 
REMARK    2  A    between atoms: C_2  and  C_8 
ROOT
HETATM    1  C   UNL     1      64.847   7.584   5.168  1.00  0.00     0.122 A 
HETATM    2  C   UNL     1      63.038   9.162   3.911  1.00  0.00     0.071 A 
HETATM    3  N   UNL     1      64.313   7.131   4.017  1.00  0.00    -0.350 N 
ATOM      4  HN  UNL     1      64.573   6.227   3.624  1.00  0.00     0.166 HD
HETATM    5  N   UNL     1      64.541   8.762   5.749  1.00  0.00    -0.350 N 
ATOM      6  HN  UNL     1      64.967   9.058   6.627  1.00  0.00     0.166 HD
HETATM    7  C   UNL     1      63.634   9.529   5.097  1.00  0.00     0.109 A 
HETATM    8  C   UNL     1      63.415   7.936   3.412  1.00  0.00     0.109 A 
ENDROOT
BRANCH   1   9
HETATM    9  C   UNL     1      65.864   6.759   5.829  1.00  0.00     0.049 A 
HETATM   10  S   UNL     1      65.831   6.522   7.535  1.00  0.00    -0.098 SA
HETATM   11  C   UNL     1      67.199   5.503   7.502  1.00  0.00     0.050 A 
HETATM   12  C   UNL     1      67.694   5.347   6.229  1.00  0.00     0.009 A 
HETATM   13  C   UNL     1      66.928   6.070   5.267  1.00  0.00     0.023 A 
ENDBRANCH   1   9
BRANCH   2  14
HETATM   14  C   UNL     1      62.078  10.045   3.245  1.00  0.00     0.212 C 
HETATM   15  O   UNL     1      61.643   9.896   2.120  1.00  0.00    -0.644 OA
HETATM   16  O   UNL     1      61.700  11.073   4.024  1.00  0.00    -0.644 OA
ENDBRANCH   2  14
TORSDOF 2
ENDMDL
MODEL 4
REMARK VINA RESULT:      -4.7      3.720      5.938
REMARK  2 active torsions:
REMARK  status: ('A' for Active; 'I' for Inactive)
REMARK    1  A    between atoms: C_1  and  C_7 
REMARK    2  A    between atoms: C_2  and  C_8 
ROOT
HETATM    1  C   UNL     1      64.756   7.270   6.402  1.00  0.00     0.122 A 
HETATM    2  C   UNL     1      62.975   8.652   4.899  1.00  0.00     0.071 A 
HETATM    3  N   UNL     1      65.181   8.404   5.811  1.00  0.00    -0.350 N 
ATOM      4  HN  UNL     1      66.138   8.739   5.919  1.00  0.00     0.166 HD
HETATM    5  N   UNL     1      63.510   6.763   6.293  1.00  0.00    -0.350 N 
ATOM      6  HN  UNL     1      63.238   5.895   6.753  1.00  0.00     0.166 HD
HETATM    7  C   UNL     1      62.643   7.477   5.535  1.00  0.00     0.109 A 
HETATM    8  C   UNL     1      64.274   9.073   5.069  1.00  0.00     0.109 A 
ENDROOT
BRANCH   1   9
HETATM    9  C   UNL     1      65.699   6.542   7.258  1.00  0.00     0.049 A 
HETATM   10  S   UNL     1      65.633   4.825   7.377  1.00  0.00    -0.098 SA
HETATM   11  C   UNL     1      66.967   4.766   8.439  1.00  0.00     0.050 A 
HETATM   12  C   UNL     1      67.457   6.019   8.720  1.00  0.00     0.009 A 
HETATM   13  C   UNL     1      66.727   7.040   8.043  1.00  0.00     0.023 A 
ENDBRANCH   1   9
BRANCH   2  14
HETATM   14  C   UNL     1      61.985   9.388   4.108  1.00  0.00     0.212 C 
HETATM   15  O   UNL     1      61.233   8.900   3.287  1.00  0.00    -0.644 OA
HETATM   16  O   UNL     1      61.977  10.702   4.391  1.00  0.00    -0.644 OA
ENDBRANCH   2  14
TORSDOF 2
ENDMDL
MODEL 5
REMARK VINA RESULT:      -4.3      3.955      5.030
REMARK  2 active torsions:
REMARK  status: ('A' for Active; 'I' for Inactive)
REMARK    1  A    between atoms: C_1  and  C_7 
REMARK    2  A    between atoms: C_2  and  C_8 
ROOT
HETATM    1  C   UNL     1      60.611   8.121   3.529  1.00  0.00     0.122 A 
HETATM    2  C   UNL     1      62.836   9.005   4.797  1.00  0.00     0.071 A 
HETATM    3  N   UNL     1      61.289   7.242   4.292  1.00  0.00    -0.350 N 
ATOM      4  HN  UNL     1      60.984   6.274   4.395  1.00  0.00     0.166 HD
HETATM    5  N   UNL     1      60.963   9.410   3.339  1.00  0.00    -0.350 N 
ATOM      6  HN  UNL     1      60.421  10.036   2.745  1.00  0.00     0.166 HD
HETATM    7  C   UNL     1      62.079   9.822   3.987  1.00  0.00     0.109 A 
HETATM    8  C   UNL     1      62.393   7.707   4.912  1.00  0.00     0.109 A 
ENDROOT
BRANCH   1   9
HETATM    9  C   UNL     1      59.377   7.665   2.879  1.00  0.00     0.049 A 
HETATM   10  S   UNL     1      59.313   7.444   1.172  1.00  0.00    -0.098 SA
HETATM   11  C   UNL     1      57.694   6.909   1.220  1.00  0.00     0.050 A 
HETATM   12  C   UNL     1      57.191   6.905   2.500  1.00  0.00     0.009 A 
HETATM   13  C   UNL     1      58.158   7.341   3.453  1.00  0.00     0.023 A 
ENDBRANCH   1   9
BRANCH   2  14
HETATM   14  C   UNL     1      64.024   9.517   5.485  1.00  0.00     0.212 C 
HETATM   15  O   UNL     1      64.198  10.668   5.834  1.00  0.00    -0.644 OA
HETATM   16  O   UNL     1      64.937   8.558   5.714  1.00  0.00    -0.644 OA
ENDBRANCH   2  14
TORSDOF 2
ENDMDL
MODEL 6
REMARK VINA RESULT:      -4.3      2.589      3.399
REMARK  2 active torsions:
REMARK  status: ('A' for Active; 'I' for Inactive)
REMARK    1  A    between atoms: C_1  and  C_7 
REMARK    2  A    between atoms: C_2  and  C_8 
ROOT
HETATM    1  C   UNL     1      62.945   7.865   3.305  1.00  0.00     0.122 A 
HETATM    2  C   UNL     1      65.195   7.847   4.814  1.00  0.00     0.071 A 
HETATM    3  N   UNL     1      63.797   6.834   3.148  1.00  0.00    -0.350 N 
ATOM      4  HN  UNL     1      63.611   6.080   2.486  1.00  0.00     0.166 HD
HETATM    5  N   UNL     1      63.133   8.898   4.152  1.00  0.00    -0.350 N 
ATOM      6  HN  UNL     1      62.461   9.662   4.230  1.00  0.00     0.166 HD
HETATM    7  C   UNL     1      64.267   8.861   4.893  1.00  0.00     0.109 A 
HETATM    8  C   UNL     1      64.910   6.849   3.911  1.00  0.00     0.109 A 
ENDROOT
BRANCH   1   9
HETATM    9  C   UNL     1      61.700   7.857   2.529  1.00  0.00     0.049 A 
HETATM   10  S   UNL     1      60.368   6.879   3.016  1.00  0.00    -0.098 SA
HETATM   11  C   UNL     1      59.391   7.425   1.728  1.00  0.00     0.050 A 
HETATM   12  C   UNL     1      60.053   8.323   0.925  1.00  0.00     0.009 A 
HETATM   13  C   UNL     1      61.381   8.570   1.384  1.00  0.00     0.023 A 
ENDBRANCH   1   9
BRANCH   2  14
HETATM   14  C   UNL     1      66.394   7.856   5.657  1.00  0.00     0.212 C 
HETATM   15  O   UNL     1      67.347   7.110   5.538  1.00  0.00    -0.644 OA
HETATM   16  O   UNL     1      66.346   8.806   6.606  1.00  0.00    -0.644 OA
ENDBRANCH   2  14
TORSDOF 2
ENDMDL
MODEL 7
REMARK VINA RESULT:      -3.7      4.039      4.770
REMARK  2 active torsions:
REMARK  status: ('A' for Active; 'I' for Inactive)
REMARK    1  A    between atoms: C_1  and  C_7 
REMARK    2  A    between atoms: C_2  and  C_8 
ROOT
HETATM    1  C   UNL     1      60.999   7.287   4.276  1.00  0.00     0.122 A 
HETATM    2  C   UNL     1      60.377   5.849   6.487  1.00  0.00     0.071 A 
HETATM    3  N   UNL     1      59.787   6.701   4.322  1.00  0.00    -0.350 N 
ATOM      4  HN  UNL     1      59.118   6.788   3.556  1.00  0.00     0.166 HD
HETATM    5  N   UNL     1      61.933   7.204   5.245  1.00  0.00    -0.350 N 
ATOM      6  HN  UNL     1      62.842   7.660   5.160  1.00  0.00     0.166 HD
HETATM    7  C   UNL     1      61.593   6.479   6.338  1.00  0.00     0.109 A 
HETATM    8  C   UNL     1      59.502   5.991   5.434  1.00  0.00     0.109 A 
ENDROOT
BRANCH   1   9
HETATM    9  C   UNL     1      61.324   8.109   3.105  1.00  0.00     0.049 A 
HETATM   10  S   UNL     1      61.848   9.739   3.294  1.00  0.00    -0.098 SA
HETATM   11  C   UNL     1      62.042   9.957   1.613  1.00  0.00     0.050 A 
HETATM   12  C   UNL     1      61.706   8.828   0.905  1.00  0.00     0.009 A 
HETATM   13  C   UNL     1      61.291   7.765   1.762  1.00  0.00     0.023 A 
ENDBRANCH   1   9
BRANCH   2  14
HETATM   14  C   UNL     1      60.063   5.095   7.703  1.00  0.00     0.212 C 
HETATM   15  O   UNL     1      59.429   5.515   8.651  1.00  0.00    -0.644 OA
HETATM   16  O   UNL     1      60.550   3.843   7.670  1.00  0.00    -0.644 OA
ENDBRANCH   2  14
TORSDOF 2
ENDMDL
MODEL 8
REMARK VINA RESULT:      -3.7      6.019      6.852
REMARK  2 active torsions:
REMARK  status: ('A' for Active; 'I' for Inactive)
REMARK    1  A    between atoms: C_1  and  C_7 
REMARK    2  A    between atoms: C_2  and  C_8 
ROOT
HETATM    1  C   UNL     1      59.736   7.505   3.387  1.00  0.00     0.122 A 
HETATM    2  C   UNL     1      57.964   6.684   5.266  1.00  0.00     0.071 A 
HETATM    3  N   UNL     1      60.164   6.621   4.309  1.00  0.00    -0.350 N 
ATOM      4  HN  UNL     1      61.121   6.266   4.309  1.00  0.00     0.166 HD
HETATM    5  N   UNL     1      58.491   8.022   3.335  1.00  0.00    -0.350 N 
ATOM      6  HN  UNL     1      58.216   8.696   2.620  1.00  0.00     0.166 HD
HETATM    7  C   UNL     1      57.628   7.592   4.287  1.00  0.00     0.109 A 
HETATM    8  C   UNL     1      59.262   6.228   5.233  1.00  0.00     0.109 A 
ENDROOT
BRANCH   1   9
HETATM    9  C   UNL     1      60.673   7.916   2.336  1.00  0.00     0.049 A 
HETATM   10  S   UNL     1      60.946   6.914   0.962  1.00  0.00    -0.098 SA
HETATM   11  C   UNL     1      62.035   8.028   0.265  1.00  0.00     0.050 A 
HETATM   12  C   UNL     1      62.212   9.138   1.055  1.00  0.00     0.009 A 
HETATM   13  C   UNL     1      61.431   9.073   2.247  1.00  0.00     0.023 A 
ENDBRANCH   1   9
BRANCH   2  14
HETATM   14  C   UNL     1      56.979   6.244   6.257  1.00  0.00     0.212 C 
HETATM   15  O   UNL     1      56.829   5.103   6.646  1.00  0.00    -0.644 OA
HETATM   16  O   UNL     1      56.231   7.260   6.721  1.00  0.00    -0.644 OA
ENDBRANCH   2  14
TORSDOF 2
ENDMDL
MODEL 9
REMARK VINA RESULT:      -3.6      6.005      6.950
REMARK  2 active torsions:
REMARK  status: ('A' for Active; 'I' for Inactive)
REMARK    1  A    between atoms: C_1  and  C_7 
REMARK    2  A    between atoms: C_2  and  C_8 
ROOT
HETATM    1  C   UNL     1      58.839   7.098   4.151  1.00  0.00     0.122 A 
HETATM    2  C   UNL     1      57.854   6.340   6.557  1.00  0.00     0.071 A 
HETATM    3  N   UNL     1      59.623   6.335   4.936  1.00  0.00    -0.350 N 
ATOM      4  HN  UNL     1      60.557   6.046   4.644  1.00  0.00     0.166 HD
HETATM    5  N   UNL     1      57.601   7.524   4.476  1.00  0.00    -0.350 N 
ATOM      6  HN  UNL     1      57.049   8.109   3.850  1.00  0.00     0.166 HD
HETATM    7  C   UNL     1      57.136   7.128   5.686  1.00  0.00     0.109 A 
HETATM    8  C   UNL     1      59.108   5.971   6.129  1.00  0.00     0.109 A 
ENDROOT
BRANCH   1   9
HETATM    9  C   UNL     1      59.345   7.471   2.825  1.00  0.00     0.049 A 
HETATM   10  S   UNL     1      58.345   7.323   1.430  1.00  0.00    -0.098 SA
HETATM   11  C   UNL     1      59.554   7.944   0.398  1.00  0.00     0.050 A 
HETATM   12  C   UNL     1      60.707   8.249   1.080  1.00  0.00     0.009 A 
HETATM   13  C   UNL     1      60.588   7.976   2.476  1.00  0.00     0.023 A 
ENDBRANCH   1   9
BRANCH   2  14
HETATM   14  C   UNL     1      57.287   5.929   7.845  1.00  0.00     0.212 C 
HETATM   15  O   UNL     1      56.200   5.409   8.004  1.00  0.00    -0.644 OA
HETATM   16  O   UNL     1      58.114   6.183   8.873  1.00  0.00    -0.644 OA
ENDBRANCH   2  14
TORSDOF 2
ENDMDL
