MODEL 1
REMARK VINA RESULT:      -5.8      0.000      0.000
REMARK  2 active torsions:
REMARK  status: ('A' for Active; 'I' for Inactive)
REMARK    1  A    between atoms: C_1  and  C_7 
REMARK    2  A    between atoms: C_2  and  C_11 
ROOT
HETATM    1  C   UNL     1      65.798   6.553   7.116  1.00  0.00     0.071 A 
HETATM    2  C   UNL     1      64.259   8.193   5.587  1.00  0.00     0.115 A 
HETATM    3  N   UNL     1      65.509   8.598   5.893  1.00  0.00    -0.351 N 
ATOM      4  HN  UNL     1      65.877   9.491   5.565  1.00  0.00     0.166 HD
HETATM    5  N   UNL     1      63.724   7.022   5.997  1.00  0.00    -0.351 N 
ATOM      6  HN  UNL     1      62.773   6.753   5.746  1.00  0.00     0.166 HD
HETATM    7  C   UNL     1      64.511   6.226   6.756  1.00  0.00     0.109 A 
HETATM    8  C   UNL     1      66.251   7.765   6.654  1.00  0.00     0.109 A 
ENDROOT
BRANCH   2   9
HETATM    9  C   UNL     1      63.429   9.090   4.758  1.00  0.00     0.008 A 
HETATM   10  C   UNL     1      62.977   8.707   3.479  1.00  0.00     0.015 A 
HETATM   11  C   UNL     1      62.185   9.555   2.701  1.00  0.00     0.001 A 
HETATM   12  C   UNL     1      61.826  10.812   3.181  1.00  0.00     0.000 A 
HETATM   13  C   UNL     1      62.261  11.220   4.438  1.00  0.00     0.001 A 
HETATM   14  C   UNL     1      63.052  10.369   5.215  1.00  0.00     0.015 A 
ENDBRANCH   2   9
BRANCH   1  15
HETATM   15  C   UNL     1      66.602   5.645   7.936  1.00  0.00     0.212 C 
HETATM   16  O   UNL     1      66.187   4.970   8.859  1.00  0.00    -0.644 OA
HETATM   17  O   UNL     1      67.892   5.621   7.561  1.00  0.00    -0.644 OA
ENDBRANCH   1  15
TORSDOF 2
ENDMDL
MODEL 2
REMARK VINA RESULT:      -5.8      0.206      1.259
REMARK  2 active torsions:
REMARK  status: ('A' for Active; 'I' for Inactive)
REMARK    1  A    between atoms: C_1  and  C_7 
REMARK    2  A    between atoms: C_2  and  C_11 
ROOT
HETATM    1  C   UNL     1      65.731   6.673   7.004  1.00  0.00     0.071 A 
HETATM    2  C   UNL     1      64.178   8.271   5.443  1.00  0.00     0.115 A 
HETATM    3  N   UNL     1      65.435   8.679   5.719  1.00  0.00    -0.351 N 
ATOM      4  HN  UNL     1      65.802   9.559   5.357  1.00  0.00     0.166 HD
HETATM    5  N   UNL     1      63.644   7.117   5.898  1.00  0.00    -0.351 N 
ATOM      6  HN  UNL     1      62.688   6.844   5.669  1.00  0.00     0.166 HD
HETATM    7  C   UNL     1      64.437   6.341   6.671  1.00  0.00     0.109 A 
HETATM    8  C   UNL     1      66.183   7.867   6.496  1.00  0.00     0.109 A 
ENDROOT
BRANCH   2   9
HETATM    9  C   UNL     1      63.341   9.144   4.597  1.00  0.00     0.008 A 
HETATM   10  C   UNL     1      62.918  10.414   5.036  1.00  0.00     0.015 A 
HETATM   11  C   UNL     1      62.133  11.241   4.228  1.00  0.00     0.001 A 
HETATM   12  C   UNL     1      61.748  10.817   2.959  1.00  0.00     0.000 A 
HETATM   13  C   UNL     1      62.146   9.566   2.500  1.00  0.00     0.001 A 
HETATM   14  C   UNL     1      62.932   8.742   3.309  1.00  0.00     0.015 A 
ENDBRANCH   2   9
BRANCH   1  15
HETATM   15  C   UNL     1      66.541   5.788   7.842  1.00  0.00     0.212 C 
HETATM   16  O   UNL     1      66.112   5.016   8.677  1.00  0.00    -0.644 OA
HETATM   17  O   UNL     1      67.857   5.908   7.593  1.00  0.00    -0.644 OA
ENDBRANCH   1  15
TORSDOF 2
ENDMDL
MODEL 3
REMARK VINA RESULT:      -5.8      0.276      1.246
REMARK  2 active torsions:
REMARK  status: ('A' for Active; 'I' for Inactive)
REMARK    1  A    between atoms: C_1  and  C_7 
REMARK    2  A    between atoms: C_2  and  C_11 
ROOT
HETATM    1  C   UNL     1      65.569   6.494   7.022  1.00  0.00     0.071 A 
HETATM    2  C   UNL     1      64.118   8.209   5.488  1.00  0.00     0.115 A 
HETATM    3  N   UNL     1      63.536   7.054   5.876  1.00  0.00    -0.351 N 
ATOM      4  HN  UNL     1      62.580   6.822   5.607  1.00  0.00     0.166 HD
HETATM    5  N   UNL     1      65.380   8.564   5.814  1.00  0.00    -0.351 N 
ATOM      6  HN  UNL     1      65.786   9.445   5.499  1.00  0.00     0.166 HD
HETATM    7  C   UNL     1      66.079   7.693   6.578  1.00  0.00     0.109 A 
HETATM    8  C   UNL     1      64.279   6.222   6.636  1.00  0.00     0.109 A 
ENDROOT
BRANCH   2   9
HETATM    9  C   UNL     1      63.324   9.134   4.654  1.00  0.00     0.008 A 
HETATM   10  C   UNL     1      62.896   8.779   3.360  1.00  0.00     0.015 A 
HETATM   11  C   UNL     1      62.137   9.654   2.577  1.00  0.00     0.001 A 
HETATM   12  C   UNL     1      61.791  10.910   3.069  1.00  0.00     0.000 A 
HETATM   13  C   UNL     1      62.204  11.290   4.341  1.00  0.00     0.001 A 
HETATM   14  C   UNL     1      62.960  10.412   5.123  1.00  0.00     0.015 A 
ENDBRANCH   2   9
BRANCH   1  15
HETATM   15  C   UNL     1      66.375   5.597   7.851  1.00  0.00     0.212 C 
HETATM   16  O   UNL     1      65.965   4.609   8.429  1.00  0.00    -0.644 OA
HETATM   17  O   UNL     1      67.663   5.977   7.915  1.00  0.00    -0.644 OA
ENDBRANCH   1  15
TORSDOF 2
ENDMDL
MODEL 4
REMARK VINA RESULT:      -4.8      4.079      5.318
REMARK  2 active torsions:
REMARK  status: ('A' for Active; 'I' for Inactive)
REMARK    1  A    between atoms: C_1  and  C_7 
REMARK    2  A    between atoms: C_2  and  C_11 
ROOT
HETATM    1  C   UNL     1      63.014   8.794   4.607  1.00  0.00     0.071 A 
HETATM    2  C   UNL     1      60.613   8.018   3.591  1.00  0.00     0.115 A 
HETATM    3  N   UNL     1      61.393   7.079   4.167  1.00  0.00    -0.351 N 
ATOM      4  HN  UNL     1      61.100   6.104   4.226  1.00  0.00     0.166 HD
HETATM    5  N   UNL     1      60.954   9.321   3.486  1.00  0.00    -0.351 N 
ATOM      6  HN  UNL     1      60.338  10.001   3.041  1.00  0.00     0.166 HD
HETATM    7  C   UNL     1      62.153   9.680   4.000  1.00  0.00     0.109 A 
HETATM    8  C   UNL     1      62.579   7.492   4.662  1.00  0.00     0.109 A 
ENDROOT
BRANCH   2   9
HETATM    9  C   UNL     1      59.312   7.589   3.041  1.00  0.00     0.008 A 
HETATM   10  C   UNL     1      58.191   7.383   3.869  1.00  0.00     0.015 A 
HETATM   11  C   UNL     1      56.958   6.984   3.343  1.00  0.00     0.001 A 
HETATM   12  C   UNL     1      56.817   6.779   1.974  1.00  0.00     0.000 A 
HETATM   13  C   UNL     1      57.907   6.970   1.131  1.00  0.00     0.001 A 
HETATM   14  C   UNL     1      59.138   7.370   1.659  1.00  0.00     0.015 A 
ENDBRANCH   2   9
BRANCH   1  15
HETATM   15  C   UNL     1      64.297   9.245   5.148  1.00  0.00     0.212 C 
HETATM   16  O   UNL     1      65.366   8.686   4.994  1.00  0.00    -0.644 OA
HETATM   17  O   UNL     1      64.184  10.381   5.857  1.00  0.00    -0.644 OA
ENDBRANCH   1  15
TORSDOF 2
ENDMDL
MODEL 5
REMARK VINA RESULT:      -4.7      3.324      6.144
REMARK  2 active torsions:
REMARK  status: ('A' for Active; 'I' for Inactive)
REMARK    1  A    between atoms: C_1  and  C_7 
REMARK    2  A    between atoms: C_2  and  C_11 
ROOT
HETATM    1  C   UNL     1      62.969   8.375   4.370  1.00  0.00     0.071 A 
HETATM    2  C   UNL     1      64.905   7.199   5.877  1.00  0.00     0.115 A 
HETATM    3  N   UNL     1      64.003   6.403   5.265  1.00  0.00    -0.351 N 
ATOM      4  HN  UNL     1      64.038   5.387   5.358  1.00  0.00     0.166 HD
HETATM    5  N   UNL     1      64.902   8.547   5.788  1.00  0.00    -0.351 N 
ATOM      6  HN  UNL     1      65.599   9.116   6.268  1.00  0.00     0.166 HD
HETATM    7  C   UNL     1      63.929   9.106   5.032  1.00  0.00     0.109 A 
HETATM    8  C   UNL     1      63.054   7.012   4.524  1.00  0.00     0.109 A 
ENDROOT
BRANCH   2   9
HETATM    9  C   UNL     1      65.951   6.554   6.694  1.00  0.00     0.008 A 
HETATM   10  C   UNL     1      67.013   5.840   6.106  1.00  0.00     0.015 A 
HETATM   11  C   UNL     1      68.007   5.237   6.883  1.00  0.00     0.001 A 
HETATM   12  C   UNL     1      67.961   5.331   8.271  1.00  0.00     0.000 A 
HETATM   13  C   UNL     1      66.921   6.025   8.881  1.00  0.00     0.001 A 
HETATM   14  C   UNL     1      65.931   6.628   8.102  1.00  0.00     0.015 A 
ENDBRANCH   2   9
BRANCH   1  15
HETATM   15  C   UNL     1      61.944   9.039   3.563  1.00  0.00     0.212 C 
HETATM   16  O   UNL     1      60.891   8.544   3.210  1.00  0.00    -0.644 OA
HETATM   17  O   UNL     1      62.284  10.297   3.236  1.00  0.00    -0.644 OA
ENDBRANCH   1  15
TORSDOF 2
ENDMDL
MODEL 6
REMARK VINA RESULT:      -4.5      2.899      3.359
REMARK  2 active torsions:
REMARK  status: ('A' for Active; 'I' for Inactive)
REMARK    1  A    between atoms: C_1  and  C_7 
REMARK    2  A    between atoms: C_2  and  C_11 
ROOT
HETATM    1  C   UNL     1      62.317   5.246   5.670  1.00  0.00     0.071 A 
HETATM    2  C   UNL     1      62.161   7.568   4.261  1.00  0.00     0.115 A 
HETATM    3  N   UNL     1      61.953   6.409   3.602  1.00  0.00    -0.351 N 
ATOM      4  HN  UNL     1      61.743   6.393   2.604  1.00  0.00     0.166 HD
HETATM    5  N   UNL     1      62.444   7.645   5.580  1.00  0.00    -0.351 N 
ATOM      6  HN  UNL     1      62.598   8.541   6.042  1.00  0.00     0.166 HD
HETATM    7  C   UNL     1      62.515   6.475   6.257  1.00  0.00     0.109 A 
HETATM    8  C   UNL     1      62.037   5.272   4.325  1.00  0.00     0.109 A 
ENDROOT
BRANCH   2   9
HETATM    9  C   UNL     1      62.076   8.824   3.489  1.00  0.00     0.008 A 
HETATM   10  C   UNL     1      62.067   8.826   2.080  1.00  0.00     0.015 A 
HETATM   11  C   UNL     1      61.979  10.017   1.353  1.00  0.00     0.001 A 
HETATM   12  C   UNL     1      61.900  11.237   2.018  1.00  0.00     0.000 A 
HETATM   13  C   UNL     1      61.912  11.267   3.409  1.00  0.00     0.001 A 
HETATM   14  C   UNL     1      61.999  10.075   4.133  1.00  0.00     0.015 A 
ENDBRANCH   2   9
BRANCH   1  15
HETATM   15  C   UNL     1      62.403   4.016   6.458  1.00  0.00     0.212 C 
HETATM   16  O   UNL     1      61.652   3.701   7.362  1.00  0.00    -0.644 OA
HETATM   17  O   UNL     1      63.426   3.233   6.077  1.00  0.00    -0.644 OA
ENDBRANCH   1  15
TORSDOF 2
ENDMDL
MODEL 7
REMARK VINA RESULT:      -4.4      1.766      2.641
REMARK  2 active torsions:
REMARK  status: ('A' for Active; 'I' for Inactive)
REMARK    1  A    between atoms: C_1  and  C_7 
REMARK    2  A    between atoms: C_2  and  C_11 
ROOT
HETATM    1  C   UNL     1      65.560   6.790   6.107  1.00  0.00     0.071 A 
HETATM    2  C   UNL     1      63.985   7.463   3.993  1.00  0.00     0.115 A 
HETATM    3  N   UNL     1      65.211   6.957   3.739  1.00  0.00    -0.351 N 
ATOM      4  HN  UNL     1      65.546   6.826   2.784  1.00  0.00     0.166 HD
HETATM    5  N   UNL     1      63.494   7.658   5.237  1.00  0.00    -0.351 N 
ATOM      6  HN  UNL     1      62.564   8.046   5.389  1.00  0.00     0.166 HD
HETATM    7  C   UNL     1      64.298   7.315   6.270  1.00  0.00     0.109 A 
HETATM    8  C   UNL     1      65.971   6.632   4.806  1.00  0.00     0.109 A 
ENDROOT
BRANCH   2   9
HETATM    9  C   UNL     1      63.138   7.827   2.841  1.00  0.00     0.008 A 
HETATM   10  C   UNL     1      62.500   9.080   2.759  1.00  0.00     0.015 A 
HETATM   11  C   UNL     1      61.705   9.424   1.662  1.00  0.00     0.001 A 
HETATM   12  C   UNL     1      61.525   8.520   0.619  1.00  0.00     0.000 A 
HETATM   13  C   UNL     1      62.138   7.273   0.673  1.00  0.00     0.001 A 
HETATM   14  C   UNL     1      62.934   6.932   1.771  1.00  0.00     0.015 A 
ENDBRANCH   2   9
BRANCH   1  15
HETATM   15  C   UNL     1      66.379   6.434   7.267  1.00  0.00     0.212 C 
HETATM   16  O   UNL     1      67.467   5.892   7.225  1.00  0.00    -0.644 OA
HETATM   17  O   UNL     1      65.799   6.776   8.430  1.00  0.00    -0.644 OA
ENDBRANCH   1  15
TORSDOF 2
ENDMDL
MODEL 8
REMARK VINA RESULT:      -4.4      4.281      5.911
REMARK  2 active torsions:
REMARK  status: ('A' for Active; 'I' for Inactive)
REMARK    1  A    between atoms: C_1  and  C_7 
REMARK    2  A    between atoms: C_2  and  C_11 
ROOT
HETATM    1  C   UNL     1      63.329   9.411   4.507  1.00  0.00     0.071 A 
HETATM    2  C   UNL     1      64.558   7.116   3.717  1.00  0.00     0.115 A 
HETATM    3  N   UNL     1      65.049   7.762   4.796  1.00  0.00    -0.351 N 
ATOM      4  HN  UNL     1      65.857   7.408   5.308  1.00  0.00     0.166 HD
HETATM    5  N   UNL     1      63.493   7.542   3.004  1.00  0.00    -0.351 N 
ATOM      6  HN  UNL     1      63.152   7.027   2.192  1.00  0.00     0.166 HD
HETATM    7  C   UNL     1      62.900   8.686   3.418  1.00  0.00     0.109 A 
HETATM    8  C   UNL     1      64.420   8.898   5.165  1.00  0.00     0.109 A 
ENDROOT
BRANCH   2   9
HETATM    9  C   UNL     1      65.231   5.872   3.294  1.00  0.00     0.008 A 
HETATM   10  C   UNL     1      66.603   5.658   3.530  1.00  0.00     0.015 A 
HETATM   11  C   UNL     1      67.235   4.475   3.135  1.00  0.00     0.001 A 
HETATM   12  C   UNL     1      66.510   3.477   2.491  1.00  0.00     0.000 A 
HETATM   13  C   UNL     1      65.154   3.662   2.240  1.00  0.00     0.001 A 
HETATM   14  C   UNL     1      64.525   4.844   2.637  1.00  0.00     0.015 A 
ENDBRANCH   2   9
BRANCH   1  15
HETATM   15  C   UNL     1      62.641  10.639   4.908  1.00  0.00     0.212 C 
HETATM   16  O   UNL     1      61.787  11.216   4.262  1.00  0.00    -0.644 OA
HETATM   17  O   UNL     1      63.053  11.090   6.105  1.00  0.00    -0.644 OA
ENDBRANCH   1  15
TORSDOF 2
ENDMDL
MODEL 9
REMARK VINA RESULT:      -4.4      2.316      2.750
REMARK  2 active torsions:
REMARK  status: ('A' for Active; 'I' for Inactive)
REMARK    1  A    between atoms: C_1  and  C_7 
REMARK    2  A    between atoms: C_2  and  C_11 
ROOT
HETATM    1  C   UNL     1      64.433   5.246   4.508  1.00  0.00     0.071 A 
HETATM    2  C   UNL     1      63.377   7.649   3.794  1.00  0.00     0.115 A 
HETATM    3  N   UNL     1      63.720   6.788   2.813  1.00  0.00    -0.351 N 
ATOM      4  HN  UNL     1      63.591   7.022   1.828  1.00  0.00     0.166 HD
HETATM    5  N   UNL     1      63.529   7.390   5.111  1.00  0.00    -0.351 N 
ATOM      6  HN  UNL     1      63.259   8.068   5.823  1.00  0.00     0.166 HD
HETATM    7  C   UNL     1      64.055   6.188   5.439  1.00  0.00     0.109 A 
HETATM    8  C   UNL     1      64.242   5.603   3.196  1.00  0.00     0.109 A 
ENDROOT
BRANCH   2   9
HETATM    9  C   UNL     1      62.806   8.952   3.398  1.00  0.00     0.008 A 
HETATM   10  C   UNL     1      62.422   9.217   2.069  1.00  0.00     0.015 A 
HETATM   11  C   UNL     1      61.874  10.449   1.700  1.00  0.00     0.001 A 
HETATM   12  C   UNL     1      61.700  11.450   2.652  1.00  0.00     0.000 A 
HETATM   13  C   UNL     1      62.075  11.219   3.972  1.00  0.00     0.001 A 
HETATM   14  C   UNL     1      62.621   9.986   4.338  1.00  0.00     0.015 A 
ENDBRANCH   2   9
BRANCH   1  15
HETATM   15  C   UNL     1      64.993   3.960   4.927  1.00  0.00     0.212 C 
HETATM   16  O   UNL     1      64.868   2.907   4.332  1.00  0.00    -0.644 OA
HETATM   17  O   UNL     1      65.688   4.052   6.074  1.00  0.00    -0.644 OA
ENDBRANCH   1  15
TORSDOF 2
ENDMDL
