MODEL 1
REMARK VINA RESULT:      -4.5      0.000      0.000
REMARK  4 active torsions:
REMARK  status: ('A' for Active; 'I' for Inactive)
REMARK    1  A    between atoms: N_1  and  C_6 
REMARK    2  A    between atoms: C_3  and  C_6 
REMARK    3  A    between atoms: N_10  and  C_14 
REMARK    4  A    between atoms: C_13  and  C_14 
ROOT
HETATM    1  N   UNL     1      63.736   7.715   5.135  1.00  0.00    -0.067 N 
HETATM    2  C   UNL     1      64.821   8.709   5.150  1.00  0.00     0.235 C 
HETATM    3  C   UNL     1      63.758   6.905   6.363  1.00  0.00     0.235 C 
HETATM    4  C   UNL     1      66.188   8.035   5.275  1.00  0.00     0.034 C 
HETATM    5  C   UNL     1      65.096   6.186   6.548  1.00  0.00     0.034 C 
HETATM    6  C   UNL     1      66.268   7.178   6.543  1.00  0.00     0.014 C 
HETATM    7  H   UNL     1      63.888   7.110   4.328  1.00  0.00     0.280 HD
ENDROOT
BRANCH   1   8
HETATM    8  C   UNL     1      62.413   8.362   4.993  1.00  0.00     0.280 C 
BRANCH   8   9
HETATM    9  C   UNL     1      62.264   9.086   3.682  1.00  0.00     0.008 A 
HETATM   10  S   UNL     1      62.371   8.227   2.203  1.00  0.00    -0.105 SA
HETATM   11  C   UNL     1      62.033   9.631   1.289  1.00  0.00     0.050 A 
HETATM   12  C   UNL     1      61.876  10.742   2.086  1.00  0.00     0.008 A 
HETATM   13  C   UNL     1      62.023  10.430   3.469  1.00  0.00     0.017 A 
ENDBRANCH   8   9
ENDBRANCH   1   8
BRANCH   6  14
HETATM   14  C   UNL     1      67.631   6.478   6.627  1.00  0.00     0.234 C 
BRANCH  14  15
HETATM   15  N   UNL     1      68.075   6.331   8.010  1.00  0.00    -0.079 N 
HETATM   16  H   UNL     1      68.007   7.230   8.486  1.00  0.00     0.274 HD
HETATM   17  H   UNL     1      69.043   6.011   8.024  1.00  0.00     0.274 HD
HETATM   18  H   UNL     1      67.484   5.649   8.486  1.00  0.00     0.274 HD
ENDBRANCH  14  15
ENDBRANCH   6  14
TORSDOF 4
ENDMDL
MODEL 2
REMARK VINA RESULT:      -4.4      2.534      6.132
REMARK  4 active torsions:
REMARK  status: ('A' for Active; 'I' for Inactive)
REMARK    1  A    between atoms: N_1  and  C_6 
REMARK    2  A    between atoms: C_3  and  C_6 
REMARK    3  A    between atoms: N_10  and  C_14 
REMARK    4  A    between atoms: C_13  and  C_14 
ROOT
HETATM    1  N   UNL     1      63.757   8.027   4.907  1.00  0.00    -0.067 N 
HETATM    2  C   UNL     1      63.184   7.263   3.786  1.00  0.00     0.235 C 
HETATM    3  C   UNL     1      62.854   9.118   5.306  1.00  0.00     0.235 C 
HETATM    4  C   UNL     1      62.928   8.164   2.576  1.00  0.00     0.034 C 
HETATM    5  C   UNL     1      62.563  10.071   4.145  1.00  0.00     0.034 C 
HETATM    6  C   UNL     1      61.988   9.319   2.936  1.00  0.00     0.014 C 
HETATM    7  H   UNL     1      64.642   8.420   4.586  1.00  0.00     0.280 HD
ENDROOT
BRANCH   1   8
HETATM    8  C   UNL     1      64.026   7.156   6.072  1.00  0.00     0.280 C 
BRANCH   8   9
HETATM    9  C   UNL     1      65.494   6.878   6.256  1.00  0.00     0.008 A 
HETATM   10  S   UNL     1      66.065   6.175   7.712  1.00  0.00    -0.105 SA
HETATM   11  C   UNL     1      67.670   6.114   7.127  1.00  0.00     0.050 A 
HETATM   12  C   UNL     1      67.782   6.649   5.864  1.00  0.00     0.008 A 
HETATM   13  C   UNL     1      66.527   7.102   5.365  1.00  0.00     0.017 A 
ENDBRANCH   8   9
ENDBRANCH   1   8
BRANCH   6  14
HETATM   14  C   UNL     1      61.778  10.233   1.722  1.00  0.00     0.234 C 
BRANCH  14  15
HETATM   15  N   UNL     1      61.585  11.623   2.122  1.00  0.00    -0.079 N 
HETATM   16  H   UNL     1      60.621  11.899   1.939  1.00  0.00     0.274 HD
HETATM   17  H   UNL     1      62.216  12.222   1.590  1.00  0.00     0.274 HD
HETATM   18  H   UNL     1      61.784  11.720   3.118  1.00  0.00     0.274 HD
ENDBRANCH  14  15
ENDBRANCH   6  14
TORSDOF 4
ENDMDL
MODEL 3
REMARK VINA RESULT:      -4.2      2.708      6.266
REMARK  4 active torsions:
REMARK  status: ('A' for Active; 'I' for Inactive)
REMARK    1  A    between atoms: N_1  and  C_6 
REMARK    2  A    between atoms: C_3  and  C_6 
REMARK    3  A    between atoms: N_10  and  C_14 
REMARK    4  A    between atoms: C_13  and  C_14 
ROOT
HETATM    1  N   UNL     1      64.875   7.220   4.906  1.00  0.00    -0.067 N 
HETATM    2  C   UNL     1      64.800   8.672   5.137  1.00  0.00     0.235 C 
HETATM    3  C   UNL     1      64.489   6.895   3.523  1.00  0.00     0.235 C 
HETATM    4  C   UNL     1      63.389   9.202   4.877  1.00  0.00     0.034 C 
HETATM    5  C   UNL     1      63.078   7.384   3.195  1.00  0.00     0.034 C 
HETATM    6  C   UNL     1      62.936   8.892   3.447  1.00  0.00     0.014 C 
HETATM    7  H   UNL     1      64.224   6.775   5.552  1.00  0.00     0.280 HD
ENDROOT
BRANCH   1   8
HETATM    8  C   UNL     1      66.233   6.699   5.175  1.00  0.00     0.280 C 
BRANCH   8   9
HETATM    9  C   UNL     1      66.446   6.375   6.630  1.00  0.00     0.008 A 
HETATM   10  S   UNL     1      66.169   4.786   7.210  1.00  0.00    -0.105 SA
HETATM   11  C   UNL     1      66.682   5.204   8.786  1.00  0.00     0.050 A 
HETATM   12  C   UNL     1      67.025   6.534   8.884  1.00  0.00     0.008 A 
HETATM   13  C   UNL     1      66.876   7.214   7.641  1.00  0.00     0.017 A 
ENDBRANCH   8   9
ENDBRANCH   1   8
BRANCH   6  14
HETATM   14  C   UNL     1      61.504   9.394   3.221  1.00  0.00     0.234 C 
BRANCH  14  15
HETATM   15  N   UNL     1      61.486  10.782   2.770  1.00  0.00    -0.079 N 
HETATM   16  H   UNL     1      61.211  11.387   3.543  1.00  0.00     0.274 HD
HETATM   17  H   UNL     1      60.819  10.883   2.006  1.00  0.00     0.274 HD
HETATM   18  H   UNL     1      62.417  11.045   2.446  1.00  0.00     0.274 HD
ENDBRANCH  14  15
ENDBRANCH   6  14
TORSDOF 4
ENDMDL
MODEL 4
REMARK VINA RESULT:      -3.8      2.429      5.751
REMARK  4 active torsions:
REMARK  status: ('A' for Active; 'I' for Inactive)
REMARK    1  A    between atoms: N_1  and  C_6 
REMARK    2  A    between atoms: C_3  and  C_6 
REMARK    3  A    between atoms: N_10  and  C_14 
REMARK    4  A    between atoms: C_13  and  C_14 
ROOT
HETATM    1  N   UNL     1      63.014   7.516   4.995  1.00  0.00    -0.067 N 
HETATM    2  C   UNL     1      62.898   8.981   4.918  1.00  0.00     0.235 C 
HETATM    3  C   UNL     1      63.600   6.977   3.758  1.00  0.00     0.235 C 
HETATM    4  C   UNL     1      62.031   9.406   3.732  1.00  0.00     0.034 C 
HETATM    5  C   UNL     1      62.775   7.351   2.526  1.00  0.00     0.034 C 
HETATM    6  C   UNL     1      62.598   8.872   2.413  1.00  0.00     0.014 C 
HETATM    7  H   UNL     1      62.073   7.142   5.115  1.00  0.00     0.280 HD
ENDROOT
BRANCH   1   8
HETATM    8  C   UNL     1      63.835   7.099   6.153  1.00  0.00     0.280 C 
BRANCH   8   9
HETATM    9  C   UNL     1      65.303   7.033   5.824  1.00  0.00     0.008 A 
HETATM   10  S   UNL     1      66.099   5.518   5.723  1.00  0.00    -0.105 SA
HETATM   11  C   UNL     1      67.572   6.251   5.261  1.00  0.00     0.050 A 
HETATM   12  C   UNL     1      67.476   7.624   5.218  1.00  0.00     0.008 A 
HETATM   13  C   UNL     1      66.168   8.077   5.556  1.00  0.00     0.017 A 
ENDBRANCH   8   9
ENDBRANCH   1   8
BRANCH   6  14
HETATM   14  C   UNL     1      61.692   9.274   1.242  1.00  0.00     0.234 C 
BRANCH  14  15
HETATM   15  N   UNL     1      60.323   8.806   1.437  1.00  0.00    -0.079 N 
HETATM   16  H   UNL     1      59.749   9.571   1.789  1.00  0.00     0.274 HD
HETATM   17  H   UNL     1      60.318   8.041   2.111  1.00  0.00     0.274 HD
HETATM   18  H   UNL     1      59.946   8.478   0.548  1.00  0.00     0.274 HD
ENDBRANCH  14  15
ENDBRANCH   6  14
TORSDOF 4
ENDMDL
MODEL 5
REMARK VINA RESULT:      -3.6     10.871     11.935
REMARK  4 active torsions:
REMARK  status: ('A' for Active; 'I' for Inactive)
REMARK    1  A    between atoms: N_1  and  C_6 
REMARK    2  A    between atoms: C_3  and  C_6 
REMARK    3  A    between atoms: N_10  and  C_14 
REMARK    4  A    between atoms: C_13  and  C_14 
ROOT
HETATM    1  N   UNL     1      61.442  -0.359  11.800  1.00  0.00    -0.067 N 
HETATM    2  C   UNL     1      62.146  -1.133  12.836  1.00  0.00     0.235 C 
HETATM    3  C   UNL     1      62.075  -0.555  10.487  1.00  0.00     0.235 C 
HETATM    4  C   UNL     1      63.617  -0.723  12.928  1.00  0.00     0.034 C 
HETATM    5  C   UNL     1      63.551  -0.152  10.500  1.00  0.00     0.034 C 
HETATM    6  C   UNL     1      64.328  -0.910  11.584  1.00  0.00     0.014 C 
HETATM    7  H   UNL     1      61.502   0.625  12.062  1.00  0.00     0.280 HD
ENDROOT
BRANCH   1   8
HETATM    8  C   UNL     1      60.013  -0.737  11.722  1.00  0.00     0.280 C 
BRANCH   8   9
HETATM    9  C   UNL     1      59.150   0.083  12.642  1.00  0.00     0.008 A 
HETATM   10  S   UNL     1      57.566  -0.440  13.036  1.00  0.00    -0.105 SA
HETATM   11  C   UNL     1      57.326   0.877  14.098  1.00  0.00     0.050 A 
HETATM   12  C   UNL     1      58.412   1.721  14.129  1.00  0.00     0.008 A 
HETATM   13  C   UNL     1      59.462   1.270  13.278  1.00  0.00     0.017 A 
ENDBRANCH   8   9
ENDBRANCH   1   8
BRANCH   6  14
HETATM   14  C   UNL     1      65.790  -0.455  11.688  1.00  0.00     0.234 C 
BRANCH  14  15
HETATM   15  N   UNL     1      65.971   0.531  12.749  1.00  0.00    -0.079 N 
HETATM   16  H   UNL     1      65.717   1.455  12.401  1.00  0.00     0.274 HD
HETATM   17  H   UNL     1      66.948   0.536  13.044  1.00  0.00     0.274 HD
HETATM   18  H   UNL     1      65.377   0.289  13.542  1.00  0.00     0.274 HD
ENDBRANCH  14  15
ENDBRANCH   6  14
TORSDOF 4
ENDMDL
MODEL 6
REMARK VINA RESULT:      -3.4      3.816      5.114
REMARK  4 active torsions:
REMARK  status: ('A' for Active; 'I' for Inactive)
REMARK    1  A    between atoms: N_1  and  C_6 
REMARK    2  A    between atoms: C_3  and  C_6 
REMARK    3  A    between atoms: N_10  and  C_14 
REMARK    4  A    between atoms: C_13  and  C_14 
ROOT
HETATM    1  N   UNL     1      60.996   6.546   5.567  1.00  0.00    -0.067 N 
HETATM    2  C   UNL     1      62.207   5.900   6.102  1.00  0.00     0.235 C 
HETATM    3  C   UNL     1      61.260   7.124   4.240  1.00  0.00     0.235 C 
HETATM    4  C   UNL     1      63.361   6.897   6.215  1.00  0.00     0.034 C 
HETATM    5  C   UNL     1      62.399   8.145   4.279  1.00  0.00     0.034 C 
HETATM    6  C   UNL     1      63.681   7.530   4.856  1.00  0.00     0.014 C 
HETATM    7  H   UNL     1      60.737   7.290   6.215  1.00  0.00     0.280 HD
ENDROOT
BRANCH   1   8
HETATM    8  C   UNL     1      59.870   5.590   5.476  1.00  0.00     0.280 C 
BRANCH   8   9
HETATM    9  C   UNL     1      58.619   6.111   6.130  1.00  0.00     0.008 A 
HETATM   10  S   UNL     1      57.371   6.805   5.180  1.00  0.00    -0.105 SA
HETATM   11  C   UNL     1      56.371   7.033   6.546  1.00  0.00     0.050 A 
HETATM   12  C   UNL     1      56.983   6.625   7.710  1.00  0.00     0.008 A 
HETATM   13  C   UNL     1      58.287   6.104   7.471  1.00  0.00     0.017 A 
ENDBRANCH   8   9
ENDBRANCH   1   8
BRANCH   6  14
HETATM   14  C   UNL     1      64.813   8.556   5.000  1.00  0.00     0.234 C 
BRANCH  14  15
HETATM   15  N   UNL     1      65.559   8.362   6.239  1.00  0.00    -0.079 N 
HETATM   16  H   UNL     1      66.534   8.157   6.021  1.00  0.00     0.274 HD
HETATM   17  H   UNL     1      65.157   7.583   6.760  1.00  0.00     0.274 HD
HETATM   18  H   UNL     1      65.507   9.211   6.803  1.00  0.00     0.274 HD
ENDBRANCH  14  15
ENDBRANCH   6  14
TORSDOF 4
ENDMDL
MODEL 7
REMARK VINA RESULT:      -3.4      8.558     11.000
REMARK  4 active torsions:
REMARK  status: ('A' for Active; 'I' for Inactive)
REMARK    1  A    between atoms: N_1  and  C_6 
REMARK    2  A    between atoms: C_3  and  C_6 
REMARK    3  A    between atoms: N_10  and  C_14 
REMARK    4  A    between atoms: C_13  and  C_14 
ROOT
HETATM    1  N   UNL     1      58.028   3.505   9.593  1.00  0.00    -0.067 N 
HETATM    2  C   UNL     1      59.085   4.389   9.076  1.00  0.00     0.235 C 
HETATM    3  C   UNL     1      57.060   3.180   8.533  1.00  0.00     0.235 C 
HETATM    4  C   UNL     1      58.499   5.689   8.523  1.00  0.00     0.034 C 
HETATM    5  C   UNL     1      56.420   4.436   7.941  1.00  0.00     0.034 C 
HETATM    6  C   UNL     1      57.483   5.408   7.411  1.00  0.00     0.014 C 
HETATM    7  H   UNL     1      57.552   4.006  10.344  1.00  0.00     0.280 HD
ENDROOT
BRANCH   1   8
HETATM    8  C   UNL     1      58.592   2.255  10.148  1.00  0.00     0.280 C 
BRANCH   8   9
HETATM    9  C   UNL     1      58.329   2.110  11.623  1.00  0.00     0.008 A 
HETATM   10  S   UNL     1      56.737   2.278  12.238  1.00  0.00    -0.105 SA
HETATM   11  C   UNL     1      57.245   1.911  13.829  1.00  0.00     0.050 A 
HETATM   12  C   UNL     1      58.603   1.700  13.903  1.00  0.00     0.008 A 
HETATM   13  C   UNL     1      59.232   1.828  12.631  1.00  0.00     0.017 A 
ENDBRANCH   8   9
ENDBRANCH   1   8
BRANCH   6  14
HETATM   14  C   UNL     1      56.877   6.722   6.900  1.00  0.00     0.234 C 
BRANCH  14  15
HETATM   15  N   UNL     1      56.753   7.708   7.969  1.00  0.00    -0.079 N 
HETATM   16  H   UNL     1      56.032   7.409   8.625  1.00  0.00     0.274 HD
HETATM   17  H   UNL     1      56.497   8.611   7.570  1.00  0.00     0.274 HD
HETATM   18  H   UNL     1      57.644   7.793   8.457  1.00  0.00     0.274 HD
ENDBRANCH  14  15
ENDBRANCH   6  14
TORSDOF 4
ENDMDL
MODEL 8
REMARK VINA RESULT:      -3.3      8.826     10.128
REMARK  4 active torsions:
REMARK  status: ('A' for Active; 'I' for Inactive)
REMARK    1  A    between atoms: N_1  and  C_6 
REMARK    2  A    between atoms: C_3  and  C_6 
REMARK    3  A    between atoms: N_10  and  C_14 
REMARK    4  A    between atoms: C_13  and  C_14 
ROOT
HETATM    1  N   UNL     1      58.498   2.533  10.251  1.00  0.00    -0.067 N 
HETATM    2  C   UNL     1      57.122   2.548  10.775  1.00  0.00     0.235 C 
HETATM    3  C   UNL     1      59.138   1.235  10.515  1.00  0.00     0.235 C 
HETATM    4  C   UNL     1      57.100   2.281  12.281  1.00  0.00     0.034 C 
HETATM    5  C   UNL     1      59.165   0.905  12.009  1.00  0.00     0.034 C 
HETATM    6  C   UNL     1      57.754   0.936  12.613  1.00  0.00     0.014 C 
HETATM    7  H   UNL     1      59.014   3.269  10.732  1.00  0.00     0.280 HD
ENDROOT
BRANCH   1   8
HETATM    8  C   UNL     1      58.525   2.812   8.799  1.00  0.00     0.280 C 
BRANCH   8   9
HETATM    9  C   UNL     1      58.245   4.258   8.485  1.00  0.00     0.008 A 
HETATM   10  S   UNL     1      56.903   4.686   7.508  1.00  0.00    -0.105 SA
HETATM   11  C   UNL     1      57.215   6.355   7.699  1.00  0.00     0.050 A 
HETATM   12  C   UNL     1      58.337   6.588   8.461  1.00  0.00     0.008 A 
HETATM   13  C   UNL     1      58.940   5.376   8.905  1.00  0.00     0.017 A 
ENDBRANCH   8   9
ENDBRANCH   1   8
BRANCH   6  14
HETATM   14  C   UNL     1      57.759   0.706  14.130  1.00  0.00     0.234 C 
BRANCH  14  15
HETATM   15  N   UNL     1      58.490   1.758  14.830  1.00  0.00    -0.079 N 
HETATM   16  H   UNL     1      58.373   2.641  14.334  1.00  0.00     0.274 HD
HETATM   17  H   UNL     1      59.481   1.517  14.866  1.00  0.00     0.274 HD
HETATM   18  H   UNL     1      58.128   1.849  15.779  1.00  0.00     0.274 HD
ENDBRANCH  14  15
ENDBRANCH   6  14
TORSDOF 4
ENDMDL
MODEL 9
REMARK VINA RESULT:      -3.3      4.175      6.371
REMARK  4 active torsions:
REMARK  status: ('A' for Active; 'I' for Inactive)
REMARK    1  A    between atoms: N_1  and  C_6 
REMARK    2  A    between atoms: C_3  and  C_6 
REMARK    3  A    between atoms: N_10  and  C_14 
REMARK    4  A    between atoms: C_13  and  C_14 
ROOT
HETATM    1  N   UNL     1      60.662   6.266   5.781  1.00  0.00    -0.067 N 
HETATM    2  C   UNL     1      59.503   5.923   4.940  1.00  0.00     0.235 C 
HETATM    3  C   UNL     1      60.543   5.641   7.108  1.00  0.00     0.235 C 
HETATM    4  C   UNL     1      58.195   6.379   5.588  1.00  0.00     0.034 C 
HETATM    5  C   UNL     1      59.259   6.065   7.824  1.00  0.00     0.034 C 
HETATM    6  C   UNL     1      58.018   5.754   6.976  1.00  0.00     0.014 C 
HETATM    7  H   UNL     1      60.673   7.281   5.885  1.00  0.00     0.280 HD
ENDROOT
BRANCH   1   8
HETATM    8  C   UNL     1      61.932   5.846   5.149  1.00  0.00     0.280 C 
BRANCH   8   9
HETATM    9  C   UNL     1      62.983   6.922   5.197  1.00  0.00     0.008 A 
HETATM   10  S   UNL     1      64.526   6.594   5.868  1.00  0.00    -0.105 SA
HETATM   11  C   UNL     1      65.095   8.160   5.489  1.00  0.00     0.050 A 
HETATM   12  C   UNL     1      64.123   8.935   4.896  1.00  0.00     0.008 A 
HETATM   13  C   UNL     1      62.898   8.223   4.739  1.00  0.00     0.017 A 
ENDBRANCH   8   9
ENDBRANCH   1   8
BRANCH   6  14
HETATM   14  C   UNL     1      56.721   6.257   7.624  1.00  0.00     0.234 C 
BRANCH  14  15
HETATM   15  N   UNL     1      56.858   7.628   8.106  1.00  0.00    -0.079 N 
HETATM   16  H   UNL     1      56.186   8.226   7.626  1.00  0.00     0.274 HD
HETATM   17  H   UNL     1      57.803   7.961   7.918  1.00  0.00     0.274 HD
HETATM   18  H   UNL     1      56.682   7.654   9.110  1.00  0.00     0.274 HD
ENDBRANCH  14  15
ENDBRANCH   6  14
TORSDOF 4
ENDMDL
