MODEL 1
REMARK VINA RESULT:      -3.8      0.000      0.000
REMARK  3 active torsions:
REMARK  status: ('A' for Active; 'I' for Inactive)
REMARK    1  A    between atoms: O_2  and  C_6 
REMARK    2  A    between atoms: C_3  and  C_7 
REMARK    3  A    between atoms: C_6  and  C_7 
ROOT
HETATM    1  O   UNL     1      62.243  11.537   3.367  1.00  0.00    -0.391 OA
HETATM    2  C   UNL     1      62.204   8.871   2.205  1.00  0.00    -0.009 C 
HETATM    3  C   UNL     1      61.619  11.330   2.100  1.00  0.00     0.168 C 
HETATM    4  C   UNL     1      62.122  10.407   4.229  1.00  0.00     0.168 C 
HETATM    5  C   UNL     1      62.272  10.161   1.373  1.00  0.00     0.031 C 
HETATM    6  C   UNL     1      62.766   9.170   3.607  1.00  0.00     0.031 C 
ENDROOT
BRANCH   2   7
HETATM    7  C   UNL     1      60.789   8.263   2.302  1.00  0.00     0.031 C 
BRANCH   7   8
HETATM    8  C   UNL     1      60.098   8.075   0.958  1.00  0.00     0.164 C 
BRANCH   8   9
HETATM    9  O   UNL     1      58.812   8.683   0.990  1.00  0.00    -0.401 OA
HETATM   10  H   UNL     1      58.817   9.479   0.436  1.00  0.00     0.209 HD
ENDBRANCH   8   9
ENDBRANCH   7   8
ENDBRANCH   2   7
TORSDOF 3
ENDMDL
MODEL 2
REMARK VINA RESULT:      -3.6      1.184      3.938
REMARK  3 active torsions:
REMARK  status: ('A' for Active; 'I' for Inactive)
REMARK    1  A    between atoms: O_2  and  C_6 
REMARK    2  A    between atoms: C_3  and  C_7 
REMARK    3  A    between atoms: C_6  and  C_7 
ROOT
HETATM    1  O   UNL     1      60.290   7.210   1.586  1.00  0.00    -0.391 OA
HETATM    2  C   UNL     1      62.433   9.100   2.130  1.00  0.00    -0.009 C 
HETATM    3  C   UNL     1      60.630   7.519   2.937  1.00  0.00     0.168 C 
HETATM    4  C   UNL     1      60.478   8.318   0.707  1.00  0.00     0.168 C 
HETATM    5  C   UNL     1      62.101   7.906   3.038  1.00  0.00     0.031 C 
HETATM    6  C   UNL     1      61.933   8.781   0.709  1.00  0.00     0.031 C 
ENDROOT
BRANCH   2   7
HETATM    7  C   UNL     1      61.853  10.442   2.625  1.00  0.00     0.031 C 
BRANCH   7   8
HETATM    8  C   UNL     1      62.150  10.748   4.088  1.00  0.00     0.164 C 
BRANCH   8   9
HETATM    9  O   UNL     1      62.097  12.152   4.305  1.00  0.00    -0.401 OA
HETATM   10  H   UNL     1      62.998  12.506   4.351  1.00  0.00     0.209 HD
ENDBRANCH   8   9
ENDBRANCH   7   8
ENDBRANCH   2   7
TORSDOF 3
ENDMDL
MODEL 3
REMARK VINA RESULT:      -3.5      3.934      5.433
REMARK  3 active torsions:
REMARK  status: ('A' for Active; 'I' for Inactive)
REMARK    1  A    between atoms: O_2  and  C_6 
REMARK    2  A    between atoms: C_3  and  C_7 
REMARK    3  A    between atoms: C_6  and  C_7 
ROOT
HETATM    1  O   UNL     1      64.304   5.931   5.320  1.00  0.00    -0.391 OA
HETATM    2  C   UNL     1      64.170   8.759   4.656  1.00  0.00    -0.009 C 
HETATM    3  C   UNL     1      64.743   6.898   6.272  1.00  0.00     0.168 C 
HETATM    4  C   UNL     1      63.225   6.403   4.515  1.00  0.00     0.168 C 
HETATM    5  C   UNL     1      65.250   8.148   5.561  1.00  0.00     0.031 C 
HETATM    6  C   UNL     1      63.628   7.651   3.734  1.00  0.00     0.031 C 
ENDROOT
BRANCH   2   7
HETATM    7  C   UNL     1      63.018   9.438   5.428  1.00  0.00     0.031 C 
BRANCH   7   8
HETATM    8  C   UNL     1      63.120  10.956   5.491  1.00  0.00     0.164 C 
BRANCH   8   9
HETATM    9  O   UNL     1      64.243  11.329   6.280  1.00  0.00    -0.401 OA
HETATM   10  H   UNL     1      65.039  11.338   5.726  1.00  0.00     0.209 HD
ENDBRANCH   8   9
ENDBRANCH   7   8
ENDBRANCH   2   7
TORSDOF 3
ENDMDL
MODEL 4
REMARK VINA RESULT:      -3.4      2.561      4.803
REMARK  3 active torsions:
REMARK  status: ('A' for Active; 'I' for Inactive)
REMARK    1  A    between atoms: O_2  and  C_6 
REMARK    2  A    between atoms: C_3  and  C_7 
REMARK    3  A    between atoms: C_6  and  C_7 
ROOT
HETATM    1  O   UNL     1      61.421   6.816   3.680  1.00  0.00    -0.391 OA
HETATM    2  C   UNL     1      63.374   8.921   4.145  1.00  0.00    -0.009 C 
HETATM    3  C   UNL     1      62.597   6.530   4.435  1.00  0.00     0.168 C 
HETATM    4  C   UNL     1      60.966   8.156   3.860  1.00  0.00     0.168 C 
HETATM    5  C   UNL     1      63.741   7.436   3.996  1.00  0.00     0.031 C 
HETATM    6  C   UNL     1      62.032   9.161   3.429  1.00  0.00     0.031 C 
ENDROOT
BRANCH   2   7
HETATM    7  C   UNL     1      63.304   9.403   5.610  1.00  0.00     0.031 C 
BRANCH   7   8
HETATM    8  C   UNL     1      63.172  10.914   5.762  1.00  0.00     0.164 C 
BRANCH   8   9
HETATM    9  O   UNL     1      64.334  11.435   6.396  1.00  0.00    -0.401 OA
HETATM   10  H   UNL     1      64.735  10.748   6.951  1.00  0.00     0.209 HD
ENDBRANCH   8   9
ENDBRANCH   7   8
ENDBRANCH   2   7
TORSDOF 3
ENDMDL
MODEL 5
REMARK VINA RESULT:      -3.3      6.978      8.618
REMARK  3 active torsions:
REMARK  status: ('A' for Active; 'I' for Inactive)
REMARK    1  A    between atoms: O_2  and  C_6 
REMARK    2  A    between atoms: C_3  and  C_7 
REMARK    3  A    between atoms: C_6  and  C_7 
ROOT
HETATM    1  O   UNL     1      67.097   4.136   8.832  1.00  0.00    -0.391 OA
HETATM    2  C   UNL     1      66.278   6.684   7.694  1.00  0.00    -0.009 C 
HETATM    3  C   UNL     1      66.417   4.161   7.578  1.00  0.00     0.168 C 
HETATM    4  C   UNL     1      67.925   5.281   9.030  1.00  0.00     0.168 C 
HETATM    5  C   UNL     1      65.499   5.374   7.497  1.00  0.00     0.031 C 
HETATM    6  C   UNL     1      67.102   6.567   8.990  1.00  0.00     0.031 C 
ENDROOT
BRANCH   2   7
HETATM    7  C   UNL     1      67.185   7.057   6.503  1.00  0.00     0.031 C 
BRANCH   7   8
HETATM    8  C   UNL     1      66.512   7.941   5.460  1.00  0.00     0.164 C 
BRANCH   8   9
HETATM    9  O   UNL     1      65.760   8.960   6.109  1.00  0.00    -0.401 OA
HETATM   10  H   UNL     1      66.336   9.450   6.715  1.00  0.00     0.209 HD
ENDBRANCH   8   9
ENDBRANCH   7   8
ENDBRANCH   2   7
TORSDOF 3
ENDMDL
MODEL 6
REMARK VINA RESULT:      -3.3     12.760     13.644
REMARK  3 active torsions:
REMARK  status: ('A' for Active; 'I' for Inactive)
REMARK    1  A    between atoms: O_2  and  C_6 
REMARK    2  A    between atoms: C_3  and  C_7 
REMARK    3  A    between atoms: C_6  and  C_7 
ROOT
HETATM    1  O   UNL     1      58.108  -0.662  13.584  1.00  0.00    -0.391 OA
HETATM    2  C   UNL     1      59.050   1.956  12.737  1.00  0.00    -0.009 C 
HETATM    3  C   UNL     1      57.571   0.510  14.195  1.00  0.00     0.168 C 
HETATM    4  C   UNL     1      58.451  -0.459  12.215  1.00  0.00     0.168 C 
HETATM    5  C   UNL     1      58.597   1.637  14.170  1.00  0.00     0.031 C 
HETATM    6  C   UNL     1      59.498   0.643  12.068  1.00  0.00     0.031 C 
ENDROOT
BRANCH   2   7
HETATM    7  C   UNL     1      57.975   2.663  11.884  1.00  0.00     0.031 C 
BRANCH   7   8
HETATM    8  C   UNL     1      58.447   3.059  10.491  1.00  0.00     0.164 C 
BRANCH   8   9
HETATM    9  O   UNL     1      58.604   4.471  10.421  1.00  0.00    -0.401 OA
HETATM   10  H   UNL     1      59.502   4.682  10.123  1.00  0.00     0.209 HD
ENDBRANCH   8   9
ENDBRANCH   7   8
ENDBRANCH   2   7
TORSDOF 3
ENDMDL
MODEL 7
REMARK VINA RESULT:      -3.2      6.291      7.976
REMARK  3 active torsions:
REMARK  status: ('A' for Active; 'I' for Inactive)
REMARK    1  A    between atoms: O_2  and  C_6 
REMARK    2  A    between atoms: C_3  and  C_7 
REMARK    3  A    between atoms: C_6  and  C_7 
ROOT
HETATM    1  O   UNL     1      67.670   4.640   7.678  1.00  0.00    -0.391 OA
HETATM    2  C   UNL     1      66.717   7.295   6.969  1.00  0.00    -0.009 C 
HETATM    3  C   UNL     1      66.623   5.239   8.440  1.00  0.00     0.168 C 
HETATM    4  C   UNL     1      67.633   5.018   6.303  1.00  0.00     0.168 C 
HETATM    5  C   UNL     1      66.746   6.757   8.407  1.00  0.00     0.031 C 
HETATM    6  C   UNL     1      67.771   6.531   6.146  1.00  0.00     0.031 C 
ENDROOT
BRANCH   2   7
HETATM    7  C   UNL     1      65.331   7.205   6.296  1.00  0.00     0.031 C 
BRANCH   7   8
HETATM    8  C   UNL     1      65.064   8.302   5.272  1.00  0.00     0.164 C 
BRANCH   8   9
HETATM    9  O   UNL     1      65.128   9.574   5.904  1.00  0.00    -0.401 OA
HETATM   10  H   UNL     1      64.233   9.861   6.143  1.00  0.00     0.209 HD
ENDBRANCH   8   9
ENDBRANCH   7   8
ENDBRANCH   2   7
TORSDOF 3
ENDMDL
MODEL 8
REMARK VINA RESULT:      -3.2      2.127      4.197
REMARK  3 active torsions:
REMARK  status: ('A' for Active; 'I' for Inactive)
REMARK    1  A    between atoms: O_2  and  C_6 
REMARK    2  A    between atoms: C_3  and  C_7 
REMARK    3  A    between atoms: C_6  and  C_7 
ROOT
HETATM    1  O   UNL     1      60.917   8.753   2.070  1.00  0.00    -0.391 OA
HETATM    2  C   UNL     1      62.595   8.779   4.446  1.00  0.00    -0.009 C 
HETATM    3  C   UNL     1      61.913   9.764   2.218  1.00  0.00     0.168 C 
HETATM    4  C   UNL     1      61.303   7.513   2.659  1.00  0.00     0.168 C 
HETATM    5  C   UNL     1      62.166  10.048   3.693  1.00  0.00     0.031 C 
HETATM    6  C   UNL     1      61.564   7.673   4.155  1.00  0.00     0.031 C 
ENDROOT
BRANCH   2   7
HETATM    7  C   UNL     1      64.021   8.299   4.101  1.00  0.00     0.031 C 
BRANCH   7   8
HETATM    8  C   UNL     1      65.000   8.371   5.266  1.00  0.00     0.164 C 
BRANCH   8   9
HETATM    9  O   UNL     1      64.957   9.667   5.850  1.00  0.00    -0.401 OA
HETATM   10  H   UNL     1      65.856   9.945   6.086  1.00  0.00     0.209 HD
ENDBRANCH   8   9
ENDBRANCH   7   8
ENDBRANCH   2   7
TORSDOF 3
ENDMDL
MODEL 9
REMARK VINA RESULT:      -3.1      3.054      4.410
REMARK  3 active torsions:
REMARK  status: ('A' for Active; 'I' for Inactive)
REMARK    1  A    between atoms: O_2  and  C_6 
REMARK    2  A    between atoms: C_3  and  C_7 
REMARK    3  A    between atoms: C_6  and  C_7 
ROOT
HETATM    1  O   UNL     1      64.626   6.313   5.786  1.00  0.00    -0.391 OA
HETATM    2  C   UNL     1      63.386   8.829   5.017  1.00  0.00    -0.009 C 
HETATM    3  C   UNL     1      63.209   6.382   5.633  1.00  0.00     0.168 C 
HETATM    4  C   UNL     1      65.317   7.181   4.889  1.00  0.00     0.168 C 
HETATM    5  C   UNL     1      62.712   7.792   5.928  1.00  0.00     0.031 C 
HETATM    6  C   UNL     1      64.911   8.636   5.110  1.00  0.00     0.031 C 
ENDROOT
BRANCH   2   7
HETATM    7  C   UNL     1      62.916   8.770   3.548  1.00  0.00     0.031 C 
BRANCH   7   8
HETATM    8  C   UNL     1      61.470   9.202   3.339  1.00  0.00     0.164 C 
BRANCH   8   9
HETATM    9  O   UNL     1      61.294  10.533   3.808  1.00  0.00    -0.401 OA
HETATM   10  H   UNL     1      60.768  11.034   3.167  1.00  0.00     0.209 HD
ENDBRANCH   8   9
ENDBRANCH   7   8
ENDBRANCH   2   7
TORSDOF 3
ENDMDL
