MODEL 1
REMARK VINA RESULT:      -6.7      0.000      0.000
REMARK  3 active torsions:
REMARK  status: ('A' for Active; 'I' for Inactive)
REMARK    1  A    between atoms: C_1  and  C_2 
REMARK    2  A    between atoms: C_5  and  C_6 
REMARK    3  A    between atoms: C_8  and  C_9 
ROOT
HETATM    1  C   UNL     1      65.870   6.541   7.550  1.00  0.00     0.063 A 
HETATM    2  N   UNL     1      65.470   8.169   5.806  1.00  0.00    -0.364 N 
ATOM      3  HN  UNL     1      65.727   9.042   5.343  1.00  0.00     0.165 HD
HETATM    4  C   UNL     1      64.424   7.427   5.365  1.00  0.00     0.042 A 
HETATM    5  C   UNL     1      66.161   7.717   6.879  1.00  0.00     0.104 A 
HETATM    6  C   UNL     1      64.804   5.778   7.078  1.00  0.00     0.020 A 
HETATM    7  C   UNL     1      64.082   6.218   5.975  1.00  0.00     0.031 A 
ENDROOT
BRANCH   4   8
HETATM    8  C   UNL     1      63.659   7.984   4.233  1.00  0.00    -0.009 A 
HETATM    9  C   UNL     1      63.187   9.308   4.266  1.00  0.00     0.032 A 
HETATM   10  C   UNL     1      62.439   9.848   3.214  1.00  0.00     0.041 A 
HETATM   11  C   UNL     1      62.172   9.069   2.086  1.00  0.00     0.018 A 
HETATM   12  C   UNL     1      62.645   7.758   2.020  1.00  0.00     0.002 A 
HETATM   13  C   UNL     1      63.379   7.224   3.083  1.00  0.00     0.014 A 
BRANCH  10  14
HETATM   14  C   UNL     1      61.920  11.233   3.276  1.00  0.00     0.209 C 
HETATM   15  O   UNL     1      61.766  11.895   4.283  1.00  0.00    -0.644 OA
HETATM   16  O   UNL     1      61.632  11.734   2.058  1.00  0.00    -0.644 OA
ENDBRANCH  10  14
ENDBRANCH   4   8
BRANCH   1  17
HETATM   17  C   UNL     1      66.677   6.110   8.734  1.00  0.00     0.418 C 
HETATM   18  F   UNL     1      66.226   6.616   9.916  1.00  0.00    -0.166 F 
HETATM   19  F   UNL     1      67.981   6.489   8.641  1.00  0.00    -0.166 F 
HETATM   20  F   UNL     1      66.691   4.757   8.889  1.00  0.00    -0.166 F 
ENDBRANCH   1  17
TORSDOF 3
ENDMDL
MODEL 2
REMARK VINA RESULT:      -6.5      1.607      2.266
REMARK  3 active torsions:
REMARK  status: ('A' for Active; 'I' for Inactive)
REMARK    1  A    between atoms: C_1  and  C_2 
REMARK    2  A    between atoms: C_5  and  C_6 
REMARK    3  A    between atoms: C_8  and  C_9 
ROOT
HETATM    1  C   UNL     1      66.029   6.761   7.128  1.00  0.00     0.063 A 
HETATM    2  N   UNL     1      65.515   8.736   5.828  1.00  0.00    -0.364 N 
ATOM      3  HN  UNL     1      65.785   9.662   5.494  1.00  0.00     0.165 HD
HETATM    4  C   UNL     1      64.330   8.182   5.472  1.00  0.00     0.042 A 
HETATM    5  C   UNL     1      66.329   8.024   6.642  1.00  0.00     0.104 A 
HETATM    6  C   UNL     1      64.816   6.195   6.742  1.00  0.00     0.020 A 
HETATM    7  C   UNL     1      63.965   6.905   5.903  1.00  0.00     0.031 A 
ENDROOT
BRANCH   4   8
HETATM    8  C   UNL     1      63.445   9.015   4.635  1.00  0.00    -0.009 A 
HETATM    9  C   UNL     1      63.023   8.569   3.370  1.00  0.00     0.032 A 
HETATM   10  C   UNL     1      62.203   9.353   2.551  1.00  0.00     0.041 A 
HETATM   11  C   UNL     1      61.767  10.601   3.002  1.00  0.00     0.018 A 
HETATM   12  C   UNL     1      62.156  11.059   4.261  1.00  0.00     0.002 A 
HETATM   13  C   UNL     1      62.987  10.274   5.066  1.00  0.00     0.014 A 
BRANCH  10  14
HETATM   14  C   UNL     1      61.792   8.887   1.207  1.00  0.00     0.209 C 
HETATM   15  O   UNL     1      62.472   8.918   0.200  1.00  0.00    -0.644 OA
HETATM   16  O   UNL     1      60.543   8.379   1.194  1.00  0.00    -0.644 OA
ENDBRANCH  10  14
ENDBRANCH   4   8
BRANCH   1  17
HETATM   17  C   UNL     1      66.978   6.037   8.030  1.00  0.00     0.418 C 
HETATM   18  F   UNL     1      66.417   4.978   8.676  1.00  0.00    -0.166 F 
HETATM   19  F   UNL     1      67.484   6.841   9.005  1.00  0.00    -0.166 F 
HETATM   20  F   UNL     1      68.054   5.539   7.361  1.00  0.00    -0.166 F 
ENDBRANCH   1  17
TORSDOF 3
ENDMDL
MODEL 3
REMARK VINA RESULT:      -6.1      0.423      1.143
REMARK  3 active torsions:
REMARK  status: ('A' for Active; 'I' for Inactive)
REMARK    1  A    between atoms: C_1  and  C_2 
REMARK    2  A    between atoms: C_5  and  C_6 
REMARK    3  A    between atoms: C_8  and  C_9 
ROOT
HETATM    1  C   UNL     1      66.007   6.152   7.492  1.00  0.00     0.063 A 
HETATM    2  N   UNL     1      65.717   7.703   5.658  1.00  0.00    -0.364 N 
ATOM      3  HN  UNL     1      66.069   8.486   5.105  1.00  0.00     0.165 HD
HETATM    4  C   UNL     1      64.527   7.122   5.366  1.00  0.00     0.042 A 
HETATM    5  C   UNL     1      66.422   7.214   6.705  1.00  0.00     0.104 A 
HETATM    6  C   UNL     1      64.791   5.552   7.173  1.00  0.00     0.020 A 
HETATM    7  C   UNL     1      64.050   6.034   6.099  1.00  0.00     0.031 A 
ENDROOT
BRANCH   4   8
HETATM    8  C   UNL     1      63.761   7.723   4.258  1.00  0.00    -0.009 A 
HETATM    9  C   UNL     1      63.299   9.048   4.338  1.00  0.00     0.032 A 
HETATM   10  C   UNL     1      62.551   9.630   3.309  1.00  0.00     0.041 A 
HETATM   11  C   UNL     1      62.271   8.892   2.157  1.00  0.00     0.018 A 
HETATM   12  C   UNL     1      62.734   7.581   2.043  1.00  0.00     0.002 A 
HETATM   13  C   UNL     1      63.469   7.005   3.083  1.00  0.00     0.014 A 
BRANCH  10  14
HETATM   14  C   UNL     1      62.042  11.016   3.421  1.00  0.00     0.209 C 
HETATM   15  O   UNL     1      61.761  11.751   2.495  1.00  0.00    -0.644 OA
HETATM   16  O   UNL     1      61.890  11.412   4.701  1.00  0.00    -0.644 OA
ENDBRANCH  10  14
ENDBRANCH   4   8
BRANCH   1  17
HETATM   17  C   UNL     1      66.839   5.672   8.639  1.00  0.00     0.418 C 
HETATM   18  F   UNL     1      68.057   6.275   8.720  1.00  0.00    -0.166 F 
HETATM   19  F   UNL     1      67.089   4.335   8.575  1.00  0.00    -0.166 F 
HETATM   20  F   UNL     1      66.238   5.882   9.842  1.00  0.00    -0.166 F 
ENDBRANCH   1  17
TORSDOF 3
ENDMDL
MODEL 4
REMARK VINA RESULT:      -6.0      5.116      7.023
REMARK  3 active torsions:
REMARK  status: ('A' for Active; 'I' for Inactive)
REMARK    1  A    between atoms: C_1  and  C_2 
REMARK    2  A    between atoms: C_5  and  C_6 
REMARK    3  A    between atoms: C_8  and  C_9 
ROOT
HETATM    1  C   UNL     1      63.045   9.219   4.050  1.00  0.00     0.063 A 
HETATM    2  N   UNL     1      64.672   8.365   5.624  1.00  0.00    -0.364 N 
ATOM      3  HN  UNL     1      65.202   8.480   6.489  1.00  0.00     0.165 HD
HETATM    4  C   UNL     1      64.819   7.257   4.857  1.00  0.00     0.042 A 
HETATM    5  C   UNL     1      63.800   9.313   5.208  1.00  0.00     0.104 A 
HETATM    6  C   UNL     1      63.193   8.069   3.278  1.00  0.00     0.020 A 
HETATM    7  C   UNL     1      64.078   7.078   3.687  1.00  0.00     0.031 A 
ENDROOT
BRANCH   4   8
HETATM    8  C   UNL     1      65.823   6.276   5.312  1.00  0.00    -0.009 A 
HETATM    9  C   UNL     1      66.096   6.109   6.681  1.00  0.00     0.032 A 
HETATM   10  C   UNL     1      67.060   5.202   7.133  1.00  0.00     0.041 A 
HETATM   11  C   UNL     1      67.757   4.418   6.211  1.00  0.00     0.018 A 
HETATM   12  C   UNL     1      67.491   4.550   4.848  1.00  0.00     0.002 A 
HETATM   13  C   UNL     1      66.536   5.470   4.406  1.00  0.00     0.014 A 
BRANCH  10  14
HETATM   14  C   UNL     1      67.363   5.060   8.576  1.00  0.00     0.209 C 
HETATM   15  O   UNL     1      67.670   5.959   9.334  1.00  0.00    -0.644 OA
HETATM   16  O   UNL     1      67.246   3.788   9.008  1.00  0.00    -0.644 OA
ENDBRANCH  10  14
ENDBRANCH   4   8
BRANCH   1  17
HETATM   17  C   UNL     1      62.106  10.314   3.651  1.00  0.00     0.418 C 
HETATM   18  F   UNL     1      62.285  10.748   2.373  1.00  0.00    -0.166 F 
HETATM   19  F   UNL     1      62.229  11.417   4.440  1.00  0.00    -0.166 F 
HETATM   20  F   UNL     1      60.801   9.936   3.738  1.00  0.00    -0.166 F 
ENDBRANCH   1  17
TORSDOF 3
ENDMDL
MODEL 5
REMARK VINA RESULT:      -5.8      5.212      7.537
REMARK  3 active torsions:
REMARK  status: ('A' for Active; 'I' for Inactive)
REMARK    1  A    between atoms: C_1  and  C_2 
REMARK    2  A    between atoms: C_5  and  C_6 
REMARK    3  A    between atoms: C_8  and  C_9 
ROOT
HETATM    1  C   UNL     1      63.343   8.252   4.794  1.00  0.00     0.063 A 
HETATM    2  N   UNL     1      65.430   8.142   6.013  1.00  0.00    -0.364 N 
ATOM      3  HN  UNL     1      66.328   8.562   6.257  1.00  0.00     0.165 HD
HETATM    4  C   UNL     1      65.055   6.947   6.531  1.00  0.00     0.042 A 
HETATM    5  C   UNL     1      64.578   8.761   5.163  1.00  0.00     0.104 A 
HETATM    6  C   UNL     1      62.960   7.030   5.345  1.00  0.00     0.020 A 
HETATM    7  C   UNL     1      63.817   6.378   6.224  1.00  0.00     0.031 A 
ENDROOT
BRANCH   4   8
HETATM    8  C   UNL     1      66.037   6.275   7.404  1.00  0.00    -0.009 A 
HETATM    9  C   UNL     1      66.267   4.892   7.296  1.00  0.00     0.032 A 
HETATM   10  C   UNL     1      67.177   4.232   8.130  1.00  0.00     0.041 A 
HETATM   11  C   UNL     1      67.898   4.960   9.079  1.00  0.00     0.018 A 
HETATM   12  C   UNL     1      67.701   6.337   9.193  1.00  0.00     0.002 A 
HETATM   13  C   UNL     1      66.780   6.984   8.365  1.00  0.00     0.014 A 
BRANCH  10  14
HETATM   14  C   UNL     1      67.386   2.770   8.029  1.00  0.00     0.209 C 
HETATM   15  O   UNL     1      67.610   2.148   7.009  1.00  0.00    -0.644 OA
HETATM   16  O   UNL     1      67.325   2.153   9.226  1.00  0.00    -0.644 OA
ENDBRANCH  10  14
ENDBRANCH   4   8
BRANCH   1  17
HETATM   17  C   UNL     1      62.457   8.992   3.842  1.00  0.00     0.418 C 
HETATM   18  F   UNL     1      61.147   8.633   3.923  1.00  0.00    -0.166 F 
HETATM   19  F   UNL     1      62.816   8.801   2.543  1.00  0.00    -0.166 F 
HETATM   20  F   UNL     1      62.488  10.338   4.043  1.00  0.00    -0.166 F 
ENDBRANCH   1  17
TORSDOF 3
ENDMDL
MODEL 6
REMARK VINA RESULT:      -5.5      5.418      7.362
REMARK  3 active torsions:
REMARK  status: ('A' for Active; 'I' for Inactive)
REMARK    1  A    between atoms: C_1  and  C_2 
REMARK    2  A    between atoms: C_5  and  C_6 
REMARK    3  A    between atoms: C_8  and  C_9 
ROOT
HETATM    1  C   UNL     1      62.512   8.457   2.547  1.00  0.00     0.063 A 
HETATM    2  N   UNL     1      64.213   6.814   3.058  1.00  0.00    -0.364 N 
ATOM      3  HN  UNL     1      64.703   5.952   2.815  1.00  0.00     0.165 HD
HETATM    4  C   UNL     1      64.543   7.515   4.171  1.00  0.00     0.042 A 
HETATM    5  C   UNL     1      63.214   7.292   2.280  1.00  0.00     0.104 A 
HETATM    6  C   UNL     1      62.870   9.177   3.684  1.00  0.00     0.020 A 
HETATM    7  C   UNL     1      63.896   8.708   4.497  1.00  0.00     0.031 A 
ENDROOT
BRANCH   4   8
HETATM    8  C   UNL     1      65.594   6.928   5.024  1.00  0.00    -0.009 A 
HETATM    9  C   UNL     1      65.296   5.881   5.914  1.00  0.00     0.032 A 
HETATM   10  C   UNL     1      66.272   5.326   6.749  1.00  0.00     0.041 A 
HETATM   11  C   UNL     1      67.584   5.800   6.687  1.00  0.00     0.018 A 
HETATM   12  C   UNL     1      67.910   6.826   5.800  1.00  0.00     0.002 A 
HETATM   13  C   UNL     1      66.924   7.383   4.980  1.00  0.00     0.014 A 
BRANCH  10  14
HETATM   14  C   UNL     1      65.939   4.246   7.705  1.00  0.00     0.209 C 
HETATM   15  O   UNL     1      65.035   3.441   7.589  1.00  0.00    -0.644 OA
HETATM   16  O   UNL     1      66.775   4.213   8.763  1.00  0.00    -0.644 OA
ENDBRANCH  10  14
ENDBRANCH   4   8
BRANCH   1  17
HETATM   17  C   UNL     1      61.413   8.919   1.642  1.00  0.00     0.418 C 
HETATM   18  F   UNL     1      61.575   8.534   0.346  1.00  0.00    -0.166 F 
HETATM   19  F   UNL     1      61.297  10.275   1.616  1.00  0.00    -0.166 F 
HETATM   20  F   UNL     1      60.194   8.447   2.022  1.00  0.00    -0.166 F 
ENDBRANCH   1  17
TORSDOF 3
ENDMDL
MODEL 7
REMARK VINA RESULT:      -5.3      6.530      7.956
REMARK  3 active torsions:
REMARK  status: ('A' for Active; 'I' for Inactive)
REMARK    1  A    between atoms: C_1  and  C_2 
REMARK    2  A    between atoms: C_5  and  C_6 
REMARK    3  A    between atoms: C_8  and  C_9 
ROOT
HETATM    1  C   UNL     1      57.029   6.756   2.192  1.00  0.00     0.063 A 
HETATM    2  N   UNL     1      59.190   7.742   1.730  1.00  0.00    -0.364 N 
ATOM      3  HN  UNL     1      59.833   8.176   1.067  1.00  0.00     0.165 HD
HETATM    4  C   UNL     1      59.547   7.543   3.022  1.00  0.00     0.042 A 
HETATM    5  C   UNL     1      57.954   7.346   1.345  1.00  0.00     0.104 A 
HETATM    6  C   UNL     1      57.401   6.572   3.522  1.00  0.00     0.020 A 
HETATM    7  C   UNL     1      58.664   6.975   3.942  1.00  0.00     0.031 A 
ENDROOT
BRANCH   4   8
HETATM    8  C   UNL     1      60.923   7.932   3.387  1.00  0.00    -0.009 A 
HETATM    9  C   UNL     1      61.175   9.142   4.057  1.00  0.00     0.032 A 
HETATM   10  C   UNL     1      62.475   9.540   4.391  1.00  0.00     0.041 A 
HETATM   11  C   UNL     1      63.553   8.710   4.078  1.00  0.00     0.018 A 
HETATM   12  C   UNL     1      63.329   7.495   3.430  1.00  0.00     0.002 A 
HETATM   13  C   UNL     1      62.028   7.113   3.088  1.00  0.00     0.014 A 
BRANCH  10  14
HETATM   14  C   UNL     1      62.730  10.832   5.067  1.00  0.00     0.209 C 
HETATM   15  O   UNL     1      63.482  11.013   6.004  1.00  0.00    -0.644 OA
HETATM   16  O   UNL     1      62.039  11.851   4.517  1.00  0.00    -0.644 OA
ENDBRANCH  10  14
ENDBRANCH   4   8
BRANCH   1  17
HETATM   17  C   UNL     1      55.683   6.338   1.691  1.00  0.00     0.418 C 
HETATM   18  F   UNL     1      55.177   7.161   0.732  1.00  0.00    -0.166 F 
HETATM   19  F   UNL     1      54.748   6.303   2.681  1.00  0.00    -0.166 F 
HETATM   20  F   UNL     1      55.695   5.092   1.145  1.00  0.00    -0.166 F 
ENDBRANCH   1  17
TORSDOF 3
ENDMDL
MODEL 8
REMARK VINA RESULT:      -5.3      6.986      8.198
REMARK  3 active torsions:
REMARK  status: ('A' for Active; 'I' for Inactive)
REMARK    1  A    between atoms: C_1  and  C_2 
REMARK    2  A    between atoms: C_5  and  C_6 
REMARK    3  A    between atoms: C_8  and  C_9 
ROOT
HETATM    1  C   UNL     1      60.631   8.267   1.994  1.00  0.00     0.063 A 
HETATM    2  N   UNL     1      59.359   7.808   4.002  1.00  0.00    -0.364 N 
ATOM      3  HN  UNL     1      59.304   7.787   5.020  1.00  0.00     0.165 HD
HETATM    4  C   UNL     1      58.304   7.433   3.237  1.00  0.00     0.042 A 
HETATM    5  C   UNL     1      60.488   8.209   3.371  1.00  0.00     0.104 A 
HETATM    6  C   UNL     1      59.534   7.894   1.219  1.00  0.00     0.020 A 
HETATM    7  C   UNL     1      58.362   7.483   1.843  1.00  0.00     0.031 A 
ENDROOT
BRANCH   4   8
HETATM    8  C   UNL     1      57.115   6.944   3.960  1.00  0.00    -0.009 A 
HETATM    9  C   UNL     1      57.065   6.974   5.365  1.00  0.00     0.032 A 
HETATM   10  C   UNL     1      55.956   6.493   6.071  1.00  0.00     0.041 A 
HETATM   11  C   UNL     1      54.856   5.992   5.371  1.00  0.00     0.018 A 
HETATM   12  C   UNL     1      54.873   5.969   3.977  1.00  0.00     0.002 A 
HETATM   13  C   UNL     1      55.991   6.438   3.281  1.00  0.00     0.014 A 
BRANCH  10  14
HETATM   14  C   UNL     1      55.929   6.499   7.551  1.00  0.00     0.209 C 
HETATM   15  O   UNL     1      54.936   6.564   8.248  1.00  0.00    -0.644 OA
HETATM   16  O   UNL     1      57.160   6.403   8.093  1.00  0.00    -0.644 OA
ENDBRANCH  10  14
ENDBRANCH   4   8
BRANCH   1  17
HETATM   17  C   UNL     1      61.914   8.715   1.370  1.00  0.00     0.418 C 
HETATM   18  F   UNL     1      61.943  10.044   1.073  1.00  0.00    -0.166 F 
HETATM   19  F   UNL     1      62.179   8.067   0.202  1.00  0.00    -0.166 F 
HETATM   20  F   UNL     1      62.990   8.490   2.174  1.00  0.00    -0.166 F 
ENDBRANCH   1  17
TORSDOF 3
ENDMDL
MODEL 9
REMARK VINA RESULT:      -5.3      2.075      2.755
REMARK  3 active torsions:
REMARK  status: ('A' for Active; 'I' for Inactive)
REMARK    1  A    between atoms: C_1  and  C_2 
REMARK    2  A    between atoms: C_5  and  C_6 
REMARK    3  A    between atoms: C_8  and  C_9 
ROOT
HETATM    1  C   UNL     1      66.169   4.088   6.489  1.00  0.00     0.063 A 
HETATM    2  N   UNL     1      64.321   4.872   5.137  1.00  0.00    -0.364 N 
ATOM      3  HN  UNL     1      63.485   4.667   4.591  1.00  0.00     0.165 HD
HETATM    4  C   UNL     1      64.760   6.146   5.292  1.00  0.00     0.042 A 
HETATM    5  C   UNL     1      65.029   3.881   5.729  1.00  0.00     0.104 A 
HETATM    6  C   UNL     1      66.602   5.403   6.654  1.00  0.00     0.020 A 
HETATM    7  C   UNL     1      65.889   6.438   6.060  1.00  0.00     0.031 A 
ENDROOT
BRANCH   4   8
HETATM    8  C   UNL     1      63.998   7.190   4.580  1.00  0.00    -0.009 A 
HETATM    9  C   UNL     1      63.764   8.441   5.177  1.00  0.00     0.032 A 
HETATM   10  C   UNL     1      63.024   9.437   4.530  1.00  0.00     0.041 A 
HETATM   11  C   UNL     1      62.523   9.201   3.247  1.00  0.00     0.018 A 
HETATM   12  C   UNL     1      62.757   7.975   2.626  1.00  0.00     0.002 A 
HETATM   13  C   UNL     1      63.486   6.982   3.287  1.00  0.00     0.014 A 
BRANCH  10  14
HETATM   14  C   UNL     1      62.756  10.739   5.182  1.00  0.00     0.209 C 
HETATM   15  O   UNL     1      63.138  11.078   6.285  1.00  0.00    -0.644 OA
HETATM   16  O   UNL     1      62.032  11.569   4.405  1.00  0.00    -0.644 OA
ENDBRANCH  10  14
ENDBRANCH   4   8
BRANCH   1  17
HETATM   17  C   UNL     1      66.902   2.940   7.107  1.00  0.00     0.418 C 
HETATM   18  F   UNL     1      68.075   2.641   6.484  1.00  0.00    -0.166 F 
HETATM   19  F   UNL     1      66.172   1.791   7.097  1.00  0.00    -0.166 F 
HETATM   20  F   UNL     1      67.221   3.169   8.411  1.00  0.00    -0.166 F 
ENDBRANCH   1  17
TORSDOF 3
ENDMDL
