MODEL 1
REMARK VINA RESULT:      -4.4      0.000      0.000
REMARK  4 active torsions:
REMARK  status: ('A' for Active; 'I' for Inactive)
REMARK    1  A    between atoms: C_1  and  C_4 
REMARK    2  A    between atoms: C_1  and  O_5 
REMARK    3  A    between atoms: C_4  and  C_6 
REMARK    4  A    between atoms: O_5  and  C_9 
ROOT
HETATM    1  O   UNL     1      61.382  10.609   3.823  1.00  0.00    -0.391 OA
HETATM    2  C   UNL     1      63.705   8.977   4.392  1.00  0.00    -0.001 C 
HETATM    3  C   UNL     1      61.903   9.768   2.797  1.00  0.00     0.168 C 
HETATM    4  C   UNL     1      62.411  11.130   4.660  1.00  0.00     0.168 C 
HETATM    5  C   UNL     1      63.139  10.005   5.386  1.00  0.00     0.031 C 
HETATM    6  C   UNL     1      62.607   8.561   3.400  1.00  0.00     0.031 C 
ENDROOT
BRANCH   2   7
HETATM    7  C   UNL     1      64.259   7.726   5.087  1.00  0.00     0.115 C 
BRANCH   7   8
HETATM    8  C   UNL     1      65.595   7.937   5.751  1.00  0.00     0.259 C 
HETATM    9  O   UNL     1      66.590   8.343   5.162  1.00  0.00    -0.265 OA
BRANCH   8  10
HETATM   10  O   UNL     1      65.536   7.622   7.073  1.00  0.00    -0.322 OA
BRANCH  10  11
HETATM   11  C   UNL     1      66.743   7.077   7.631  1.00  0.00     0.174 C 
HETATM   12  C   UNL     1      66.471   6.448   8.985  1.00  0.00     0.034 C 
ENDBRANCH  10  11
ENDBRANCH   8  10
ENDBRANCH   7   8
ENDBRANCH   2   7
TORSDOF 4
ENDMDL
MODEL 2
REMARK VINA RESULT:      -4.4      1.575      5.499
REMARK  4 active torsions:
REMARK  status: ('A' for Active; 'I' for Inactive)
REMARK    1  A    between atoms: C_1  and  C_4 
REMARK    2  A    between atoms: C_1  and  O_5 
REMARK    3  A    between atoms: C_4  and  C_6 
REMARK    4  A    between atoms: O_5  and  C_9 
ROOT
HETATM    1  O   UNL     1      65.763   5.917   6.048  1.00  0.00    -0.391 OA
HETATM    2  C   UNL     1      64.443   8.410   5.390  1.00  0.00    -0.001 C 
HETATM    3  C   UNL     1      64.683   6.364   6.865  1.00  0.00     0.168 C 
HETATM    4  C   UNL     1      66.536   7.004   5.545  1.00  0.00     0.168 C 
HETATM    5  C   UNL     1      65.691   7.901   4.649  1.00  0.00     0.031 C 
HETATM    6  C   UNL     1      63.723   7.228   6.059  1.00  0.00     0.031 C 
ENDROOT
BRANCH   2   7
HETATM    7  C   UNL     1      63.462   9.141   4.463  1.00  0.00     0.115 C 
BRANCH   7   8
HETATM    8  C   UNL     1      62.825  10.356   5.084  1.00  0.00     0.259 C 
HETATM    9  O   UNL     1      63.161  10.821   6.167  1.00  0.00    -0.265 OA
BRANCH   8  10
HETATM   10  O   UNL     1      61.846  10.855   4.282  1.00  0.00    -0.322 OA
BRANCH  10  11
HETATM   11  C   UNL     1      61.905  10.440   2.907  1.00  0.00     0.174 C 
HETATM   12  C   UNL     1      61.797  11.638   1.982  1.00  0.00     0.034 C 
ENDBRANCH  10  11
ENDBRANCH   8  10
ENDBRANCH   7   8
ENDBRANCH   2   7
TORSDOF 4
ENDMDL
MODEL 3
REMARK VINA RESULT:      -4.2      1.491      2.447
REMARK  4 active torsions:
REMARK  status: ('A' for Active; 'I' for Inactive)
REMARK    1  A    between atoms: C_1  and  C_4 
REMARK    2  A    between atoms: C_1  and  O_5 
REMARK    3  A    between atoms: C_4  and  C_6 
REMARK    4  A    between atoms: O_5  and  C_9 
ROOT
HETATM    1  O   UNL     1      62.109  11.427   2.762  1.00  0.00    -0.391 OA
HETATM    2  C   UNL     1      62.596   8.872   4.035  1.00  0.00    -0.001 C 
HETATM    3  C   UNL     1      62.031  11.337   4.183  1.00  0.00     0.168 C 
HETATM    4  C   UNL     1      61.656  10.235   2.126  1.00  0.00     0.168 C 
HETATM    5  C   UNL     1      62.536   9.050   2.509  1.00  0.00     0.031 C 
HETATM    6  C   UNL     1      62.926  10.218   4.699  1.00  0.00     0.031 C 
ENDROOT
BRANCH   2   7
HETATM    7  C   UNL     1      63.633   7.827   4.468  1.00  0.00     0.115 C 
BRANCH   7   8
HETATM    8  C   UNL     1      63.843   7.754   5.957  1.00  0.00     0.259 C 
HETATM    9  O   UNL     1      62.951   7.498   6.758  1.00  0.00    -0.265 OA
BRANCH   8  10
HETATM   10  O   UNL     1      65.141   8.005   6.279  1.00  0.00    -0.322 OA
BRANCH  10  11
HETATM   11  C   UNL     1      66.094   7.048   5.784  1.00  0.00     0.174 C 
HETATM   12  C   UNL     1      67.306   7.752   5.205  1.00  0.00     0.034 C 
ENDBRANCH  10  11
ENDBRANCH   8  10
ENDBRANCH   7   8
ENDBRANCH   2   7
TORSDOF 4
ENDMDL
MODEL 4
REMARK VINA RESULT:      -4.2      1.782      5.499
REMARK  4 active torsions:
REMARK  status: ('A' for Active; 'I' for Inactive)
REMARK    1  A    between atoms: C_1  and  C_4 
REMARK    2  A    between atoms: C_1  and  O_5 
REMARK    3  A    between atoms: C_4  and  C_6 
REMARK    4  A    between atoms: O_5  and  C_9 
ROOT
HETATM    1  O   UNL     1      65.131   6.540   6.465  1.00  0.00    -0.391 OA
HETATM    2  C   UNL     1      63.546   8.574   5.148  1.00  0.00    -0.001 C 
HETATM    3  C   UNL     1      65.738   7.343   5.455  1.00  0.00     0.168 C 
HETATM    4  C   UNL     1      63.758   6.281   6.187  1.00  0.00     0.168 C 
HETATM    5  C   UNL     1      62.957   7.577   6.161  1.00  0.00     0.031 C 
HETATM    6  C   UNL     1      65.061   8.703   5.374  1.00  0.00     0.031 C 
ENDROOT
BRANCH   2   7
HETATM    7  C   UNL     1      62.900   9.963   5.242  1.00  0.00     0.115 C 
BRANCH   7   8
HETATM    8  C   UNL     1      62.266  10.430   3.958  1.00  0.00     0.259 C 
HETATM    9  O   UNL     1      61.700  11.510   3.833  1.00  0.00    -0.265 OA
BRANCH   8  10
HETATM   10  O   UNL     1      62.413   9.500   2.977  1.00  0.00    -0.322 OA
BRANCH  10  11
HETATM   11  C   UNL     1      62.044   9.933   1.656  1.00  0.00     0.174 C 
HETATM   12  C   UNL     1      62.075   8.770   0.683  1.00  0.00     0.034 C 
ENDBRANCH  10  11
ENDBRANCH   8  10
ENDBRANCH   7   8
ENDBRANCH   2   7
TORSDOF 4
ENDMDL
MODEL 5
REMARK VINA RESULT:      -4.1      1.960      6.321
REMARK  4 active torsions:
REMARK  status: ('A' for Active; 'I' for Inactive)
REMARK    1  A    between atoms: C_1  and  C_4 
REMARK    2  A    between atoms: C_1  and  O_5 
REMARK    3  A    between atoms: C_4  and  C_6 
REMARK    4  A    between atoms: O_5  and  C_9 
ROOT
HETATM    1  O   UNL     1      67.897   4.263   8.832  1.00  0.00    -0.391 OA
HETATM    2  C   UNL     1      66.922   6.383   7.117  1.00  0.00    -0.001 C 
HETATM    3  C   UNL     1      68.075   5.618   9.239  1.00  0.00     0.168 C 
HETATM    4  C   UNL     1      67.992   4.114   7.418  1.00  0.00     0.168 C 
HETATM    5  C   UNL     1      66.890   4.899   6.716  1.00  0.00     0.031 C 
HETATM    6  C   UNL     1      66.986   6.502   8.648  1.00  0.00     0.031 C 
ENDROOT
BRANCH   2   7
HETATM    7  C   UNL     1      65.707   7.163   6.598  1.00  0.00     0.115 C 
BRANCH   7   8
HETATM    8  C   UNL     1      66.057   8.293   5.667  1.00  0.00     0.259 C 
HETATM    9  O   UNL     1      67.050   8.299   4.948  1.00  0.00    -0.265 OA
BRANCH   8  10
HETATM   10  O   UNL     1      65.128   9.285   5.735  1.00  0.00    -0.322 OA
BRANCH  10  11
HETATM   11  C   UNL     1      63.909   9.039   5.013  1.00  0.00     0.174 C 
HETATM   12  C   UNL     1      62.936  10.187   5.199  1.00  0.00     0.034 C 
ENDBRANCH  10  11
ENDBRANCH   8  10
ENDBRANCH   7   8
ENDBRANCH   2   7
TORSDOF 4
ENDMDL
MODEL 6
REMARK VINA RESULT:      -4.0      2.229      3.366
REMARK  4 active torsions:
REMARK  status: ('A' for Active; 'I' for Inactive)
REMARK    1  A    between atoms: C_1  and  C_4 
REMARK    2  A    between atoms: C_1  and  O_5 
REMARK    3  A    between atoms: C_4  and  C_6 
REMARK    4  A    between atoms: O_5  and  C_9 
ROOT
HETATM    1  O   UNL     1      60.793   8.046   0.975  1.00  0.00    -0.391 OA
HETATM    2  C   UNL     1      62.262   9.201   3.187  1.00  0.00    -0.001 C 
HETATM    3  C   UNL     1      60.994   7.268   2.152  1.00  0.00     0.168 C 
HETATM    4  C   UNL     1      61.901   8.900   0.704  1.00  0.00     0.168 C 
HETATM    5  C   UNL     1      62.095   9.908   1.831  1.00  0.00     0.031 C 
HETATM    6  C   UNL     1      61.139   8.168   3.371  1.00  0.00     0.031 C 
ENDROOT
BRANCH   2   7
HETATM    7  C   UNL     1      62.250  10.179   4.369  1.00  0.00     0.115 C 
BRANCH   7   8
HETATM    8  C   UNL     1      63.373   9.968   5.349  1.00  0.00     0.259 C 
HETATM    9  O   UNL     1      64.000  10.882   5.873  1.00  0.00    -0.265 OA
BRANCH   8  10
HETATM   10  O   UNL     1      63.584   8.642   5.568  1.00  0.00    -0.322 OA
BRANCH  10  11
HETATM   11  C   UNL     1      64.958   8.221   5.522  1.00  0.00     0.174 C 
HETATM   12  C   UNL     1      65.178   7.238   4.388  1.00  0.00     0.034 C 
ENDBRANCH  10  11
ENDBRANCH   8  10
ENDBRANCH   7   8
ENDBRANCH   2   7
TORSDOF 4
ENDMDL
MODEL 7
REMARK VINA RESULT:      -3.9      1.952      2.904
REMARK  4 active torsions:
REMARK  status: ('A' for Active; 'I' for Inactive)
REMARK    1  A    between atoms: C_1  and  C_4 
REMARK    2  A    between atoms: C_1  and  O_5 
REMARK    3  A    between atoms: C_4  and  C_6 
REMARK    4  A    between atoms: O_5  and  C_9 
ROOT
HETATM    1  O   UNL     1      60.196   7.592   1.708  1.00  0.00    -0.391 OA
HETATM    2  C   UNL     1      62.208   8.719   3.459  1.00  0.00    -0.001 C 
HETATM    3  C   UNL     1      60.994   8.675   1.236  1.00  0.00     0.168 C 
HETATM    4  C   UNL     1      59.925   7.698   3.103  1.00  0.00     0.168 C 
HETATM    5  C   UNL     1      61.216   7.635   3.911  1.00  0.00     0.031 C 
HETATM    6  C   UNL     1      62.350   8.682   1.929  1.00  0.00     0.031 C 
ENDROOT
BRANCH   2   7
HETATM    7  C   UNL     1      63.593   8.557   4.099  1.00  0.00     0.115 C 
BRANCH   7   8
HETATM    8  C   UNL     1      63.832   9.464   5.277  1.00  0.00     0.259 C 
HETATM    9  O   UNL     1      62.977  10.205   5.749  1.00  0.00    -0.265 OA
BRANCH   8  10
HETATM   10  O   UNL     1      65.107   9.340   5.735  1.00  0.00    -0.322 OA
BRANCH  10  11
HETATM   11  C   UNL     1      65.783   8.129   5.357  1.00  0.00     0.174 C 
HETATM   12  C   UNL     1      66.668   7.635   6.485  1.00  0.00     0.034 C 
ENDBRANCH  10  11
ENDBRANCH   8  10
ENDBRANCH   7   8
ENDBRANCH   2   7
TORSDOF 4
ENDMDL
MODEL 8
REMARK VINA RESULT:      -3.9      2.437      3.498
REMARK  4 active torsions:
REMARK  status: ('A' for Active; 'I' for Inactive)
REMARK    1  A    between atoms: C_1  and  C_4 
REMARK    2  A    between atoms: C_1  and  O_5 
REMARK    3  A    between atoms: C_4  and  C_6 
REMARK    4  A    between atoms: O_5  and  C_9 
ROOT
HETATM    1  O   UNL     1      61.975  10.750   1.758  1.00  0.00    -0.391 OA
HETATM    2  C   UNL     1      62.539   8.839   3.861  1.00  0.00    -0.001 C 
HETATM    3  C   UNL     1      61.707  11.111   3.111  1.00  0.00     0.168 C 
HETATM    4  C   UNL     1      61.743   9.364   1.521  1.00  0.00     0.168 C 
HETATM    5  C   UNL     1      62.677   8.506   2.366  1.00  0.00     0.031 C 
HETATM    6  C   UNL     1      62.630  10.360   4.060  1.00  0.00     0.031 C 
ENDROOT
BRANCH   2   7
HETATM    7  C   UNL     1      63.607   8.151   4.721  1.00  0.00     0.115 C 
BRANCH   7   8
HETATM    8  C   UNL     1      63.058   7.469   5.947  1.00  0.00     0.259 C 
HETATM    9  O   UNL     1      63.686   7.339   6.992  1.00  0.00    -0.265 OA
BRANCH   8  10
HETATM   10  O   UNL     1      61.788   7.030   5.731  1.00  0.00    -0.322 OA
BRANCH  10  11
HETATM   11  C   UNL     1      61.457   5.775   6.349  1.00  0.00     0.174 C 
HETATM   12  C   UNL     1      60.237   5.922   7.238  1.00  0.00     0.034 C 
ENDBRANCH  10  11
ENDBRANCH   8  10
ENDBRANCH   7   8
ENDBRANCH   2   7
TORSDOF 4
ENDMDL
MODEL 9
REMARK VINA RESULT:      -3.8      1.912      5.900
REMARK  4 active torsions:
REMARK  status: ('A' for Active; 'I' for Inactive)
REMARK    1  A    between atoms: C_1  and  C_4 
REMARK    2  A    between atoms: C_1  and  O_5 
REMARK    3  A    between atoms: C_4  and  C_6 
REMARK    4  A    between atoms: O_5  and  C_9 
ROOT
HETATM    1  O   UNL     1      68.075   5.344   8.401  1.00  0.00    -0.391 OA
HETATM    2  C   UNL     1      66.336   6.454   6.368  1.00  0.00    -0.001 C 
HETATM    3  C   UNL     1      67.823   4.588   7.219  1.00  0.00     0.168 C 
HETATM    4  C   UNL     1      66.939   6.108   8.797  1.00  0.00     0.168 C 
HETATM    5  C   UNL     1      66.575   7.131   7.728  1.00  0.00     0.031 C 
HETATM    6  C   UNL     1      67.507   5.510   6.050  1.00  0.00     0.031 C 
ENDROOT
BRANCH   2   7
HETATM    7  C   UNL     1      66.175   7.464   5.224  1.00  0.00     0.115 C 
BRANCH   7   8
HETATM    8  C   UNL     1      64.993   8.384   5.383  1.00  0.00     0.259 C 
HETATM    9  O   UNL     1      65.076   9.529   5.812  1.00  0.00    -0.265 OA
BRANCH   8  10
HETATM   10  O   UNL     1      63.845   7.773   4.985  1.00  0.00    -0.322 OA
BRANCH  10  11
HETATM   11  C   UNL     1      63.590   7.801   3.570  1.00  0.00     0.174 C 
HETATM   12  C   UNL     1      62.644   8.934   3.220  1.00  0.00     0.034 C 
ENDBRANCH  10  11
ENDBRANCH   8  10
ENDBRANCH   7   8
ENDBRANCH   2   7
TORSDOF 4
ENDMDL
