MODEL 1
REMARK VINA RESULT:      -5.4      0.000      0.000
REMARK  2 active torsions:
REMARK  status: ('A' for Active; 'I' for Inactive)
REMARK    1  A    between atoms: C_1  and  C_4 
REMARK    2  A    between atoms: C_8  and  N_9 
ROOT
HETATM    1  C   UNL     1      63.167   9.264   4.291  1.00  0.00     0.017 A 
HETATM    2  C   UNL     1      62.783  10.533   4.783  1.00  0.00     0.038 A 
HETATM    3  C   UNL     1      62.732   8.864   3.012  1.00  0.00     0.016 A 
HETATM    4  C   UNL     1      62.053  11.394   3.951  1.00  0.00     0.030 A 
HETATM    5  C   UNL     1      61.966   9.718   2.219  1.00  0.00     0.001 A 
HETATM    6  C   UNL     1      61.630  10.983   2.687  1.00  0.00     0.002 A 
ENDROOT
BRANCH   1   7
HETATM    7  C   UNL     1      63.962   8.346   5.108  1.00  0.00     0.051 A 
HETATM    8  N   UNL     1      65.354   8.354   5.057  1.00  0.00    -0.353 N 
HETATM    9  C   UNL     1      65.839   7.458   5.889  1.00  0.00     0.047 A 
ATOM     10  HN  UNL     1      65.914   8.964   4.462  1.00  0.00     0.166 HD
HETATM   11  S   UNL     1      64.675   6.540   6.755  1.00  0.00    -0.087 SA
HETATM   12  C   UNL     1      67.291   7.214   6.103  1.00  0.00     0.076 C 
HETATM   13  C   UNL     1      63.423   7.412   5.973  1.00  0.00     0.082 A 
ENDBRANCH   1   7
BRANCH   2  14
HETATM   14  N   UNL     1      63.305  11.052   5.989  1.00  0.00    -0.398 N 
HETATM   15  H   UNL     1      64.150  11.558   5.983  1.00  0.00     0.156 HD
HETATM   16  H   UNL     1      62.824  10.908   6.836  1.00  0.00     0.156 HD
ENDBRANCH   2  14
TORSDOF 2
ENDMDL
MODEL 2
REMARK VINA RESULT:      -4.9      1.205      1.974
REMARK  2 active torsions:
REMARK  status: ('A' for Active; 'I' for Inactive)
REMARK    1  A    between atoms: C_1  and  C_4 
REMARK    2  A    between atoms: C_8  and  N_9 
ROOT
HETATM    1  C   UNL     1      63.449   9.017   4.572  1.00  0.00     0.017 A 
HETATM    2  C   UNL     1      62.988   8.737   3.265  1.00  0.00     0.038 A 
HETATM    3  C   UNL     1      63.109  10.247   5.169  1.00  0.00     0.016 A 
HETATM    4  C   UNL     1      62.133   9.651   2.633  1.00  0.00     0.030 A 
HETATM    5  C   UNL     1      62.296  11.165   4.504  1.00  0.00     0.001 A 
HETATM    6  C   UNL     1      61.806  10.865   3.238  1.00  0.00     0.002 A 
ENDROOT
BRANCH   1   7
HETATM    7  C   UNL     1      64.311   8.075   5.287  1.00  0.00     0.051 A 
HETATM    8  N   UNL     1      65.687   8.051   5.075  1.00  0.00    -0.353 N 
HETATM    9  C   UNL     1      66.244   7.138   5.841  1.00  0.00     0.047 A 
ATOM     10  HN  UNL     1      66.188   8.651   4.420  1.00  0.00     0.166 HD
HETATM   11  S   UNL     1      65.167   6.243   6.834  1.00  0.00    -0.087 SA
HETATM   12  C   UNL     1      67.704   6.859   5.884  1.00  0.00     0.076 C 
HETATM   13  C   UNL     1      63.854   7.148   6.205  1.00  0.00     0.082 A 
ENDBRANCH   1   7
BRANCH   2  14
HETATM   14  N   UNL     1      63.167   7.468   2.669  1.00  0.00    -0.398 N 
HETATM   15  H   UNL     1      63.870   7.337   1.992  1.00  0.00     0.156 HD
HETATM   16  H   UNL     1      62.589   6.716   2.931  1.00  0.00     0.156 HD
ENDBRANCH   2  14
TORSDOF 2
ENDMDL
MODEL 3
REMARK VINA RESULT:      -4.7      2.051      3.126
REMARK  2 active torsions:
REMARK  status: ('A' for Active; 'I' for Inactive)
REMARK    1  A    between atoms: C_1  and  C_4 
REMARK    2  A    between atoms: C_8  and  N_9 
ROOT
HETATM    1  C   UNL     1      62.420   9.126   3.734  1.00  0.00     0.017 A 
HETATM    2  C   UNL     1      62.415   8.880   2.341  1.00  0.00     0.038 A 
HETATM    3  C   UNL     1      62.170  10.432   4.200  1.00  0.00     0.016 A 
HETATM    4  C   UNL     1      62.075   9.922   1.466  1.00  0.00     0.030 A 
HETATM    5  C   UNL     1      61.881  11.466   3.309  1.00  0.00     0.001 A 
HETATM    6  C   UNL     1      61.830  11.210   1.944  1.00  0.00     0.002 A 
ENDROOT
BRANCH   1   7
HETATM    7  C   UNL     1      62.730   8.061   4.688  1.00  0.00     0.051 A 
HETATM    8  N   UNL     1      61.750   7.173   5.124  1.00  0.00    -0.353 N 
HETATM    9  C   UNL     1      62.272   6.301   5.959  1.00  0.00     0.047 A 
ATOM     10  HN  UNL     1      60.771   7.197   4.838  1.00  0.00     0.166 HD
HETATM   11  S   UNL     1      63.944   6.502   6.293  1.00  0.00    -0.087 SA
HETATM   12  C   UNL     1      61.510   5.196   6.599  1.00  0.00     0.076 C 
HETATM   13  C   UNL     1      63.982   7.849   5.234  1.00  0.00     0.082 A 
ENDBRANCH   1   7
BRANCH   2  14
HETATM   14  N   UNL     1      62.511   7.571   1.817  1.00  0.00    -0.398 N 
HETATM   15  H   UNL     1      61.710   7.126   1.457  1.00  0.00     0.156 HD
HETATM   16  H   UNL     1      63.378   7.105   1.812  1.00  0.00     0.156 HD
ENDBRANCH   2  14
TORSDOF 2
ENDMDL
MODEL 4
REMARK VINA RESULT:      -4.4      2.278      5.063
REMARK  2 active torsions:
REMARK  status: ('A' for Active; 'I' for Inactive)
REMARK    1  A    between atoms: C_1  and  C_4 
REMARK    2  A    between atoms: C_8  and  N_9 
ROOT
HETATM    1  C   UNL     1      64.550   7.985   5.369  1.00  0.00     0.017 A 
HETATM    2  C   UNL     1      64.099   7.020   6.299  1.00  0.00     0.038 A 
HETATM    3  C   UNL     1      65.929   8.257   5.277  1.00  0.00     0.016 A 
HETATM    4  C   UNL     1      65.043   6.295   7.041  1.00  0.00     0.030 A 
HETATM    5  C   UNL     1      66.849   7.558   6.060  1.00  0.00     0.001 A 
HETATM    6  C   UNL     1      66.405   6.576   6.938  1.00  0.00     0.002 A 
ENDROOT
BRANCH   1   7
HETATM    7  C   UNL     1      63.605   8.738   4.544  1.00  0.00     0.051 A 
HETATM    8  N   UNL     1      63.269   8.315   3.260  1.00  0.00    -0.353 N 
HETATM    9  C   UNL     1      62.393   9.140   2.729  1.00  0.00     0.047 A 
ATOM     10  HN  UNL     1      63.647   7.487   2.800  1.00  0.00     0.166 HD
HETATM   11  S   UNL     1      61.942  10.476   3.709  1.00  0.00    -0.087 SA
HETATM   12  C   UNL     1      61.803   8.976   1.374  1.00  0.00     0.076 C 
HETATM   13  C   UNL     1      62.983   9.906   4.945  1.00  0.00     0.082 A 
ENDBRANCH   1   7
BRANCH   2  14
HETATM   14  N   UNL     1      62.751   6.596   6.336  1.00  0.00    -0.398 N 
HETATM   15  H   UNL     1      62.027   7.262   6.367  1.00  0.00     0.156 HD
HETATM   16  H   UNL     1      62.537   5.635   6.332  1.00  0.00     0.156 HD
ENDBRANCH   2  14
TORSDOF 2
ENDMDL
MODEL 5
REMARK VINA RESULT:      -4.1      3.608      5.537
REMARK  2 active torsions:
REMARK  status: ('A' for Active; 'I' for Inactive)
REMARK    1  A    between atoms: C_1  and  C_4 
REMARK    2  A    between atoms: C_8  and  N_9 
ROOT
HETATM    1  C   UNL     1      61.614   9.041   3.415  1.00  0.00     0.017 A 
HETATM    2  C   UNL     1      62.363   8.245   4.312  1.00  0.00     0.038 A 
HETATM    3  C   UNL     1      61.658  10.443   3.544  1.00  0.00     0.016 A 
HETATM    4  C   UNL     1      63.198   8.873   5.248  1.00  0.00     0.030 A 
HETATM    5  C   UNL     1      62.458  11.048   4.513  1.00  0.00     0.001 A 
HETATM    6  C   UNL     1      63.230  10.263   5.362  1.00  0.00     0.002 A 
ENDROOT
BRANCH   1   7
HETATM    7  C   UNL     1      60.760   8.431   2.396  1.00  0.00     0.051 A 
HETATM    8  N   UNL     1      59.474   7.991   2.700  1.00  0.00    -0.353 N 
HETATM    9  C   UNL     1      58.900   7.500   1.623  1.00  0.00     0.047 A 
ATOM     10  HN  UNL     1      59.041   8.041   3.622  1.00  0.00     0.166 HD
HETATM   11  S   UNL     1      59.861   7.507   0.200  1.00  0.00    -0.087 SA
HETATM   12  C   UNL     1      57.515   6.960   1.585  1.00  0.00     0.076 C 
HETATM   13  C   UNL     1      61.139   8.234   1.081  1.00  0.00     0.082 A 
ENDBRANCH   1   7
BRANCH   2  14
HETATM   14  N   UNL     1      62.480   6.846   4.146  1.00  0.00    -0.398 N 
HETATM   15  H   UNL     1      62.138   6.238   4.841  1.00  0.00     0.156 HD
HETATM   16  H   UNL     1      62.903   6.481   3.336  1.00  0.00     0.156 HD
ENDBRANCH   2  14
TORSDOF 2
ENDMDL
MODEL 6
REMARK VINA RESULT:      -4.1      2.207      5.047
REMARK  2 active torsions:
REMARK  status: ('A' for Active; 'I' for Inactive)
REMARK    1  A    between atoms: C_1  and  C_4 
REMARK    2  A    between atoms: C_8  and  N_9 
ROOT
HETATM    1  C   UNL     1      64.980   6.853   4.600  1.00  0.00     0.017 A 
HETATM    2  C   UNL     1      65.455   6.789   5.930  1.00  0.00     0.038 A 
HETATM    3  C   UNL     1      65.763   6.303   3.566  1.00  0.00     0.016 A 
HETATM    4  C   UNL     1      66.648   6.102   6.197  1.00  0.00     0.030 A 
HETATM    5  C   UNL     1      66.972   5.665   3.846  1.00  0.00     0.001 A 
HETATM    6  C   UNL     1      67.411   5.561   5.161  1.00  0.00     0.002 A 
ENDROOT
BRANCH   1   7
HETATM    7  C   UNL     1      63.721   7.526   4.279  1.00  0.00     0.051 A 
HETATM    8  N   UNL     1      63.638   8.914   4.220  1.00  0.00    -0.353 N 
HETATM    9  C   UNL     1      62.416   9.279   3.897  1.00  0.00     0.047 A 
ATOM     10  HN  UNL     1      64.411   9.555   4.402  1.00  0.00     0.166 HD
HETATM   11  S   UNL     1      61.294   7.999   3.672  1.00  0.00    -0.087 SA
HETATM   12  C   UNL     1      61.981  10.691   3.726  1.00  0.00     0.076 C 
HETATM   13  C   UNL     1      62.534   6.867   4.019  1.00  0.00     0.082 A 
ENDBRANCH   1   7
BRANCH   2  14
HETATM   14  N   UNL     1      64.655   7.188   7.025  1.00  0.00    -0.398 N 
HETATM   15  H   UNL     1      64.980   7.879   7.647  1.00  0.00     0.156 HD
HETATM   16  H   UNL     1      63.773   6.774   7.167  1.00  0.00     0.156 HD
ENDBRANCH   2  14
TORSDOF 2
ENDMDL
MODEL 7
REMARK VINA RESULT:      -4.1      2.153      2.992
REMARK  2 active torsions:
REMARK  status: ('A' for Active; 'I' for Inactive)
REMARK    1  A    between atoms: C_1  and  C_4 
REMARK    2  A    between atoms: C_8  and  N_9 
ROOT
HETATM    1  C   UNL     1      63.638   7.490   5.139  1.00  0.00     0.017 A 
HETATM    2  C   UNL     1      62.416   6.795   4.988  1.00  0.00     0.038 A 
HETATM    3  C   UNL     1      63.787   8.753   4.531  1.00  0.00     0.016 A 
HETATM    4  C   UNL     1      61.355   7.417   4.314  1.00  0.00     0.030 A 
HETATM    5  C   UNL     1      62.735   9.335   3.824  1.00  0.00     0.001 A 
HETATM    6  C   UNL     1      61.519   8.669   3.719  1.00  0.00     0.002 A 
ENDROOT
BRANCH   1   7
HETATM    7  C   UNL     1      64.760   6.897   5.867  1.00  0.00     0.051 A 
HETATM    8  N   UNL     1      64.925   7.106   7.234  1.00  0.00    -0.353 N 
HETATM    9  C   UNL     1      65.987   6.460   7.663  1.00  0.00     0.047 A 
ATOM     10  HN  UNL     1      64.312   7.677   7.817  1.00  0.00     0.166 HD
HETATM   11  S   UNL     1      66.863   5.594   6.467  1.00  0.00    -0.087 SA
HETATM   12  C   UNL     1      66.445   6.448   9.078  1.00  0.00     0.076 C 
HETATM   13  C   UNL     1      65.733   6.107   5.285  1.00  0.00     0.082 A 
ENDBRANCH   1   7
BRANCH   2  14
HETATM   14  N   UNL     1      62.150   5.598   5.691  1.00  0.00    -0.398 N 
HETATM   15  H   UNL     1      61.555   5.609   6.475  1.00  0.00     0.156 HD
HETATM   16  H   UNL     1      62.560   4.753   5.396  1.00  0.00     0.156 HD
ENDBRANCH   2  14
TORSDOF 2
ENDMDL
MODEL 8
REMARK VINA RESULT:      -4.1      2.616      5.116
REMARK  2 active torsions:
REMARK  status: ('A' for Active; 'I' for Inactive)
REMARK    1  A    between atoms: C_1  and  C_4 
REMARK    2  A    between atoms: C_8  and  N_9 
ROOT
HETATM    1  C   UNL     1      63.412   7.779   4.436  1.00  0.00     0.017 A 
HETATM    2  C   UNL     1      62.566   7.039   5.294  1.00  0.00     0.038 A 
HETATM    3  C   UNL     1      64.791   7.839   4.718  1.00  0.00     0.016 A 
HETATM    4  C   UNL     1      63.134   6.312   6.351  1.00  0.00     0.030 A 
HETATM    5  C   UNL     1      65.330   7.147   5.803  1.00  0.00     0.001 A 
HETATM    6  C   UNL     1      64.502   6.382   6.616  1.00  0.00     0.002 A 
ENDROOT
BRANCH   1   7
HETATM    7  C   UNL     1      62.870   8.521   3.297  1.00  0.00     0.051 A 
HETATM    8  N   UNL     1      62.522   9.865   3.410  1.00  0.00    -0.353 N 
HETATM    9  C   UNL     1      62.079  10.313   2.256  1.00  0.00     0.047 A 
ATOM     10  HN  UNL     1      62.599  10.419   4.263  1.00  0.00     0.166 HD
HETATM   11  S   UNL     1      62.025   9.162   0.983  1.00  0.00    -0.087 SA
HETATM   12  C   UNL     1      61.640  11.714   2.014  1.00  0.00     0.076 C 
HETATM   13  C   UNL     1      62.653   7.974   2.047  1.00  0.00     0.082 A 
ENDBRANCH   1   7
BRANCH   2  14
HETATM   14  N   UNL     1      61.205   6.816   4.987  1.00  0.00    -0.398 N 
HETATM   15  H   UNL     1      60.772   7.333   4.269  1.00  0.00     0.156 HD
HETATM   16  H   UNL     1      60.689   6.146   5.490  1.00  0.00     0.156 HD
ENDBRANCH   2  14
TORSDOF 2
ENDMDL
MODEL 9
REMARK VINA RESULT:      -4.1      3.974      5.667
REMARK  2 active torsions:
REMARK  status: ('A' for Active; 'I' for Inactive)
REMARK    1  A    between atoms: C_1  and  C_4 
REMARK    2  A    between atoms: C_8  and  N_9 
ROOT
HETATM    1  C   UNL     1      60.413   7.340   4.029  1.00  0.00     0.017 A 
HETATM    2  C   UNL     1      59.011   7.197   4.136  1.00  0.00     0.038 A 
HETATM    3  C   UNL     1      61.243   6.665   4.947  1.00  0.00     0.016 A 
HETATM    4  C   UNL     1      58.486   6.319   5.095  1.00  0.00     0.030 A 
HETATM    5  C   UNL     1      60.698   5.833   5.925  1.00  0.00     0.001 A 
HETATM    6  C   UNL     1      59.321   5.657   5.996  1.00  0.00     0.002 A 
ENDROOT
BRANCH   1   7
HETATM    7  C   UNL     1      61.009   8.214   3.018  1.00  0.00     0.051 A 
HETATM    8  N   UNL     1      61.032   9.597   3.182  1.00  0.00    -0.353 N 
HETATM    9  C   UNL     1      61.632  10.162   2.157  1.00  0.00     0.047 A 
ATOM     10  HN  UNL     1      60.640  10.098   3.980  1.00  0.00     0.166 HD
HETATM   11  S   UNL     1      62.177   9.089   0.932  1.00  0.00    -0.087 SA
HETATM   12  C   UNL     1      61.850  11.626   2.017  1.00  0.00     0.076 C 
HETATM   13  C   UNL     1      61.579   7.765   1.842  1.00  0.00     0.082 A 
ENDBRANCH   1   7
BRANCH   2  14
HETATM   14  N   UNL     1      58.133   7.725   3.162  1.00  0.00    -0.398 N 
HETATM   15  H   UNL     1      58.482   8.304   2.447  1.00  0.00     0.156 HD
HETATM   16  H   UNL     1      57.172   7.512   3.198  1.00  0.00     0.156 HD
ENDBRANCH   2  14
TORSDOF 2
ENDMDL
