MODEL 1
REMARK VINA RESULT:      -3.9      0.000      0.000
REMARK  3 active torsions:
REMARK  status: ('A' for Active; 'I' for Inactive)
REMARK    1  A    between atoms: C_1  and  C_7 
REMARK    2  A    between atoms: C_2  and  O_6 
REMARK    3  A    between atoms: C_7  and  N_8 
ROOT
HETATM    1  C   UNL     1      63.252   9.617   4.801  1.00  0.00     0.041 A 
HETATM    2  C   UNL     1      64.360   8.818   5.022  1.00  0.00     0.083 A 
HETATM    3  S   UNL     1      62.270   8.995   3.537  1.00  0.00    -0.102 SA
HETATM    4  C   UNL     1      64.380   7.679   4.162  1.00  0.00     0.045 A 
HETATM    5  C   UNL     1      63.304   7.658   3.303  1.00  0.00     0.053 A 
ENDROOT
BRANCH   1   6
HETATM    6  C   UNL     1      62.842  10.876   5.501  1.00  0.00     0.278 C 
BRANCH   6   7
HETATM    7  N   UNL     1      63.940  11.408   6.305  1.00  0.00    -0.075 N 
HETATM    8  H   UNL     1      64.350  10.657   6.859  1.00  0.00     0.274 HD
HETATM    9  H   UNL     1      63.584  12.134   6.927  1.00  0.00     0.274 HD
HETATM   10  H   UNL     1      64.650  11.805   5.689  1.00  0.00     0.274 HD
ENDBRANCH   6   7
ENDBRANCH   1   6
BRANCH   2  11
HETATM   11  O   UNL     1      65.247   9.153   5.994  1.00  0.00    -0.355 OA
HETATM   12  C   UNL     1      66.273   8.190   6.210  1.00  0.00     0.210 C 
ENDBRANCH   2  11
TORSDOF 3
ENDMDL
MODEL 2
REMARK VINA RESULT:      -3.4      1.859      2.862
REMARK  3 active torsions:
REMARK  status: ('A' for Active; 'I' for Inactive)
REMARK    1  A    between atoms: C_1  and  C_7 
REMARK    2  A    between atoms: C_2  and  O_6 
REMARK    3  A    between atoms: C_7  and  N_8 
ROOT
HETATM    1  C   UNL     1      64.104   7.819   4.830  1.00  0.00     0.041 A 
HETATM    2  C   UNL     1      63.278   8.928   4.785  1.00  0.00     0.083 A 
HETATM    3  S   UNL     1      64.028   6.919   3.369  1.00  0.00    -0.102 SA
HETATM    4  C   UNL     1      62.605   9.046   3.531  1.00  0.00     0.045 A 
HETATM    5  C   UNL     1      62.921   8.016   2.674  1.00  0.00     0.053 A 
ENDROOT
BRANCH   1   6
HETATM    6  C   UNL     1      64.997   7.352   5.937  1.00  0.00     0.278 C 
BRANCH   6   7
HETATM    7  N   UNL     1      65.876   8.428   6.388  1.00  0.00    -0.075 N 
HETATM    8  H   UNL     1      65.897   8.445   7.408  1.00  0.00     0.274 HD
HETATM    9  H   UNL     1      65.527   9.321   6.040  1.00  0.00     0.274 HD
HETATM   10  H   UNL     1      66.818   8.268   6.030  1.00  0.00     0.274 HD
ENDBRANCH   6   7
ENDBRANCH   1   6
BRANCH   2  11
HETATM   11  O   UNL     1      63.216   9.764   5.854  1.00  0.00    -0.355 OA
HETATM   12  C   UNL     1      62.862  11.104   5.531  1.00  0.00     0.210 C 
ENDBRANCH   2  11
TORSDOF 3
ENDMDL
MODEL 3
REMARK VINA RESULT:      -3.4      2.205      3.097
REMARK  3 active torsions:
REMARK  status: ('A' for Active; 'I' for Inactive)
REMARK    1  A    between atoms: C_1  and  C_7 
REMARK    2  A    between atoms: C_2  and  O_6 
REMARK    3  A    between atoms: C_7  and  N_8 
ROOT
HETATM    1  C   UNL     1      63.206   9.345   4.451  1.00  0.00     0.041 A 
HETATM    2  C   UNL     1      62.713   8.639   3.368  1.00  0.00     0.083 A 
HETATM    3  S   UNL     1      64.548   8.547   5.164  1.00  0.00    -0.102 SA
HETATM    4  C   UNL     1      63.465   7.452   3.115  1.00  0.00     0.045 A 
HETATM    5  C   UNL     1      64.487   7.282   4.021  1.00  0.00     0.053 A 
ENDROOT
BRANCH   1   6
HETATM    6  C   UNL     1      62.729  10.644   5.025  1.00  0.00     0.278 C 
BRANCH   6   7
HETATM    7  N   UNL     1      63.662  11.144   6.032  1.00  0.00    -0.075 N 
HETATM    8  H   UNL     1      63.459  12.124   6.226  1.00  0.00     0.274 HD
HETATM    9  H   UNL     1      64.617  11.055   5.685  1.00  0.00     0.274 HD
HETATM   10  H   UNL     1      63.559  10.598   6.889  1.00  0.00     0.274 HD
ENDBRANCH   6   7
ENDBRANCH   1   6
BRANCH   2  11
HETATM   11  O   UNL     1      61.652   9.126   2.673  1.00  0.00    -0.355 OA
HETATM   12  C   UNL     1      61.961   9.545   1.348  1.00  0.00     0.210 C 
ENDBRANCH   2  11
TORSDOF 3
ENDMDL
MODEL 4
REMARK VINA RESULT:      -3.3      2.936      3.796
REMARK  3 active torsions:
REMARK  status: ('A' for Active; 'I' for Inactive)
REMARK    1  A    between atoms: C_1  and  C_7 
REMARK    2  A    between atoms: C_2  and  O_6 
REMARK    3  A    between atoms: C_7  and  N_8 
ROOT
HETATM    1  C   UNL     1      62.496   9.623   3.563  1.00  0.00     0.041 A 
HETATM    2  C   UNL     1      62.452   8.676   2.555  1.00  0.00     0.083 A 
HETATM    3  S   UNL     1      63.492   9.112   4.865  1.00  0.00    -0.102 SA
HETATM    4  C   UNL     1      63.265   7.541   2.852  1.00  0.00     0.045 A 
HETATM    5  C   UNL     1      63.881   7.648   4.078  1.00  0.00     0.053 A 
ENDROOT
BRANCH   1   6
HETATM    6  C   UNL     1      61.817  10.956   3.634  1.00  0.00     0.278 C 
BRANCH   6   7
HETATM    7  N   UNL     1      61.735  11.573   2.313  1.00  0.00    -0.075 N 
HETATM    8  H   UNL     1      61.583  12.576   2.414  1.00  0.00     0.274 HD
HETATM    9  H   UNL     1      60.959  11.161   1.794  1.00  0.00     0.274 HD
HETATM   10  H   UNL     1      62.607  11.409   1.808  1.00  0.00     0.274 HD
ENDBRANCH   6   7
ENDBRANCH   1   6
BRANCH   2  11
HETATM   11  O   UNL     1      61.717   8.915   1.439  1.00  0.00    -0.355 OA
HETATM   12  C   UNL     1      62.163   8.217   0.281  1.00  0.00     0.210 C 
ENDBRANCH   2  11
TORSDOF 3
ENDMDL
MODEL 5
REMARK VINA RESULT:      -3.3      3.878      4.663
REMARK  3 active torsions:
REMARK  status: ('A' for Active; 'I' for Inactive)
REMARK    1  A    between atoms: C_1  and  C_7 
REMARK    2  A    between atoms: C_2  and  O_6 
REMARK    3  A    between atoms: C_7  and  N_8 
ROOT
HETATM    1  C   UNL     1      66.405   6.787   6.927  1.00  0.00     0.041 A 
HETATM    2  C   UNL     1      65.241   7.234   6.327  1.00  0.00     0.083 A 
HETATM    3  S   UNL     1      67.744   6.887   5.857  1.00  0.00    -0.102 SA
HETATM    4  C   UNL     1      65.466   7.683   4.990  1.00  0.00     0.045 A 
HETATM    5  C   UNL     1      66.781   7.545   4.610  1.00  0.00     0.053 A 
ENDROOT
BRANCH   1   6
HETATM    6  C   UNL     1      66.609   6.264   8.316  1.00  0.00     0.278 C 
BRANCH   6   7
HETATM    7  N   UNL     1      65.965   4.964   8.485  1.00  0.00    -0.075 N 
HETATM    8  H   UNL     1      65.202   4.873   7.815  1.00  0.00     0.274 HD
HETATM    9  H   UNL     1      65.597   4.889   9.434  1.00  0.00     0.274 HD
HETATM   10  H   UNL     1      66.649   4.224   8.326  1.00  0.00     0.274 HD
ENDBRANCH   6   7
ENDBRANCH   1   6
BRANCH   2  11
HETATM   11  O   UNL     1      64.079   7.235   7.030  1.00  0.00    -0.355 OA
HETATM   12  C   UNL     1      62.930   6.890   6.264  1.00  0.00     0.210 C 
ENDBRANCH   2  11
TORSDOF 3
ENDMDL
MODEL 6
REMARK VINA RESULT:      -3.2      2.708      3.966
REMARK  3 active torsions:
REMARK  status: ('A' for Active; 'I' for Inactive)
REMARK    1  A    between atoms: C_1  and  C_7 
REMARK    2  A    between atoms: C_2  and  O_6 
REMARK    3  A    between atoms: C_7  and  N_8 
ROOT
HETATM    1  C   UNL     1      63.095   9.098   4.185  1.00  0.00     0.041 A 
HETATM    2  C   UNL     1      62.468   9.340   2.975  1.00  0.00     0.083 A 
HETATM    3  S   UNL     1      62.968  10.446   5.241  1.00  0.00    -0.102 SA
HETATM    4  C   UNL     1      61.860  10.631   2.937  1.00  0.00     0.045 A 
HETATM    5  C   UNL     1      62.061  11.336   4.102  1.00  0.00     0.053 A 
ENDROOT
BRANCH   1   6
HETATM    6  C   UNL     1      63.820   7.870   4.641  1.00  0.00     0.278 C 
BRANCH   6   7
HETATM    7  N   UNL     1      63.936   7.841   6.097  1.00  0.00    -0.075 N 
HETATM    8  H   UNL     1      63.858   8.790   6.463  1.00  0.00     0.274 HD
HETATM    9  H   UNL     1      64.840   7.448   6.358  1.00  0.00     0.274 HD
HETATM   10  H   UNL     1      63.189   7.264   6.485  1.00  0.00     0.274 HD
ENDBRANCH   6   7
ENDBRANCH   1   6
BRANCH   2  11
HETATM   11  O   UNL     1      62.460   8.378   2.017  1.00  0.00    -0.355 OA
HETATM   12  C   UNL     1      62.191   8.859   0.704  1.00  0.00     0.210 C 
ENDBRANCH   2  11
TORSDOF 3
ENDMDL
MODEL 7
REMARK VINA RESULT:      -3.1      3.743      4.641
REMARK  3 active torsions:
REMARK  status: ('A' for Active; 'I' for Inactive)
REMARK    1  A    between atoms: C_1  and  C_7 
REMARK    2  A    between atoms: C_2  and  O_6 
REMARK    3  A    between atoms: C_7  and  N_8 
ROOT
HETATM    1  C   UNL     1      65.911   6.086   7.213  1.00  0.00     0.041 A 
HETATM    2  C   UNL     1      64.595   6.196   6.800  1.00  0.00     0.083 A 
HETATM    3  S   UNL     1      66.535   4.514   6.912  1.00  0.00    -0.102 SA
HETATM    4  C   UNL     1      64.115   4.988   6.211  1.00  0.00     0.045 A 
HETATM    5  C   UNL     1      65.067   3.994   6.214  1.00  0.00     0.053 A 
ENDROOT
BRANCH   1   6
HETATM    6  C   UNL     1      66.791   7.119   7.847  1.00  0.00     0.278 C 
BRANCH   6   7
HETATM    7  N   UNL     1      66.801   8.350   7.062  1.00  0.00    -0.075 N 
HETATM    8  H   UNL     1      66.876   8.121   6.071  1.00  0.00     0.274 HD
HETATM    9  H   UNL     1      67.598   8.924   7.340  1.00  0.00     0.274 HD
HETATM   10  H   UNL     1      65.936   8.865   7.228  1.00  0.00     0.274 HD
ENDBRANCH   6   7
ENDBRANCH   1   6
BRANCH   2  11
HETATM   11  O   UNL     1      63.939   7.376   6.953  1.00  0.00    -0.355 OA
HETATM   12  C   UNL     1      62.724   7.471   6.218  1.00  0.00     0.210 C 
ENDBRANCH   2  11
TORSDOF 3
ENDMDL
MODEL 8
REMARK VINA RESULT:      -3.1      2.774      3.305
REMARK  3 active torsions:
REMARK  status: ('A' for Active; 'I' for Inactive)
REMARK    1  A    between atoms: C_1  and  C_7 
REMARK    2  A    between atoms: C_2  and  O_6 
REMARK    3  A    between atoms: C_7  and  N_8 
ROOT
HETATM    1  C   UNL     1      65.110   7.740   5.795  1.00  0.00     0.041 A 
HETATM    2  C   UNL     1      64.440   6.759   6.506  1.00  0.00     0.083 A 
HETATM    3  S   UNL     1      64.039   8.630   4.789  1.00  0.00    -0.102 SA
HETATM    4  C   UNL     1      63.038   6.765   6.236  1.00  0.00     0.045 A 
HETATM    5  C   UNL     1      62.690   7.729   5.318  1.00  0.00     0.053 A 
ENDROOT
BRANCH   1   6
HETATM    6  C   UNL     1      66.567   8.087   5.810  1.00  0.00     0.278 C 
BRANCH   6   7
HETATM    7  N   UNL     1      66.997   8.480   7.149  1.00  0.00    -0.075 N 
HETATM    8  H   UNL     1      66.636   7.813   7.831  1.00  0.00     0.274 HD
HETATM    9  H   UNL     1      66.638   9.412   7.361  1.00  0.00     0.274 HD
HETATM   10  H   UNL     1      68.016   8.491   7.188  1.00  0.00     0.274 HD
ENDBRANCH   6   7
ENDBRANCH   1   6
BRANCH   2  11
HETATM   11  O   UNL     1      65.129   5.960   7.361  1.00  0.00    -0.355 OA
HETATM   12  C   UNL     1      65.068   4.573   7.047  1.00  0.00     0.210 C 
ENDBRANCH   2  11
TORSDOF 3
ENDMDL
MODEL 9
REMARK VINA RESULT:      -3.0      4.590      5.375
REMARK  3 active torsions:
REMARK  status: ('A' for Active; 'I' for Inactive)
REMARK    1  A    between atoms: C_1  and  C_7 
REMARK    2  A    between atoms: C_2  and  O_6 
REMARK    3  A    between atoms: C_7  and  N_8 
ROOT
HETATM    1  C   UNL     1      67.106   6.576   7.111  1.00  0.00     0.041 A 
HETATM    2  C   UNL     1      67.581   5.756   6.103  1.00  0.00     0.083 A 
HETATM    3  S   UNL     1      66.588   8.094   6.498  1.00  0.00    -0.102 SA
HETATM    4  C   UNL     1      67.489   6.377   4.820  1.00  0.00     0.045 A 
HETATM    5  C   UNL     1      66.972   7.650   4.895  1.00  0.00     0.053 A 
ENDROOT
BRANCH   1   6
HETATM    6  C   UNL     1      67.000   6.299   8.579  1.00  0.00     0.278 C 
BRANCH   6   7
HETATM    7  N   UNL     1      66.298   5.042   8.825  1.00  0.00    -0.075 N 
HETATM    8  H   UNL     1      65.325   5.133   8.533  1.00  0.00     0.274 HD
HETATM    9  H   UNL     1      66.336   4.821   9.821  1.00  0.00     0.274 HD
HETATM   10  H   UNL     1      66.745   4.295   8.294  1.00  0.00     0.274 HD
ENDBRANCH   6   7
ENDBRANCH   1   6
BRANCH   2  11
HETATM   11  O   UNL     1      68.026   4.509   6.403  1.00  0.00    -0.355 OA
HETATM   12  C   UNL     1      67.505   3.482   5.567  1.00  0.00     0.210 C 
ENDBRANCH   2  11
TORSDOF 3
ENDMDL
