MODEL 1
REMARK VINA RESULT:      -3.6      0.000      0.000
REMARK  3 active torsions:
REMARK  status: ('A' for Active; 'I' for Inactive)
REMARK    1  A    between atoms: C_1  and  C_7 
REMARK    2  A    between atoms: C_2  and  O_6 
REMARK    3  A    between atoms: C_7  and  N_8 
ROOT
HETATM    1  C   UNL     1      65.720   7.926   5.007  1.00  0.00     0.041 A 
HETATM    2  C   UNL     1      64.597   8.739   4.981  1.00  0.00     0.083 A 
HETATM    3  S   UNL     1      65.511   6.571   3.947  1.00  0.00    -0.102 SA
HETATM    4  C   UNL     1      63.561   8.206   4.155  1.00  0.00     0.045 A 
HETATM    5  C   UNL     1      63.925   7.033   3.539  1.00  0.00     0.053 A 
ENDROOT
BRANCH   1   6
HETATM    6  C   UNL     1      67.013   8.005   5.768  1.00  0.00     0.280 C 
BRANCH   6   7
HETATM    7  N   UNL     1      66.846   8.217   7.211  1.00  0.00    -0.075 N 
HETATM    8  C   UNL     1      66.600   6.976   7.935  1.00  0.00     0.267 C 
HETATM    9  H   UNL     1      66.056   8.844   7.360  1.00  0.00     0.277 HD
HETATM   10  H   UNL     1      67.715   8.614   7.567  1.00  0.00     0.277 HD
ENDBRANCH   6   7
ENDBRANCH   1   6
BRANCH   2  11
HETATM   11  O   UNL     1      64.362   9.857   5.716  1.00  0.00    -0.355 OA
HETATM   12  C   UNL     1      63.156  10.541   5.413  1.00  0.00     0.210 C 
ENDBRANCH   2  11
TORSDOF 3
ENDMDL
MODEL 2
REMARK VINA RESULT:      -3.6      2.811      4.360
REMARK  3 active torsions:
REMARK  status: ('A' for Active; 'I' for Inactive)
REMARK    1  A    between atoms: C_1  and  C_7 
REMARK    2  A    between atoms: C_2  and  O_6 
REMARK    3  A    between atoms: C_7  and  N_8 
ROOT
HETATM    1  C   UNL     1      63.255   8.901   4.083  1.00  0.00     0.041 A 
HETATM    2  C   UNL     1      64.403   8.430   4.701  1.00  0.00     0.083 A 
HETATM    3  S   UNL     1      62.726   7.792   2.861  1.00  0.00    -0.102 SA
HETATM    4  C   UNL     1      64.870   7.212   4.121  1.00  0.00     0.045 A 
HETATM    5  C   UNL     1      64.055   6.759   3.111  1.00  0.00     0.053 A 
ENDROOT
BRANCH   1   6
HETATM    6  C   UNL     1      62.441  10.151   4.269  1.00  0.00     0.280 C 
BRANCH   6   7
HETATM    7  N   UNL     1      61.439  10.374   3.220  1.00  0.00    -0.075 N 
HETATM    8  C   UNL     1      61.797  11.468   2.326  1.00  0.00     0.267 C 
HETATM    9  H   UNL     1      60.546  10.593   3.662  1.00  0.00     0.277 HD
HETATM   10  H   UNL     1      61.385   9.524   2.660  1.00  0.00     0.277 HD
ENDBRANCH   6   7
ENDBRANCH   1   6
BRANCH   2  11
HETATM   11  O   UNL     1      65.142   9.043   5.662  1.00  0.00    -0.355 OA
HETATM   12  C   UNL     1      66.187   8.258   6.218  1.00  0.00     0.210 C 
ENDBRANCH   2  11
TORSDOF 3
ENDMDL
MODEL 3
REMARK VINA RESULT:      -3.4      3.919      5.369
REMARK  3 active torsions:
REMARK  status: ('A' for Active; 'I' for Inactive)
REMARK    1  A    between atoms: C_1  and  C_7 
REMARK    2  A    between atoms: C_2  and  O_6 
REMARK    3  A    between atoms: C_7  and  N_8 
ROOT
HETATM    1  C   UNL     1      62.367   8.673   2.930  1.00  0.00     0.041 A 
HETATM    2  C   UNL     1      62.225   9.777   3.756  1.00  0.00     0.083 A 
HETATM    3  S   UNL     1      63.576   7.601   3.556  1.00  0.00    -0.102 SA
HETATM    4  C   UNL     1      63.151   9.765   4.843  1.00  0.00     0.045 A 
HETATM    5  C   UNL     1      63.945   8.643   4.850  1.00  0.00     0.053 A 
ENDROOT
BRANCH   1   6
HETATM    6  C   UNL     1      61.699   8.274   1.644  1.00  0.00     0.280 C 
BRANCH   6   7
HETATM    7  N   UNL     1      60.322   8.762   1.509  1.00  0.00    -0.075 N 
HETATM    8  C   UNL     1      59.537   7.974   0.567  1.00  0.00     0.267 C 
HETATM    9  H   UNL     1      60.348   9.728   1.183  1.00  0.00     0.277 HD
HETATM   10  H   UNL     1      59.876   8.685   2.423  1.00  0.00     0.277 HD
ENDBRANCH   6   7
ENDBRANCH   1   6
BRANCH   2  11
HETATM   11  O   UNL     1      61.422  10.857   3.571  1.00  0.00    -0.355 OA
HETATM   12  C   UNL     1      61.819  11.739   2.532  1.00  0.00     0.210 C 
ENDBRANCH   2  11
TORSDOF 3
ENDMDL
MODEL 4
REMARK VINA RESULT:      -3.3      1.950      2.737
REMARK  3 active torsions:
REMARK  status: ('A' for Active; 'I' for Inactive)
REMARK    1  A    between atoms: C_1  and  C_7 
REMARK    2  A    between atoms: C_2  and  O_6 
REMARK    3  A    between atoms: C_7  and  N_8 
ROOT
HETATM    1  C   UNL     1      64.999   6.890   6.488  1.00  0.00     0.041 A 
HETATM    2  C   UNL     1      65.570   7.952   5.804  1.00  0.00     0.083 A 
HETATM    3  S   UNL     1      63.305   6.785   6.139  1.00  0.00    -0.102 SA
HETATM    4  C   UNL     1      64.605   8.703   5.065  1.00  0.00     0.045 A 
HETATM    5  C   UNL     1      63.338   8.180   5.164  1.00  0.00     0.053 A 
ENDROOT
BRANCH   1   6
HETATM    6  C   UNL     1      65.564   5.876   7.442  1.00  0.00     0.280 C 
BRANCH   6   7
HETATM    7  N   UNL     1      66.963   6.120   7.815  1.00  0.00    -0.075 N 
HETATM    8  C   UNL     1      67.114   6.493   9.215  1.00  0.00     0.267 C 
HETATM    9  H   UNL     1      67.329   6.875   7.235  1.00  0.00     0.277 HD
HETATM   10  H   UNL     1      67.477   5.251   7.670  1.00  0.00     0.277 HD
ENDBRANCH   6   7
ENDBRANCH   1   6
BRANCH   2  11
HETATM   11  O   UNL     1      66.855   8.388   5.864  1.00  0.00    -0.355 OA
HETATM   12  C   UNL     1      67.707   7.910   4.834  1.00  0.00     0.210 C 
ENDBRANCH   2  11
TORSDOF 3
ENDMDL
MODEL 5
REMARK VINA RESULT:      -3.3      3.242      4.256
REMARK  3 active torsions:
REMARK  status: ('A' for Active; 'I' for Inactive)
REMARK    1  A    between atoms: C_1  and  C_7 
REMARK    2  A    between atoms: C_2  and  O_6 
REMARK    3  A    between atoms: C_7  and  N_8 
ROOT
HETATM    1  C   UNL     1      62.513   9.342   3.725  1.00  0.00     0.041 A 
HETATM    2  C   UNL     1      62.439   8.856   2.429  1.00  0.00     0.083 A 
HETATM    3  S   UNL     1      62.009  10.998   3.781  1.00  0.00    -0.102 SA
HETATM    4  C   UNL     1      62.040   9.860   1.496  1.00  0.00     0.045 A 
HETATM    5  C   UNL     1      61.780  11.069   2.096  1.00  0.00     0.053 A 
ENDROOT
BRANCH   1   6
HETATM    6  C   UNL     1      62.949   8.716   5.021  1.00  0.00     0.280 C 
BRANCH   6   7
HETATM    7  N   UNL     1      64.266   9.166   5.489  1.00  0.00    -0.075 N 
HETATM    8  C   UNL     1      65.328   8.221   5.169  1.00  0.00     0.267 C 
HETATM    9  H   UNL     1      64.230   9.286   6.501  1.00  0.00     0.277 HD
HETATM   10  H   UNL     1      64.479  10.043   5.013  1.00  0.00     0.277 HD
ENDBRANCH   6   7
ENDBRANCH   1   6
BRANCH   2  11
HETATM   11  O   UNL     1      62.802   7.627   1.978  1.00  0.00    -0.355 OA
HETATM   12  C   UNL     1      61.779   6.643   2.005  1.00  0.00     0.210 C 
ENDBRANCH   2  11
TORSDOF 3
ENDMDL
MODEL 6
REMARK VINA RESULT:      -3.3      3.471      4.995
REMARK  3 active torsions:
REMARK  status: ('A' for Active; 'I' for Inactive)
REMARK    1  A    between atoms: C_1  and  C_7 
REMARK    2  A    between atoms: C_2  and  O_6 
REMARK    3  A    between atoms: C_7  and  N_8 
ROOT
HETATM    1  C   UNL     1      63.011   8.949   3.792  1.00  0.00     0.041 A 
HETATM    2  C   UNL     1      63.065   7.915   2.870  1.00  0.00     0.083 A 
HETATM    3  S   UNL     1      64.225   8.737   5.010  1.00  0.00    -0.102 SA
HETATM    4  C   UNL     1      64.044   6.933   3.212  1.00  0.00     0.045 A 
HETATM    5  C   UNL     1      64.741   7.255   4.351  1.00  0.00     0.053 A 
ENDROOT
BRANCH   1   6
HETATM    6  C   UNL     1      62.118  10.151   3.919  1.00  0.00     0.280 C 
BRANCH   6   7
HETATM    7  N   UNL     1      61.359  10.463   2.703  1.00  0.00    -0.075 N 
HETATM    8  C   UNL     1      61.787  11.708   2.078  1.00  0.00     0.267 C 
HETATM    9  H   UNL     1      60.371  10.543   2.945  1.00  0.00     0.277 HD
HETATM   10  H   UNL     1      61.523   9.710   2.035  1.00  0.00     0.277 HD
ENDBRANCH   6   7
ENDBRANCH   1   6
BRANCH   2  11
HETATM   11  O   UNL     1      62.243   7.702   1.809  1.00  0.00    -0.355 OA
HETATM   12  C   UNL     1      61.122   6.870   2.066  1.00  0.00     0.210 C 
ENDBRANCH   2  11
TORSDOF 3
ENDMDL
MODEL 7
REMARK VINA RESULT:      -3.3      2.347      2.803
REMARK  3 active torsions:
REMARK  status: ('A' for Active; 'I' for Inactive)
REMARK    1  A    between atoms: C_1  and  C_7 
REMARK    2  A    between atoms: C_2  and  O_6 
REMARK    3  A    between atoms: C_7  and  N_8 
ROOT
HETATM    1  C   UNL     1      66.240   6.087   6.520  1.00  0.00     0.041 A 
HETATM    2  C   UNL     1      65.270   7.064   6.357  1.00  0.00     0.083 A 
HETATM    3  S   UNL     1      67.504   6.288   5.352  1.00  0.00    -0.102 SA
HETATM    4  C   UNL     1      65.538   7.913   5.240  1.00  0.00     0.045 A 
HETATM    5  C   UNL     1      66.715   7.598   4.606  1.00  0.00     0.053 A 
ENDROOT
BRANCH   1   6
HETATM    6  C   UNL     1      66.370   4.934   7.476  1.00  0.00     0.280 C 
BRANCH   6   7
HETATM    7  N   UNL     1      66.228   5.309   8.888  1.00  0.00    -0.075 N 
HETATM    8  C   UNL     1      67.224   6.285   9.312  1.00  0.00     0.267 C 
HETATM    9  H   UNL     1      66.329   4.471   9.461  1.00  0.00     0.277 HD
HETATM   10  H   UNL     1      65.309   5.736   9.003  1.00  0.00     0.277 HD
ENDBRANCH   6   7
ENDBRANCH   1   6
BRANCH   2  11
HETATM   11  O   UNL     1      64.105   7.202   7.042  1.00  0.00    -0.355 OA
HETATM   12  C   UNL     1      62.941   7.335   6.240  1.00  0.00     0.210 C 
ENDBRANCH   2  11
TORSDOF 3
ENDMDL
MODEL 8
REMARK VINA RESULT:      -3.3      2.791      3.609
REMARK  3 active torsions:
REMARK  status: ('A' for Active; 'I' for Inactive)
REMARK    1  A    between atoms: C_1  and  C_7 
REMARK    2  A    between atoms: C_2  and  O_6 
REMARK    3  A    between atoms: C_7  and  N_8 
ROOT
HETATM    1  C   UNL     1      63.343   8.902   4.158  1.00  0.00     0.041 A 
HETATM    2  C   UNL     1      62.638   9.017   2.970  1.00  0.00     0.083 A 
HETATM    3  S   UNL     1      63.023  10.260   5.185  1.00  0.00    -0.102 SA
HETATM    4  C   UNL     1      61.908  10.241   2.888  1.00  0.00     0.045 A 
HETATM    5  C   UNL     1      62.034  11.009   4.021  1.00  0.00     0.053 A 
ENDROOT
BRANCH   1   6
HETATM    6  C   UNL     1      64.299   7.864   4.676  1.00  0.00     0.280 C 
BRANCH   6   7
HETATM    7  N   UNL     1      64.780   8.121   6.039  1.00  0.00    -0.075 N 
HETATM    8  C   UNL     1      66.231   8.035   6.147  1.00  0.00     0.267 C 
HETATM    9  H   UNL     1      64.364   7.433   6.668  1.00  0.00     0.277 HD
HETATM   10  H   UNL     1      64.507   9.071   6.288  1.00  0.00     0.277 HD
ENDBRANCH   6   7
ENDBRANCH   1   6
BRANCH   2  11
HETATM   11  O   UNL     1      62.673   8.183   1.898  1.00  0.00    -0.355 OA
HETATM   12  C   UNL     1      62.143   8.718   0.695  1.00  0.00     0.210 C 
ENDBRANCH   2  11
TORSDOF 3
ENDMDL
MODEL 9
REMARK VINA RESULT:      -3.2      2.551      3.932
REMARK  3 active torsions:
REMARK  status: ('A' for Active; 'I' for Inactive)
REMARK    1  A    between atoms: C_1  and  C_7 
REMARK    2  A    between atoms: C_2  and  O_6 
REMARK    3  A    between atoms: C_7  and  N_8 
ROOT
HETATM    1  C   UNL     1      64.389   7.894   5.217  1.00  0.00     0.041 A 
HETATM    2  C   UNL     1      63.934   7.268   6.367  1.00  0.00     0.083 A 
HETATM    3  S   UNL     1      66.066   7.542   4.960  1.00  0.00    -0.102 SA
HETATM    4  C   UNL     1      64.974   6.572   7.055  1.00  0.00     0.045 A 
HETATM    5  C   UNL     1      66.181   6.645   6.401  1.00  0.00     0.053 A 
ENDROOT
BRANCH   1   6
HETATM    6  C   UNL     1      63.718   8.791   4.216  1.00  0.00     0.280 C 
BRANCH   6   7
HETATM    7  N   UNL     1      62.727   9.703   4.799  1.00  0.00    -0.075 N 
HETATM    8  C   UNL     1      61.987  10.449   3.789  1.00  0.00     0.267 C 
HETATM    9  H   UNL     1      63.209  10.366   5.406  1.00  0.00     0.277 HD
HETATM   10  H   UNL     1      62.055   9.137   5.318  1.00  0.00     0.277 HD
ENDBRANCH   6   7
ENDBRANCH   1   6
BRANCH   2  11
HETATM   11  O   UNL     1      62.698   7.350   6.926  1.00  0.00    -0.355 OA
HETATM   12  C   UNL     1      61.725   6.471   6.382  1.00  0.00     0.210 C 
ENDBRANCH   2  11
TORSDOF 3
ENDMDL
