MODEL 1
REMARK VINA RESULT:      -5.6      0.000      0.000
REMARK  4 active torsions:
REMARK  status: ('A' for Active; 'I' for Inactive)
REMARK    1  A    between atoms: C_1  and  N_6 
REMARK    2  A    between atoms: N_6  and  C_10 
REMARK    3  A    between atoms: C_7  and  C_12 
REMARK    4  A    between atoms: N_11  and  C_12 
ROOT
HETATM    1  C   UNL     1      64.154   8.265   5.998  1.00  0.00     0.682 A 
HETATM    2  N   UNL     1      65.377   8.794   5.836  1.00  0.00    -0.201 N 
ATOM      3  HN  UNL     1      65.510   9.714   5.417  1.00  0.00     0.183 HD
HETATM    4  N   UNL     1      63.937   7.067   6.564  1.00  0.00    -0.201 N 
ATOM      5  HN  UNL     1      62.994   6.691   6.659  1.00  0.00     0.183 HD
HETATM    6  C   UNL     1      66.301   6.822   6.870  1.00  0.00    -0.001 A 
HETATM    7  C   UNL     1      66.423   8.049   6.256  1.00  0.00     0.116 A 
HETATM    8  C   UNL     1      65.006   6.380   7.001  1.00  0.00     0.116 A 
ENDROOT
BRANCH   1   9
HETATM    9  N   UNL     1      63.069   9.036   5.593  1.00  0.00    -0.192 N 
HETATM   10  H   UNL     1      62.464   9.332   6.312  1.00  0.00     0.184 HD
BRANCH   9  11
HETATM   11  C   UNL     1      62.722   9.450   4.300  1.00  0.00     0.049 A 
HETATM   12  C   UNL     1      62.240  10.747   4.093  1.00  0.00     0.030 A 
HETATM   13  C   UNL     1      61.809  11.156   2.827  1.00  0.00     0.002 A 
HETATM   14  C   UNL     1      61.874  10.280   1.747  1.00  0.00     0.000 A 
HETATM   15  C   UNL     1      62.360   8.990   1.933  1.00  0.00     0.002 A 
HETATM   16  C   UNL     1      62.770   8.580   3.203  1.00  0.00     0.030 A 
ENDBRANCH   9  11
ENDBRANCH   1   9
BRANCH   6  17
HETATM   17  C   UNL     1      67.465   6.024   7.356  1.00  0.00     0.271 C 
BRANCH  17  18
HETATM   18  N   UNL     1      67.982   6.554   8.614  1.00  0.00    -0.075 N 
HETATM   19  H   UNL     1      68.850   6.076   8.853  1.00  0.00     0.274 HD
HETATM   20  H   UNL     1      67.296   6.403   9.353  1.00  0.00     0.274 HD
HETATM   21  H   UNL     1      68.159   7.554   8.514  1.00  0.00     0.274 HD
ENDBRANCH  17  18
ENDBRANCH   6  17
TORSDOF 4
ENDMDL
MODEL 2
REMARK VINA RESULT:      -5.6      0.632      1.315
REMARK  4 active torsions:
REMARK  status: ('A' for Active; 'I' for Inactive)
REMARK    1  A    between atoms: C_1  and  N_6 
REMARK    2  A    between atoms: N_6  and  C_10 
REMARK    3  A    between atoms: C_7  and  C_12 
REMARK    4  A    between atoms: N_11  and  C_12 
ROOT
HETATM    1  C   UNL     1      63.963   8.037   5.551  1.00  0.00     0.682 A 
HETATM    2  N   UNL     1      63.944   7.187   6.590  1.00  0.00    -0.201 N 
ATOM      3  HN  UNL     1      63.071   6.916   7.043  1.00  0.00     0.183 HD
HETATM    4  N   UNL     1      65.089   8.400   4.916  1.00  0.00    -0.201 N 
ATOM      5  HN  UNL     1      65.067   9.059   4.137  1.00  0.00     0.183 HD
HETATM    6  C   UNL     1      66.340   7.001   6.405  1.00  0.00    -0.001 A 
HETATM    7  C   UNL     1      65.136   6.708   7.006  1.00  0.00     0.116 A 
HETATM    8  C   UNL     1      66.246   7.866   5.341  1.00  0.00     0.116 A 
ENDROOT
BRANCH   1   9
HETATM    9  N   UNL     1      62.738   8.515   5.098  1.00  0.00    -0.192 N 
HETATM   10  H   UNL     1      61.947   8.201   5.595  1.00  0.00     0.184 HD
BRANCH   9  11
HETATM   11  C   UNL     1      62.477   9.384   4.030  1.00  0.00     0.049 A 
HETATM   12  C   UNL     1      62.228  10.737   4.282  1.00  0.00     0.030 A 
HETATM   13  C   UNL     1      61.884  11.607   3.242  1.00  0.00     0.002 A 
HETATM   14  C   UNL     1      61.805  11.139   1.933  1.00  0.00     0.000 A 
HETATM   15  C   UNL     1      62.061   9.798   1.663  1.00  0.00     0.002 A 
HETATM   16  C   UNL     1      62.383   8.930   2.708  1.00  0.00     0.030 A 
ENDBRANCH   9  11
ENDBRANCH   1   9
BRANCH   6  17
HETATM   17  C   UNL     1      67.646   6.438   6.858  1.00  0.00     0.271 C 
BRANCH  17  18
HETATM   18  N   UNL     1      67.796   6.545   8.305  1.00  0.00    -0.075 N 
HETATM   19  H   UNL     1      68.531   5.911   8.618  1.00  0.00     0.274 HD
HETATM   20  H   UNL     1      66.917   6.296   8.757  1.00  0.00     0.274 HD
HETATM   21  H   UNL     1      68.045   7.503   8.551  1.00  0.00     0.274 HD
ENDBRANCH  17  18
ENDBRANCH   6  17
TORSDOF 4
ENDMDL
MODEL 3
REMARK VINA RESULT:      -5.3      1.705      2.765
REMARK  4 active torsions:
REMARK  status: ('A' for Active; 'I' for Inactive)
REMARK    1  A    between atoms: C_1  and  N_6 
REMARK    2  A    between atoms: N_6  and  C_10 
REMARK    3  A    between atoms: C_7  and  C_12 
REMARK    4  A    between atoms: N_11  and  C_12 
ROOT
HETATM    1  C   UNL     1      66.311   7.442   6.827  1.00  0.00     0.682 A 
HETATM    2  N   UNL     1      65.564   6.840   7.766  1.00  0.00    -0.201 N 
ATOM      3  HN  UNL     1      64.610   7.140   7.965  1.00  0.00     0.183 HD
HETATM    4  N   UNL     1      67.562   7.061   6.522  1.00  0.00    -0.201 N 
ATOM      5  HN  UNL     1      68.104   7.551   5.810  1.00  0.00     0.183 HD
HETATM    6  C   UNL     1      67.403   5.336   8.177  1.00  0.00    -0.001 A 
HETATM    7  C   UNL     1      66.138   5.815   8.434  1.00  0.00     0.116 A 
HETATM    8  C   UNL     1      68.075   6.012   7.186  1.00  0.00     0.116 A 
ENDROOT
BRANCH   1   9
HETATM    9  N   UNL     1      65.719   8.481   6.115  1.00  0.00    -0.192 N 
HETATM   10  H   UNL     1      66.013   9.388   6.361  1.00  0.00     0.184 HD
BRANCH   9  11
HETATM   11  C   UNL     1      64.761   8.409   5.095  1.00  0.00     0.049 A 
HETATM   12  C   UNL     1      63.769   9.391   5.006  1.00  0.00     0.030 A 
HETATM   13  C   UNL     1      62.753   9.298   4.049  1.00  0.00     0.002 A 
HETATM   14  C   UNL     1      62.729   8.231   3.154  1.00  0.00     0.000 A 
HETATM   15  C   UNL     1      63.715   7.252   3.221  1.00  0.00     0.002 A 
HETATM   16  C   UNL     1      64.715   7.339   4.191  1.00  0.00     0.030 A 
ENDBRANCH   9  11
ENDBRANCH   1   9
BRANCH   6  17
HETATM   17  C   UNL     1      68.011   4.182   8.903  1.00  0.00     0.271 C 
BRANCH  17  18
HETATM   18  N   UNL     1      67.120   3.027   8.902  1.00  0.00    -0.075 N 
HETATM   19  H   UNL     1      67.620   2.211   9.254  1.00  0.00     0.274 HD
HETATM   20  H   UNL     1      66.800   2.845   7.951  1.00  0.00     0.274 HD
HETATM   21  H   UNL     1      66.316   3.218   9.500  1.00  0.00     0.274 HD
ENDBRANCH  17  18
ENDBRANCH   6  17
TORSDOF 4
ENDMDL
MODEL 4
REMARK VINA RESULT:      -5.0      1.480      6.197
REMARK  4 active torsions:
REMARK  status: ('A' for Active; 'I' for Inactive)
REMARK    1  A    between atoms: C_1  and  N_6 
REMARK    2  A    between atoms: N_6  and  C_10 
REMARK    3  A    between atoms: C_7  and  C_12 
REMARK    4  A    between atoms: N_11  and  C_12 
ROOT
HETATM    1  C   UNL     1      63.556   8.245   5.389  1.00  0.00     0.682 A 
HETATM    2  N   UNL     1      63.487   7.564   4.235  1.00  0.00    -0.201 N 
ATOM      3  HN  UNL     1      63.824   6.604   4.159  1.00  0.00     0.183 HD
HETATM    4  N   UNL     1      63.103   9.501   5.534  1.00  0.00    -0.201 N 
ATOM      5  HN  UNL     1      63.184   9.992   6.425  1.00  0.00     0.183 HD
HETATM    6  C   UNL     1      62.436   9.489   3.233  1.00  0.00    -0.001 A 
HETATM    7  C   UNL     1      62.949   8.212   3.178  1.00  0.00     0.116 A 
HETATM    8  C   UNL     1      62.541  10.089   4.465  1.00  0.00     0.116 A 
ENDROOT
BRANCH   1   9
HETATM    9  N   UNL     1      64.084   7.577   6.490  1.00  0.00    -0.192 N 
HETATM   10  H   UNL     1      63.512   7.557   7.292  1.00  0.00     0.184 HD
BRANCH   9  11
HETATM   11  C   UNL     1      65.321   6.930   6.611  1.00  0.00     0.049 A 
HETATM   12  C   UNL     1      66.471   7.531   6.090  1.00  0.00     0.030 A 
HETATM   13  C   UNL     1      67.703   6.869   6.124  1.00  0.00     0.002 A 
HETATM   14  C   UNL     1      67.804   5.605   6.700  1.00  0.00     0.000 A 
HETATM   15  C   UNL     1      66.672   4.998   7.234  1.00  0.00     0.002 A 
HETATM   16  C   UNL     1      65.441   5.654   7.178  1.00  0.00     0.030 A 
ENDBRANCH   9  11
ENDBRANCH   1   9
BRANCH   6  17
HETATM   17  C   UNL     1      61.816  10.179   2.064  1.00  0.00     0.271 C 
BRANCH  17  18
HETATM   18  N   UNL     1      61.618  11.600   2.332  1.00  0.00    -0.075 N 
HETATM   19  H   UNL     1      62.467  11.991   2.737  1.00  0.00     0.274 HD
HETATM   20  H   UNL     1      60.844  11.718   2.986  1.00  0.00     0.274 HD
HETATM   21  H   UNL     1      61.402  12.083   1.460  1.00  0.00     0.274 HD
ENDBRANCH  17  18
ENDBRANCH   6  17
TORSDOF 4
ENDMDL
MODEL 5
REMARK VINA RESULT:      -5.0      1.806      6.402
REMARK  4 active torsions:
REMARK  status: ('A' for Active; 'I' for Inactive)
REMARK    1  A    between atoms: C_1  and  N_6 
REMARK    2  A    between atoms: N_6  and  C_10 
REMARK    3  A    between atoms: C_7  and  C_12 
REMARK    4  A    between atoms: N_11  and  C_12 
ROOT
HETATM    1  C   UNL     1      65.257   8.183   5.163  1.00  0.00     0.682 A 
HETATM    2  N   UNL     1      64.562   9.217   5.659  1.00  0.00    -0.201 N 
ATOM      3  HN  UNL     1      64.931   9.799   6.412  1.00  0.00     0.183 HD
HETATM    4  N   UNL     1      64.814   7.409   4.159  1.00  0.00    -0.201 N 
ATOM      5  HN  UNL     1      65.366   6.622   3.816  1.00  0.00     0.183 HD
HETATM    6  C   UNL     1      62.819   8.732   4.065  1.00  0.00    -0.001 A 
HETATM    7  C   UNL     1      63.349   9.453   5.113  1.00  0.00     0.116 A 
HETATM    8  C   UNL     1      63.620   7.706   3.622  1.00  0.00     0.116 A 
ENDROOT
BRANCH   1   9
HETATM    9  N   UNL     1      66.519   7.949   5.701  1.00  0.00    -0.192 N 
HETATM   10  H   UNL     1      67.232   8.556   5.397  1.00  0.00     0.184 HD
BRANCH   9  11
HETATM   11  C   UNL     1      66.912   6.965   6.618  1.00  0.00     0.049 A 
HETATM   12  C   UNL     1      66.673   7.155   7.983  1.00  0.00     0.030 A 
HETATM   13  C   UNL     1      67.128   6.227   8.926  1.00  0.00     0.002 A 
HETATM   14  C   UNL     1      67.810   5.085   8.513  1.00  0.00     0.000 A 
HETATM   15  C   UNL     1      68.047   4.875   7.158  1.00  0.00     0.002 A 
HETATM   16  C   UNL     1      67.608   5.815   6.223  1.00  0.00     0.030 A 
ENDBRANCH   9  11
ENDBRANCH   1   9
BRANCH   6  17
HETATM   17  C   UNL     1      61.491   9.025   3.452  1.00  0.00     0.271 C 
BRANCH  17  18
HETATM   18  N   UNL     1      61.408  10.411   3.004  1.00  0.00    -0.075 N 
HETATM   19  H   UNL     1      60.473  10.773   3.190  1.00  0.00     0.274 HD
HETATM   20  H   UNL     1      61.597  10.457   2.003  1.00  0.00     0.274 HD
HETATM   21  H   UNL     1      62.096  10.972   3.506  1.00  0.00     0.274 HD
ENDBRANCH  17  18
ENDBRANCH   6  17
TORSDOF 4
ENDMDL
MODEL 6
REMARK VINA RESULT:      -4.6      1.196      1.972
REMARK  4 active torsions:
REMARK  status: ('A' for Active; 'I' for Inactive)
REMARK    1  A    between atoms: C_1  and  N_6 
REMARK    2  A    between atoms: N_6  and  C_10 
REMARK    3  A    between atoms: C_7  and  C_12 
REMARK    4  A    between atoms: N_11  and  C_12 
ROOT
HETATM    1  C   UNL     1      63.885   6.802   5.466  1.00  0.00     0.682 A 
HETATM    2  N   UNL     1      64.393   5.657   4.987  1.00  0.00    -0.201 N 
ATOM      3  HN  UNL     1      63.896   5.099   4.292  1.00  0.00     0.183 HD
HETATM    4  N   UNL     1      64.520   7.572   6.364  1.00  0.00    -0.201 N 
ATOM      5  HN  UNL     1      64.096   8.432   6.716  1.00  0.00     0.183 HD
HETATM    6  C   UNL     1      66.336   6.010   6.370  1.00  0.00    -0.001 A 
HETATM    7  C   UNL     1      65.597   5.277   5.468  1.00  0.00     0.116 A 
HETATM    8  C   UNL     1      65.732   7.173   6.784  1.00  0.00     0.116 A 
ENDROOT
BRANCH   1   9
HETATM    9  N   UNL     1      62.658   7.215   4.957  1.00  0.00    -0.192 N 
HETATM   10  H   UNL     1      61.863   6.815   5.380  1.00  0.00     0.184 HD
BRANCH   9  11
HETATM   11  C   UNL     1      62.400   8.123   3.921  1.00  0.00     0.049 A 
HETATM   12  C   UNL     1      62.525   7.710   2.590  1.00  0.00     0.030 A 
HETATM   13  C   UNL     1      62.355   8.618   1.540  1.00  0.00     0.002 A 
HETATM   14  C   UNL     1      62.037   9.947   1.807  1.00  0.00     0.000 A 
HETATM   15  C   UNL     1      61.898  10.372   3.123  1.00  0.00     0.002 A 
HETATM   16  C   UNL     1      62.089   9.467   4.169  1.00  0.00     0.030 A 
ENDBRANCH   9  11
ENDBRANCH   1   9
BRANCH   6  17
HETATM   17  C   UNL     1      67.679   5.592   6.869  1.00  0.00     0.271 C 
BRANCH  17  18
HETATM   18  N   UNL     1      68.075   6.370   8.038  1.00  0.00    -0.075 N 
HETATM   19  H   UNL     1      69.079   6.544   8.006  1.00  0.00     0.274 HD
HETATM   20  H   UNL     1      67.846   5.850   8.885  1.00  0.00     0.274 HD
HETATM   21  H   UNL     1      67.575   7.259   8.040  1.00  0.00     0.274 HD
ENDBRANCH  17  18
ENDBRANCH   6  17
TORSDOF 4
ENDMDL
MODEL 7
REMARK VINA RESULT:      -4.6      1.750      2.220
REMARK  4 active torsions:
REMARK  status: ('A' for Active; 'I' for Inactive)
REMARK    1  A    between atoms: C_1  and  N_6 
REMARK    2  A    between atoms: N_6  and  C_10 
REMARK    3  A    between atoms: C_7  and  C_12 
REMARK    4  A    between atoms: N_11  and  C_12 
ROOT
HETATM    1  C   UNL     1      64.187   8.392   4.562  1.00  0.00     0.682 A 
HETATM    2  N   UNL     1      64.533   7.345   3.798  1.00  0.00    -0.201 N 
ATOM      3  HN  UNL     1      64.009   7.100   2.957  1.00  0.00     0.183 HD
HETATM    4  N   UNL     1      64.864   8.758   5.663  1.00  0.00    -0.201 N 
ATOM      5  HN  UNL     1      64.564   9.554   6.227  1.00  0.00     0.183 HD
HETATM    6  C   UNL     1      66.381   6.941   5.293  1.00  0.00    -0.001 A 
HETATM    7  C   UNL     1      65.608   6.631   4.195  1.00  0.00     0.116 A 
HETATM    8  C   UNL     1      65.950   8.041   5.995  1.00  0.00     0.116 A 
ENDROOT
BRANCH   1   9
HETATM    9  N   UNL     1      63.097   9.150   4.146  1.00  0.00    -0.192 N 
HETATM   10  H   UNL     1      62.997  10.029   4.580  1.00  0.00     0.184 HD
BRANCH   9  11
HETATM   11  C   UNL     1      62.120   8.831   3.193  1.00  0.00     0.049 A 
HETATM   12  C   UNL     1      61.000   8.083   3.573  1.00  0.00     0.030 A 
HETATM   13  C   UNL     1      60.054   7.681   2.624  1.00  0.00     0.002 A 
HETATM   14  C   UNL     1      60.205   8.039   1.287  1.00  0.00     0.000 A 
HETATM   15  C   UNL     1      61.307   8.792   0.895  1.00  0.00     0.002 A 
HETATM   16  C   UNL     1      62.259   9.173   1.842  1.00  0.00     0.030 A 
ENDBRANCH   9  11
ENDBRANCH   1   9
BRANCH   6  17
HETATM   17  C   UNL     1      67.585   6.160   5.701  1.00  0.00     0.271 C 
BRANCH  17  18
HETATM   18  N   UNL     1      68.075   6.586   7.008  1.00  0.00    -0.075 N 
HETATM   19  H   UNL     1      68.162   5.775   7.619  1.00  0.00     0.274 HD
HETATM   20  H   UNL     1      67.419   7.251   7.416  1.00  0.00     0.274 HD
HETATM   21  H   UNL     1      68.987   7.030   6.900  1.00  0.00     0.274 HD
ENDBRANCH  17  18
ENDBRANCH   6  17
TORSDOF 4
ENDMDL
MODEL 8
REMARK VINA RESULT:      -4.5      3.547      4.805
REMARK  4 active torsions:
REMARK  status: ('A' for Active; 'I' for Inactive)
REMARK    1  A    between atoms: C_1  and  N_6 
REMARK    2  A    between atoms: N_6  and  C_10 
REMARK    3  A    between atoms: C_7  and  C_12 
REMARK    4  A    between atoms: N_11  and  C_12 
ROOT
HETATM    1  C   UNL     1      61.440   6.931   5.067  1.00  0.00     0.682 A 
HETATM    2  N   UNL     1      61.775   6.472   6.282  1.00  0.00    -0.201 N 
ATOM      3  HN  UNL     1      62.715   6.594   6.660  1.00  0.00     0.183 HD
HETATM    4  N   UNL     1      60.208   6.809   4.546  1.00  0.00    -0.201 N 
ATOM      5  HN  UNL     1      59.993   7.160   3.612  1.00  0.00     0.183 HD
HETATM    6  C   UNL     1      59.510   5.689   6.545  1.00  0.00    -0.001 A 
HETATM    7  C   UNL     1      60.807   5.842   6.983  1.00  0.00     0.116 A 
HETATM    8  C   UNL     1      59.269   6.210   5.296  1.00  0.00     0.116 A 
ENDROOT
BRANCH   1   9
HETATM    9  N   UNL     1      62.423   7.606   4.349  1.00  0.00    -0.192 N 
HETATM   10  H   UNL     1      63.334   7.239   4.423  1.00  0.00     0.184 HD
BRANCH   9  11
HETATM   11  C   UNL     1      62.290   8.738   3.534  1.00  0.00     0.049 A 
HETATM   12  C   UNL     1      62.135   9.999   4.120  1.00  0.00     0.030 A 
HETATM   13  C   UNL     1      61.918  11.133   3.331  1.00  0.00     0.002 A 
HETATM   14  C   UNL     1      61.875  11.024   1.943  1.00  0.00     0.000 A 
HETATM   15  C   UNL     1      62.039   9.780   1.344  1.00  0.00     0.002 A 
HETATM   16  C   UNL     1      62.234   8.647   2.137  1.00  0.00     0.030 A 
ENDBRANCH   9  11
ENDBRANCH   1   9
BRANCH   6  17
HETATM   17  C   UNL     1      58.444   5.018   7.344  1.00  0.00     0.271 C 
BRANCH  17  18
HETATM   18  N   UNL     1      58.724   5.097   8.774  1.00  0.00    -0.075 N 
HETATM   19  H   UNL     1      58.342   4.276   9.242  1.00  0.00     0.274 HD
HETATM   20  H   UNL     1      58.294   5.938   9.159  1.00  0.00     0.274 HD
HETATM   21  H   UNL     1      59.733   5.134   8.921  1.00  0.00     0.274 HD
ENDBRANCH  17  18
ENDBRANCH   6  17
TORSDOF 4
ENDMDL
MODEL 9
REMARK VINA RESULT:      -4.3     12.701     14.481
REMARK  4 active torsions:
REMARK  status: ('A' for Active; 'I' for Inactive)
REMARK    1  A    between atoms: C_1  and  N_6 
REMARK    2  A    between atoms: N_6  and  C_10 
REMARK    3  A    between atoms: C_7  and  C_12 
REMARK    4  A    between atoms: N_11  and  C_12 
ROOT
HETATM    1  C   UNL     1      55.261   2.016  13.929  1.00  0.00     0.682 A 
HETATM    2  N   UNL     1      54.964   3.145  14.588  1.00  0.00    -0.201 N 
ATOM      3  HN  UNL     1      55.389   3.367  15.489  1.00  0.00     0.183 HD
HETATM    4  N   UNL     1      54.739   1.700  12.733  1.00  0.00    -0.201 N 
ATOM      5  HN  UNL     1      54.980   0.825  12.266  1.00  0.00     0.183 HD
HETATM    6  C   UNL     1      53.503   3.752  12.769  1.00  0.00    -0.001 A 
HETATM    7  C   UNL     1      54.074   3.976  14.003  1.00  0.00     0.116 A 
HETATM    8  C   UNL     1      53.889   2.576  12.172  1.00  0.00     0.116 A 
ENDROOT
BRANCH   1   9
HETATM    9  N   UNL     1      56.198   1.167  14.512  1.00  0.00    -0.192 N 
HETATM   10  H   UNL     1      55.931   0.761  15.369  1.00  0.00     0.184 HD
BRANCH   9  11
HETATM   11  C   UNL     1      57.470   0.813  14.044  1.00  0.00     0.049 A 
HETATM   12  C   UNL     1      58.421   1.809  13.800  1.00  0.00     0.030 A 
HETATM   13  C   UNL     1      59.669   1.490  13.255  1.00  0.00     0.002 A 
HETATM   14  C   UNL     1      59.990   0.166  12.966  1.00  0.00     0.000 A 
HETATM   15  C   UNL     1      59.060  -0.838  13.211  1.00  0.00     0.002 A 
HETATM   16  C   UNL     1      57.808  -0.512  13.737  1.00  0.00     0.030 A 
ENDBRANCH   9  11
ENDBRANCH   1   9
BRANCH   6  17
HETATM   17  C   UNL     1      52.545   4.695  12.121  1.00  0.00     0.271 C 
BRANCH  17  18
HETATM   18  N   UNL     1      51.854   5.513  13.112  1.00  0.00    -0.075 N 
HETATM   19  H   UNL     1      52.019   6.499  12.913  1.00  0.00     0.274 HD
HETATM   20  H   UNL     1      52.206   5.290  14.042  1.00  0.00     0.274 HD
HETATM   21  H   UNL     1      50.853   5.321  13.072  1.00  0.00     0.274 HD
ENDBRANCH  17  18
ENDBRANCH   6  17
TORSDOF 4
ENDMDL
