MODEL 1
REMARK VINA RESULT:      -5.2      0.000      0.000
REMARK  3 active torsions:
REMARK  status: ('A' for Active; 'I' for Inactive)
REMARK    1  A    between atoms: C_1  and  C_4 
REMARK    2  A    between atoms: C_3  and  C_11 
REMARK    3  A    between atoms: C_11  and  C_13 
ROOT
HETATM    1  C   UNL     1      62.458  10.050   3.623  1.00  0.00     0.040 A 
HETATM    2  C   UNL     1      62.400   9.087   2.611  1.00  0.00     0.019 A 
HETATM    3  C   UNL     1      62.938   9.702   4.890  1.00  0.00     0.019 A 
HETATM    4  C   UNL     1      63.394   7.445   4.102  1.00  0.00    -0.053 A 
HETATM    5  C   UNL     1      62.866   7.791   2.849  1.00  0.00     0.008 A 
HETATM    6  C   UNL     1      63.410   8.407   5.123  1.00  0.00     0.008 A 
ENDROOT
BRANCH   4   7
HETATM    7  C   UNL     1      63.924   6.050   4.360  1.00  0.00     0.084 C 
BRANCH   7   8
HETATM    8  C   UNL     1      65.318   6.030   4.917  1.00  0.00    -0.013 A 
HETATM    9  S   UNL     1      65.605   5.474   6.515  1.00  0.00    -0.106 SA
HETATM   10  C   UNL     1      67.281   5.783   6.391  1.00  0.00     0.050 A 
HETATM   11  C   UNL     1      67.621   6.304   5.162  1.00  0.00     0.008 A 
HETATM   12  C   UNL     1      66.488   6.448   4.312  1.00  0.00     0.015 A 
ENDBRANCH   7   8
ENDBRANCH   4   7
BRANCH   1  13
HETATM   13  C   UNL     1      61.972  11.420   3.321  1.00  0.00     0.209 C 
HETATM   14  O   UNL     1      61.790  11.829   2.187  1.00  0.00    -0.644 OA
HETATM   15  O   UNL     1      61.808  12.188   4.420  1.00  0.00    -0.644 OA
ENDBRANCH   1  13
TORSDOF 3
ENDMDL
MODEL 2
REMARK VINA RESULT:      -4.9      3.925      5.932
REMARK  3 active torsions:
REMARK  status: ('A' for Active; 'I' for Inactive)
REMARK    1  A    between atoms: C_1  and  C_4 
REMARK    2  A    between atoms: C_3  and  C_11 
REMARK    3  A    between atoms: C_11  and  C_13 
ROOT
HETATM    1  C   UNL     1      62.167  10.074   3.645  1.00  0.00     0.040 A 
HETATM    2  C   UNL     1      62.052   8.701   3.880  1.00  0.00     0.019 A 
HETATM    3  C   UNL     1      62.012  10.574   2.347  1.00  0.00     0.019 A 
HETATM    4  C   UNL     1      61.531   8.331   1.535  1.00  0.00    -0.053 A 
HETATM    5  C   UNL     1      61.736   7.833   2.831  1.00  0.00     0.008 A 
HETATM    6  C   UNL     1      61.689   9.705   1.302  1.00  0.00     0.008 A 
ENDROOT
BRANCH   4   7
HETATM    7  C   UNL     1      61.163   7.401   0.398  1.00  0.00     0.084 C 
BRANCH   7   8
HETATM    8  C   UNL     1      59.808   6.773   0.549  1.00  0.00    -0.013 A 
HETATM    9  S   UNL     1      59.579   5.109   0.200  1.00  0.00    -0.106 SA
HETATM   10  C   UNL     1      57.910   5.197   0.557  1.00  0.00     0.050 A 
HETATM   11  C   UNL     1      57.527   6.466   0.929  1.00  0.00     0.008 A 
HETATM   12  C   UNL     1      58.623   7.376   0.923  1.00  0.00     0.015 A 
ENDBRANCH   7   8
ENDBRANCH   4   7
BRANCH   1  13
HETATM   13  C   UNL     1      62.483  10.962   4.791  1.00  0.00     0.209 C 
HETATM   14  O   UNL     1      63.119  10.595   5.764  1.00  0.00    -0.644 OA
HETATM   15  O   UNL     1      61.948  12.197   4.680  1.00  0.00    -0.644 OA
ENDBRANCH   1  13
TORSDOF 3
ENDMDL
MODEL 3
REMARK VINA RESULT:      -4.8      1.438      2.188
REMARK  3 active torsions:
REMARK  status: ('A' for Active; 'I' for Inactive)
REMARK    1  A    between atoms: C_1  and  C_4 
REMARK    2  A    between atoms: C_3  and  C_11 
REMARK    3  A    between atoms: C_11  and  C_13 
ROOT
HETATM    1  C   UNL     1      63.182   8.912   4.165  1.00  0.00     0.040 A 
HETATM    2  C   UNL     1      63.306   7.762   3.378  1.00  0.00     0.019 A 
HETATM    3  C   UNL     1      64.141   9.192   5.145  1.00  0.00     0.019 A 
HETATM    4  C   UNL     1      65.400   7.217   4.483  1.00  0.00    -0.053 A 
HETATM    5  C   UNL     1      64.409   6.919   3.537  1.00  0.00     0.008 A 
HETATM    6  C   UNL     1      65.247   8.351   5.295  1.00  0.00     0.008 A 
ENDROOT
BRANCH   4   7
HETATM    7  C   UNL     1      66.611   6.322   4.643  1.00  0.00     0.084 C 
BRANCH   7   8
HETATM    8  C   UNL     1      66.861   5.895   6.060  1.00  0.00    -0.013 A 
HETATM    9  S   UNL     1      65.684   4.984   6.912  1.00  0.00    -0.106 SA
HETATM   10  C   UNL     1      66.641   4.947   8.327  1.00  0.00     0.050 A 
HETATM   11  C   UNL     1      67.832   5.619   8.163  1.00  0.00     0.008 A 
HETATM   12  C   UNL     1      67.959   6.167   6.854  1.00  0.00     0.015 A 
ENDBRANCH   7   8
ENDBRANCH   4   7
BRANCH   1  13
HETATM   13  C   UNL     1      62.006   9.791   3.950  1.00  0.00     0.209 C 
HETATM   14  O   UNL     1      62.000  10.978   4.227  1.00  0.00    -0.644 OA
HETATM   15  O   UNL     1      60.924   9.137   3.474  1.00  0.00    -0.644 OA
ENDBRANCH   1  13
TORSDOF 3
ENDMDL
MODEL 4
REMARK VINA RESULT:      -4.7      3.920      6.051
REMARK  3 active torsions:
REMARK  status: ('A' for Active; 'I' for Inactive)
REMARK    1  A    between atoms: C_1  and  C_4 
REMARK    2  A    between atoms: C_3  and  C_11 
REMARK    3  A    between atoms: C_11  and  C_13 
ROOT
HETATM    1  C   UNL     1      64.592   8.034   4.946  1.00  0.00     0.040 A 
HETATM    2  C   UNL     1      63.780   9.172   4.961  1.00  0.00     0.019 A 
HETATM    3  C   UNL     1      64.445   7.086   3.927  1.00  0.00     0.019 A 
HETATM    4  C   UNL     1      62.734   8.467   2.883  1.00  0.00    -0.053 A 
HETATM    5  C   UNL     1      62.856   9.388   3.935  1.00  0.00     0.008 A 
HETATM    6  C   UNL     1      63.525   7.309   2.899  1.00  0.00     0.008 A 
ENDROOT
BRANCH   4   7
HETATM    7  C   UNL     1      61.754   8.707   1.754  1.00  0.00     0.084 C 
BRANCH   7   8
HETATM    8  C   UNL     1      60.404   8.096   1.990  1.00  0.00    -0.013 A 
HETATM    9  S   UNL     1      59.309   7.881   0.687  1.00  0.00    -0.106 SA
HETATM   10  C   UNL     1      58.112   7.224   1.715  1.00  0.00     0.050 A 
HETATM   11  C   UNL     1      58.529   7.172   3.027  1.00  0.00     0.008 A 
HETATM   12  C   UNL     1      59.851   7.677   3.186  1.00  0.00     0.015 A 
ENDBRANCH   7   8
ENDBRANCH   4   7
BRANCH   1  13
HETATM   13  C   UNL     1      65.574   7.854   6.044  1.00  0.00     0.209 C 
HETATM   14  O   UNL     1      65.307   7.294   7.093  1.00  0.00    -0.644 OA
HETATM   15  O   UNL     1      66.773   8.423   5.793  1.00  0.00    -0.644 OA
ENDBRANCH   1  13
TORSDOF 3
ENDMDL
MODEL 5
REMARK VINA RESULT:      -4.7      4.071      6.288
REMARK  3 active torsions:
REMARK  status: ('A' for Active; 'I' for Inactive)
REMARK    1  A    between atoms: C_1  and  C_4 
REMARK    2  A    between atoms: C_3  and  C_11 
REMARK    3  A    between atoms: C_11  and  C_13 
ROOT
HETATM    1  C   UNL     1      65.876   6.286   7.180  1.00  0.00     0.040 A 
HETATM    2  C   UNL     1      64.538   5.934   6.977  1.00  0.00     0.019 A 
HETATM    3  C   UNL     1      66.567   6.995   6.191  1.00  0.00     0.019 A 
HETATM    4  C   UNL     1      64.548   7.081   4.834  1.00  0.00    -0.053 A 
HETATM    5  C   UNL     1      63.878   6.329   5.810  1.00  0.00     0.008 A 
HETATM    6  C   UNL     1      65.902   7.395   5.028  1.00  0.00     0.008 A 
ENDROOT
BRANCH   4   7
HETATM    7  C   UNL     1      63.832   7.534   3.579  1.00  0.00     0.084 C 
BRANCH   7   8
HETATM    8  C   UNL     1      63.126   8.850   3.732  1.00  0.00    -0.013 A 
HETATM    9  S   UNL     1      62.121   9.445   2.476  1.00  0.00    -0.106 SA
HETATM   10  C   UNL     1      61.765  10.872   3.348  1.00  0.00     0.050 A 
HETATM   11  C   UNL     1      62.401  10.902   4.569  1.00  0.00     0.008 A 
HETATM   12  C   UNL     1      63.187   9.736   4.791  1.00  0.00     0.015 A 
ENDBRANCH   7   8
ENDBRANCH   4   7
BRANCH   1  13
HETATM   13  C   UNL     1      66.533   5.865   8.442  1.00  0.00     0.209 C 
HETATM   14  O   UNL     1      67.169   6.626   9.150  1.00  0.00    -0.644 OA
HETATM   15  O   UNL     1      66.409   4.545   8.699  1.00  0.00    -0.644 OA
ENDBRANCH   1  13
TORSDOF 3
ENDMDL
MODEL 6
REMARK VINA RESULT:      -4.6      1.666      2.307
REMARK  3 active torsions:
REMARK  status: ('A' for Active; 'I' for Inactive)
REMARK    1  A    between atoms: C_1  and  C_4 
REMARK    2  A    between atoms: C_3  and  C_11 
REMARK    3  A    between atoms: C_11  and  C_13 
ROOT
HETATM    1  C   UNL     1      63.170   9.595   4.472  1.00  0.00     0.040 A 
HETATM    2  C   UNL     1      64.270   8.994   5.093  1.00  0.00     0.019 A 
HETATM    3  C   UNL     1      62.602   9.004   3.338  1.00  0.00     0.019 A 
HETATM    4  C   UNL     1      64.178   7.157   3.504  1.00  0.00    -0.053 A 
HETATM    5  C   UNL     1      64.771   7.781   4.611  1.00  0.00     0.008 A 
HETATM    6  C   UNL     1      63.101   7.788   2.863  1.00  0.00     0.008 A 
ENDROOT
BRANCH   4   7
HETATM    7  C   UNL     1      64.699   5.831   2.992  1.00  0.00     0.084 C 
BRANCH   7   8
HETATM    8  C   UNL     1      65.372   5.001   4.047  1.00  0.00    -0.013 A 
HETATM    9  S   UNL     1      67.078   4.826   4.057  1.00  0.00    -0.106 SA
HETATM   10  C   UNL     1      67.031   3.799   5.422  1.00  0.00     0.050 A 
HETATM   11  C   UNL     1      65.744   3.586   5.864  1.00  0.00     0.008 A 
HETATM   12  C   UNL     1      64.786   4.278   5.069  1.00  0.00     0.015 A 
ENDBRANCH   7   8
ENDBRANCH   4   7
BRANCH   1  13
HETATM   13  C   UNL     1      62.656  10.871   5.028  1.00  0.00     0.209 C 
HETATM   14  O   UNL     1      61.944  11.635   4.399  1.00  0.00    -0.644 OA
HETATM   15  O   UNL     1      63.103  11.133   6.276  1.00  0.00    -0.644 OA
ENDBRANCH   1  13
TORSDOF 3
ENDMDL
MODEL 7
REMARK VINA RESULT:      -4.5      4.186      6.033
REMARK  3 active torsions:
REMARK  status: ('A' for Active; 'I' for Inactive)
REMARK    1  A    between atoms: C_1  and  C_4 
REMARK    2  A    between atoms: C_3  and  C_11 
REMARK    3  A    between atoms: C_11  and  C_13 
ROOT
HETATM    1  C   UNL     1      65.472   6.724   6.668  1.00  0.00     0.040 A 
HETATM    2  C   UNL     1      65.990   7.821   5.971  1.00  0.00     0.019 A 
HETATM    3  C   UNL     1      64.093   6.486   6.667  1.00  0.00     0.019 A 
HETATM    4  C   UNL     1      63.760   8.392   5.190  1.00  0.00    -0.053 A 
HETATM    5  C   UNL     1      65.138   8.650   5.236  1.00  0.00     0.008 A 
HETATM    6  C   UNL     1      63.245   7.313   5.925  1.00  0.00     0.008 A 
ENDROOT
BRANCH   4   7
HETATM    7  C   UNL     1      62.835   9.270   4.375  1.00  0.00     0.084 C 
BRANCH   7   8
HETATM    8  C   UNL     1      62.629   8.786   2.969  1.00  0.00    -0.013 A 
HETATM    9  S   UNL     1      61.882   9.798   1.803  1.00  0.00    -0.106 SA
HETATM   10  C   UNL     1      61.986   8.595   0.594  1.00  0.00     0.050 A 
HETATM   11  C   UNL     1      62.572   7.440   1.065  1.00  0.00     0.008 A 
HETATM   12  C   UNL     1      62.942   7.550   2.436  1.00  0.00     0.015 A 
ENDBRANCH   7   8
ENDBRANCH   4   7
BRANCH   1  13
HETATM   13  C   UNL     1      66.414   5.857   7.419  1.00  0.00     0.209 C 
HETATM   14  O   UNL     1      67.622   5.891   7.262  1.00  0.00    -0.644 OA
HETATM   15  O   UNL     1      65.799   4.987   8.249  1.00  0.00    -0.644 OA
ENDBRANCH   1  13
TORSDOF 3
ENDMDL
MODEL 8
REMARK VINA RESULT:      -4.5      2.171      3.287
REMARK  3 active torsions:
REMARK  status: ('A' for Active; 'I' for Inactive)
REMARK    1  A    between atoms: C_1  and  C_4 
REMARK    2  A    between atoms: C_3  and  C_11 
REMARK    3  A    between atoms: C_11  and  C_13 
ROOT
HETATM    1  C   UNL     1      63.050   9.776   4.531  1.00  0.00     0.040 A 
HETATM    2  C   UNL     1      64.055   8.936   5.023  1.00  0.00     0.019 A 
HETATM    3  C   UNL     1      62.369   9.434   3.358  1.00  0.00     0.019 A 
HETATM    4  C   UNL     1      63.635   7.360   3.222  1.00  0.00    -0.053 A 
HETATM    5  C   UNL     1      64.346   7.734   4.371  1.00  0.00     0.008 A 
HETATM    6  C   UNL     1      62.657   8.228   2.713  1.00  0.00     0.008 A 
ENDROOT
BRANCH   4   7
HETATM    7  C   UNL     1      63.926   6.047   2.525  1.00  0.00     0.084 C 
BRANCH   7   8
HETATM    8  C   UNL     1      63.504   4.841   3.312  1.00  0.00    -0.013 A 
HETATM    9  S   UNL     1      64.539   3.480   3.438  1.00  0.00    -0.106 SA
HETATM   10  C   UNL     1      63.402   2.619   4.379  1.00  0.00     0.050 A 
HETATM   11  C   UNL     1      62.252   3.346   4.592  1.00  0.00     0.008 A 
HETATM   12  C   UNL     1      62.310   4.628   3.975  1.00  0.00     0.015 A 
ENDBRANCH   7   8
ENDBRANCH   4   7
BRANCH   1  13
HETATM   13  C   UNL     1      62.759  11.033   5.266  1.00  0.00     0.209 C 
HETATM   14  O   UNL     1      63.141  11.244   6.403  1.00  0.00    -0.644 OA
HETATM   15  O   UNL     1      61.981  11.893   4.574  1.00  0.00    -0.644 OA
ENDBRANCH   1  13
TORSDOF 3
ENDMDL
MODEL 9
REMARK VINA RESULT:      -4.3      4.573      6.254
REMARK  3 active torsions:
REMARK  status: ('A' for Active; 'I' for Inactive)
REMARK    1  A    between atoms: C_1  and  C_4 
REMARK    2  A    between atoms: C_3  and  C_11 
REMARK    3  A    between atoms: C_11  and  C_13 
ROOT
HETATM    1  C   UNL     1      59.925   5.848   6.224  1.00  0.00     0.040 A 
HETATM    2  C   UNL     1      61.243   6.129   6.599  1.00  0.00     0.019 A 
HETATM    3  C   UNL     1      59.465   6.231   4.959  1.00  0.00     0.019 A 
HETATM    4  C   UNL     1      61.673   7.094   4.410  1.00  0.00    -0.053 A 
HETATM    5  C   UNL     1      62.112   6.750   5.697  1.00  0.00     0.008 A 
HETATM    6  C   UNL     1      60.338   6.844   4.057  1.00  0.00     0.008 A 
ENDROOT
BRANCH   4   7
HETATM    7  C   UNL     1      62.616   7.743   3.419  1.00  0.00     0.084 C 
BRANCH   7   8
HETATM    8  C   UNL     1      62.291   9.180   3.131  1.00  0.00    -0.013 A 
HETATM    9  S   UNL     1      62.033   9.704   1.518  1.00  0.00    -0.106 SA
HETATM   10  C   UNL     1      61.780  11.320   2.015  1.00  0.00     0.050 A 
HETATM   11  C   UNL     1      61.894  11.465   3.379  1.00  0.00     0.008 A 
HETATM   12  C   UNL     1      62.190  10.230   4.024  1.00  0.00     0.015 A 
ENDBRANCH   7   8
ENDBRANCH   4   7
BRANCH   1  13
HETATM   13  C   UNL     1      59.042   5.170   7.205  1.00  0.00     0.209 C 
HETATM   14  O   UNL     1      57.999   4.622   6.896  1.00  0.00    -0.644 OA
HETATM   15  O   UNL     1      59.476   5.271   8.480  1.00  0.00    -0.644 OA
ENDBRANCH   1  13
TORSDOF 3
ENDMDL
