MODEL 1
REMARK VINA RESULT:      -5.2      0.000      0.000
REMARK  3 active torsions:
REMARK  status: ('A' for Active; 'I' for Inactive)
REMARK    1  A    between atoms: C_2  and  C_6 
REMARK    2  A    between atoms: C_6  and  C_7 
REMARK    3  A    between atoms: C_8  and  N_9 
ROOT
HETATM    1  C   UNL     1      62.349   9.399   2.924  1.00  0.00    -0.053 A 
HETATM    2  C   UNL     1      63.024  10.731   5.331  1.00  0.00     0.025 A 
HETATM    3  C   UNL     1      63.552   9.471   5.039  1.00  0.00     0.029 A 
HETATM    4  C   UNL     1      62.222  11.351   4.372  1.00  0.00     0.029 A 
HETATM    5  C   UNL     1      63.206   8.804   3.859  1.00  0.00     0.010 A 
HETATM    6  C   UNL     1      61.864  10.686   3.193  1.00  0.00     0.010 A 
ENDROOT
BRANCH   1   7
HETATM    7  C   UNL     1      61.975   8.669   1.651  1.00  0.00     0.084 C 
BRANCH   7   8
HETATM    8  C   UNL     1      60.569   8.133   1.650  1.00  0.00    -0.013 A 
HETATM    9  S   UNL     1      59.905   7.430   3.068  1.00  0.00    -0.106 SA
HETATM   10  C   UNL     1      58.403   7.136   2.300  1.00  0.00     0.050 A 
HETATM   11  C   UNL     1      58.419   7.519   0.976  1.00  0.00     0.008 A 
HETATM   12  C   UNL     1      59.672   8.085   0.599  1.00  0.00     0.015 A 
ENDBRANCH   7   8
ENDBRANCH   1   7
BRANCH   2  13
HETATM   13  N   UNL     1      63.479  11.443   6.448  1.00  0.00    -0.399 N 
HETATM   14  H   UNL     1      62.858  12.017   6.952  1.00  0.00     0.156 HD
HETATM   15  H   UNL     1      64.419  11.369   6.729  1.00  0.00     0.156 HD
ENDBRANCH   2  13
TORSDOF 3
ENDMDL
MODEL 2
REMARK VINA RESULT:      -5.1      3.176      5.596
REMARK  3 active torsions:
REMARK  status: ('A' for Active; 'I' for Inactive)
REMARK    1  A    between atoms: C_2  and  C_6 
REMARK    2  A    between atoms: C_6  and  C_7 
REMARK    3  A    between atoms: C_8  and  N_9 
ROOT
HETATM    1  C   UNL     1      62.896   8.687   4.823  1.00  0.00    -0.053 A 
HETATM    2  C   UNL     1      61.941  10.698   3.073  1.00  0.00     0.025 A 
HETATM    3  C   UNL     1      62.333  11.012   4.376  1.00  0.00     0.029 A 
HETATM    4  C   UNL     1      62.108   9.385   2.629  1.00  0.00     0.029 A 
HETATM    5  C   UNL     1      62.788  10.017   5.248  1.00  0.00     0.010 A 
HETATM    6  C   UNL     1      62.554   8.382   3.499  1.00  0.00     0.010 A 
ENDROOT
BRANCH   1   7
HETATM    7  C   UNL     1      63.385   7.614   5.774  1.00  0.00     0.084 C 
BRANCH   7   8
HETATM    8  C   UNL     1      64.883   7.496   5.836  1.00  0.00    -0.013 A 
HETATM    9  S   UNL     1      65.637   6.644   7.121  1.00  0.00    -0.106 SA
HETATM   10  C   UNL     1      67.199   6.928   6.483  1.00  0.00     0.050 A 
HETATM   11  C   UNL     1      67.157   7.698   5.341  1.00  0.00     0.008 A 
HETATM   12  C   UNL     1      65.821   8.033   4.973  1.00  0.00     0.015 A 
ENDBRANCH   7   8
ENDBRANCH   1   7
BRANCH   2  13
HETATM   13  N   UNL     1      61.613  11.719   2.171  1.00  0.00    -0.399 N 
HETATM   14  H   UNL     1      62.045  12.600   2.247  1.00  0.00     0.156 HD
HETATM   15  H   UNL     1      60.951  11.554   1.463  1.00  0.00     0.156 HD
ENDBRANCH   2  13
TORSDOF 3
ENDMDL
MODEL 3
REMARK VINA RESULT:      -4.7      2.973      5.035
REMARK  3 active torsions:
REMARK  status: ('A' for Active; 'I' for Inactive)
REMARK    1  A    between atoms: C_2  and  C_6 
REMARK    2  A    between atoms: C_6  and  C_7 
REMARK    3  A    between atoms: C_8  and  N_9 
ROOT
HETATM    1  C   UNL     1      62.418   8.321   3.421  1.00  0.00    -0.053 A 
HETATM    2  C   UNL     1      61.896  10.890   2.349  1.00  0.00     0.025 A 
HETATM    3  C   UNL     1      62.023  10.703   3.727  1.00  0.00     0.029 A 
HETATM    4  C   UNL     1      62.113   9.796   1.509  1.00  0.00     0.029 A 
HETATM    5  C   UNL     1      62.263   9.432   4.259  1.00  0.00     0.010 A 
HETATM    6  C   UNL     1      62.345   8.519   2.035  1.00  0.00     0.010 A 
ENDROOT
BRANCH   1   7
HETATM    7  C   UNL     1      62.673   6.947   4.005  1.00  0.00     0.084 C 
BRANCH   7   8
HETATM    8  C   UNL     1      63.813   6.907   4.985  1.00  0.00    -0.013 A 
HETATM    9  S   UNL     1      65.431   7.106   4.447  1.00  0.00    -0.106 SA
HETATM   10  C   UNL     1      66.048   6.975   6.039  1.00  0.00     0.050 A 
HETATM   11  C   UNL     1      65.050   6.735   6.959  1.00  0.00     0.008 A 
HETATM   12  C   UNL     1      63.762   6.686   6.349  1.00  0.00     0.015 A 
ENDBRANCH   7   8
ENDBRANCH   1   7
BRANCH   2  13
HETATM   13  N   UNL     1      61.787  12.183   1.821  1.00  0.00    -0.399 N 
HETATM   14  H   UNL     1      62.024  12.962   2.374  1.00  0.00     0.156 HD
HETATM   15  H   UNL     1      61.474  12.312   0.897  1.00  0.00     0.156 HD
ENDBRANCH   2  13
TORSDOF 3
ENDMDL
MODEL 4
REMARK VINA RESULT:      -4.7      3.285      4.763
REMARK  3 active torsions:
REMARK  status: ('A' for Active; 'I' for Inactive)
REMARK    1  A    between atoms: C_2  and  C_6 
REMARK    2  A    between atoms: C_6  and  C_7 
REMARK    3  A    between atoms: C_8  and  N_9 
ROOT
HETATM    1  C   UNL     1      64.498   7.445   5.010  1.00  0.00    -0.053 A 
HETATM    2  C   UNL     1      66.490   7.146   7.001  1.00  0.00     0.025 A 
HETATM    3  C   UNL     1      66.745   7.879   5.840  1.00  0.00     0.029 A 
HETATM    4  C   UNL     1      65.206   6.634   7.193  1.00  0.00     0.029 A 
HETATM    5  C   UNL     1      65.769   8.013   4.847  1.00  0.00     0.010 A 
HETATM    6  C   UNL     1      64.226   6.757   6.199  1.00  0.00     0.010 A 
ENDROOT
BRANCH   1   7
HETATM    7  C   UNL     1      63.448   7.591   3.929  1.00  0.00     0.084 C 
BRANCH   7   8
HETATM    8  C   UNL     1      62.884   8.981   3.815  1.00  0.00    -0.013 A 
HETATM    9  S   UNL     1      62.255   9.545   2.321  1.00  0.00    -0.106 SA
HETATM   10  C   UNL     1      61.827  11.059   2.995  1.00  0.00     0.050 A 
HETATM   11  C   UNL     1      62.199  11.156   4.319  1.00  0.00     0.008 A 
HETATM   12  C   UNL     1      62.816   9.960   4.789  1.00  0.00     0.015 A 
ENDBRANCH   7   8
ENDBRANCH   1   7
BRANCH   2  13
HETATM   13  N   UNL     1      67.427   7.129   8.042  1.00  0.00    -0.399 N 
HETATM   14  H   UNL     1      67.167   7.432   8.942  1.00  0.00     0.156 HD
HETATM   15  H   UNL     1      68.343   6.814   7.874  1.00  0.00     0.156 HD
ENDBRANCH   2  13
TORSDOF 3
ENDMDL
MODEL 5
REMARK VINA RESULT:      -4.6      2.825      3.813
REMARK  3 active torsions:
REMARK  status: ('A' for Active; 'I' for Inactive)
REMARK    1  A    between atoms: C_2  and  C_6 
REMARK    2  A    between atoms: C_6  and  C_7 
REMARK    3  A    between atoms: C_8  and  N_9 
ROOT
HETATM    1  C   UNL     1      62.379   8.360   3.455  1.00  0.00    -0.053 A 
HETATM    2  C   UNL     1      61.856  10.925   2.375  1.00  0.00     0.025 A 
HETATM    3  C   UNL     1      62.100  10.760   3.740  1.00  0.00     0.029 A 
HETATM    4  C   UNL     1      61.957   9.807   1.545  1.00  0.00     0.029 A 
HETATM    5  C   UNL     1      62.341   9.492   4.278  1.00  0.00     0.010 A 
HETATM    6  C   UNL     1      62.189   8.533   2.078  1.00  0.00     0.010 A 
ENDROOT
BRANCH   1   7
HETATM    7  C   UNL     1      62.636   6.989   4.046  1.00  0.00     0.084 C 
BRANCH   7   8
HETATM    8  C   UNL     1      61.593   6.551   5.037  1.00  0.00    -0.013 A 
HETATM    9  S   UNL     1      59.975   6.278   4.534  1.00  0.00    -0.106 SA
HETATM   10  C   UNL     1      59.491   5.819   6.110  1.00  0.00     0.050 A 
HETATM   11  C   UNL     1      60.525   5.918   7.016  1.00  0.00     0.008 A 
HETATM   12  C   UNL     1      61.735   6.349   6.398  1.00  0.00     0.015 A 
ENDBRANCH   7   8
ENDBRANCH   1   7
BRANCH   2  13
HETATM   13  N   UNL     1      61.746  12.210   1.828  1.00  0.00    -0.399 N 
HETATM   14  H   UNL     1      60.879  12.676   1.837  1.00  0.00     0.156 HD
HETATM   15  H   UNL     1      62.536  12.646   1.436  1.00  0.00     0.156 HD
ENDBRANCH   2  13
TORSDOF 3
ENDMDL
MODEL 6
REMARK VINA RESULT:      -4.6      1.118      1.852
REMARK  3 active torsions:
REMARK  status: ('A' for Active; 'I' for Inactive)
REMARK    1  A    between atoms: C_2  and  C_6 
REMARK    2  A    between atoms: C_6  and  C_7 
REMARK    3  A    between atoms: C_8  and  N_9 
ROOT
HETATM    1  C   UNL     1      62.066   9.264   2.967  1.00  0.00    -0.053 A 
HETATM    2  C   UNL     1      63.059  10.724   5.181  1.00  0.00     0.025 A 
HETATM    3  C   UNL     1      62.149  11.302   4.294  1.00  0.00     0.029 A 
HETATM    4  C   UNL     1      63.405   9.384   4.996  1.00  0.00     0.029 A 
HETATM    5  C   UNL     1      61.670  10.589   3.190  1.00  0.00     0.010 A 
HETATM    6  C   UNL     1      62.937   8.666   3.888  1.00  0.00     0.010 A 
ENDROOT
BRANCH   1   7
HETATM    7  C   UNL     1      61.548   8.499   1.767  1.00  0.00     0.084 C 
BRANCH   7   8
HETATM    8  C   UNL     1      60.482   7.493   2.103  1.00  0.00    -0.013 A 
HETATM    9  S   UNL     1      60.428   5.979   1.297  1.00  0.00    -0.106 SA
HETATM   10  C   UNL     1      59.069   5.467   2.203  1.00  0.00     0.050 A 
HETATM   11  C   UNL     1      58.630   6.446   3.069  1.00  0.00     0.008 A 
HETATM   12  C   UNL     1      59.440   7.618   3.004  1.00  0.00     0.015 A 
ENDBRANCH   7   8
ENDBRANCH   1   7
BRANCH   2  13
HETATM   13  N   UNL     1      63.428  11.399   6.352  1.00  0.00    -0.399 N 
HETATM   14  H   UNL     1      64.378  11.590   6.532  1.00  0.00     0.156 HD
HETATM   15  H   UNL     1      62.739  11.683   6.994  1.00  0.00     0.156 HD
ENDBRANCH   2  13
TORSDOF 3
ENDMDL
MODEL 7
REMARK VINA RESULT:      -4.3      5.147      6.846
REMARK  3 active torsions:
REMARK  status: ('A' for Active; 'I' for Inactive)
REMARK    1  A    between atoms: C_2  and  C_6 
REMARK    2  A    between atoms: C_6  and  C_7 
REMARK    3  A    between atoms: C_8  and  N_9 
ROOT
HETATM    1  C   UNL     1      66.863   6.800   6.666  1.00  0.00    -0.053 A 
HETATM    2  C   UNL     1      67.207   4.490   8.268  1.00  0.00     0.025 A 
HETATM    3  C   UNL     1      67.925   4.650   7.082  1.00  0.00     0.029 A 
HETATM    4  C   UNL     1      66.377   5.532   8.686  1.00  0.00     0.029 A 
HETATM    5  C   UNL     1      67.745   5.782   6.280  1.00  0.00     0.010 A 
HETATM    6  C   UNL     1      66.183   6.664   7.884  1.00  0.00     0.010 A 
ENDROOT
BRANCH   1   7
HETATM    7  C   UNL     1      66.669   8.020   5.790  1.00  0.00     0.084 C 
BRANCH   7   8
HETATM    8  C   UNL     1      65.374   8.017   5.024  1.00  0.00    -0.013 A 
HETATM    9  S   UNL     1      65.036   6.771   3.893  1.00  0.00    -0.106 SA
HETATM   10  C   UNL     1      63.500   7.431   3.523  1.00  0.00     0.050 A 
HETATM   11  C   UNL     1      63.266   8.604   4.209  1.00  0.00     0.008 A 
HETATM   12  C   UNL     1      64.351   8.946   5.067  1.00  0.00     0.015 A 
ENDBRANCH   7   8
ENDBRANCH   1   7
BRANCH   2  13
HETATM   13  N   UNL     1      67.492   3.420   9.126  1.00  0.00    -0.399 N 
HETATM   14  H   UNL     1      66.782   3.040   9.692  1.00  0.00     0.156 HD
HETATM   15  H   UNL     1      68.402   3.049   9.162  1.00  0.00     0.156 HD
ENDBRANCH   2  13
TORSDOF 3
ENDMDL
MODEL 8
REMARK VINA RESULT:      -4.1      3.280      4.619
REMARK  3 active torsions:
REMARK  status: ('A' for Active; 'I' for Inactive)
REMARK    1  A    between atoms: C_2  and  C_6 
REMARK    2  A    between atoms: C_6  and  C_7 
REMARK    3  A    between atoms: C_8  and  N_9 
ROOT
HETATM    1  C   UNL     1      63.527   7.044   3.638  1.00  0.00    -0.053 A 
HETATM    2  C   UNL     1      66.167   6.019   3.584  1.00  0.00     0.025 A 
HETATM    3  C   UNL     1      65.830   7.081   4.426  1.00  0.00     0.029 A 
HETATM    4  C   UNL     1      65.154   5.424   2.831  1.00  0.00     0.029 A 
HETATM    5  C   UNL     1      64.531   7.600   4.442  1.00  0.00     0.010 A 
HETATM    6  C   UNL     1      63.854   5.944   2.834  1.00  0.00     0.010 A 
ENDROOT
BRANCH   1   7
HETATM    7  C   UNL     1      62.125   7.614   3.656  1.00  0.00     0.084 C 
BRANCH   7   8
HETATM    8  C   UNL     1      62.033   9.015   3.115  1.00  0.00    -0.013 A 
HETATM    9  S   UNL     1      62.010  10.360   4.181  1.00  0.00    -0.106 SA
HETATM   10  C   UNL     1      61.932  11.473   2.884  1.00  0.00     0.050 A 
HETATM   11  C   UNL     1      61.873  10.837   1.662  1.00  0.00     0.008 A 
HETATM   12  C   UNL     1      61.922   9.418   1.797  1.00  0.00     0.015 A 
ENDBRANCH   7   8
ENDBRANCH   1   7
BRANCH   2  13
HETATM   13  N   UNL     1      67.432   5.424   3.674  1.00  0.00    -0.399 N 
HETATM   14  H   UNL     1      67.901   5.139   2.856  1.00  0.00     0.156 HD
HETATM   15  H   UNL     1      67.852   5.292   4.554  1.00  0.00     0.156 HD
ENDBRANCH   2  13
TORSDOF 3
ENDMDL
MODEL 9
REMARK VINA RESULT:      -4.1      4.966      7.403
REMARK  3 active torsions:
REMARK  status: ('A' for Active; 'I' for Inactive)
REMARK    1  A    between atoms: C_2  and  C_6 
REMARK    2  A    between atoms: C_6  and  C_7 
REMARK    3  A    between atoms: C_8  and  N_9 
ROOT
HETATM    1  C   UNL     1      65.163   7.737   5.937  1.00  0.00    -0.053 A 
HETATM    2  C   UNL     1      62.566   7.447   4.844  1.00  0.00     0.025 A 
HETATM    3  C   UNL     1      63.525   8.238   4.208  1.00  0.00     0.029 A 
HETATM    4  C   UNL     1      62.944   6.739   5.987  1.00  0.00     0.029 A 
HETATM    5  C   UNL     1      64.802   8.397   4.755  1.00  0.00     0.010 A 
HETATM    6  C   UNL     1      64.218   6.900   6.546  1.00  0.00     0.010 A 
ENDROOT
BRANCH   1   7
HETATM    7  C   UNL     1      66.546   7.918   6.527  1.00  0.00     0.084 C 
BRANCH   7   8
HETATM    8  C   UNL     1      67.091   6.680   7.185  1.00  0.00    -0.013 A 
HETATM    9  S   UNL     1      67.054   6.515   8.893  1.00  0.00    -0.106 SA
HETATM   10  C   UNL     1      67.765   4.959   8.826  1.00  0.00     0.050 A 
HETATM   11  C   UNL     1      68.072   4.589   7.534  1.00  0.00     0.008 A 
HETATM   12  C   UNL     1      67.692   5.586   6.589  1.00  0.00     0.015 A 
ENDBRANCH   7   8
ENDBRANCH   1   7
BRANCH   2  13
HETATM   13  N   UNL     1      61.338   7.190   4.221  1.00  0.00    -0.399 N 
HETATM   14  H   UNL     1      61.285   7.146   3.238  1.00  0.00     0.156 HD
HETATM   15  H   UNL     1      60.530   7.055   4.764  1.00  0.00     0.156 HD
ENDBRANCH   2  13
TORSDOF 3
ENDMDL
