MODEL 1
REMARK VINA RESULT:      -4.7      0.000      0.000
REMARK  1 active torsions:
REMARK  status: ('A' for Active; 'I' for Inactive)
REMARK    1  A    between atoms: C_1  and  C_5 
ROOT
HETATM    1  C   UNL     1      63.237   7.916   5.221  1.00  0.00     0.084 A 
HETATM    2  S   UNL     1      63.034   7.379   3.608  1.00  0.00    -0.081 SA
HETATM    3  C   UNL     1      62.925   9.254   5.345  1.00  0.00     0.057 A 
HETATM    4  C   UNL     1      62.518   9.846   4.120  1.00  0.00     0.050 A 
HETATM    5  C   UNL     1      62.528   8.931   3.067  1.00  0.00     0.032 A 
HETATM    6  N   UNL     1      62.158  11.147   3.969  1.00  0.00    -0.365 N 
ATOM      7  HN  UNL     1      62.156  11.804   4.750  1.00  0.00     0.165 HD
HETATM    8  C   UNL     1      62.154   9.344   1.779  1.00  0.00     0.022 A 
HETATM    9  C   UNL     1      61.804  11.513   2.724  1.00  0.00     0.088 A 
HETATM   10  C   UNL     1      61.784  10.677   1.622  1.00  0.00     0.018 A 
ENDROOT
BRANCH   1  11
HETATM   11  C   UNL     1      63.684   7.000   6.239  1.00  0.00     0.216 C 
HETATM   12  O   UNL     1      64.359   7.224   7.232  1.00  0.00    -0.643 OA
HETATM   13  O   UNL     1      63.255   5.741   5.990  1.00  0.00    -0.643 OA
ENDBRANCH   1  11
TORSDOF 1
ENDMDL
MODEL 2
REMARK VINA RESULT:      -4.4      3.414      4.936
REMARK  1 active torsions:
REMARK  status: ('A' for Active; 'I' for Inactive)
REMARK    1  A    between atoms: C_1  and  C_5 
ROOT
HETATM    1  C   UNL     1      62.036  10.000   3.863  1.00  0.00     0.084 A 
HETATM    2  S   UNL     1      63.115   9.658   5.148  1.00  0.00    -0.081 SA
HETATM    3  C   UNL     1      61.333   8.874   3.487  1.00  0.00     0.057 A 
HETATM    4  C   UNL     1      61.674   7.726   4.248  1.00  0.00     0.050 A 
HETATM    5  C   UNL     1      62.648   8.003   5.208  1.00  0.00     0.032 A 
HETATM    6  N   UNL     1      61.129   6.493   4.079  1.00  0.00    -0.365 N 
ATOM      7  HN  UNL     1      60.417   6.306   3.373  1.00  0.00     0.165 HD
HETATM    8  C   UNL     1      63.108   6.981   6.052  1.00  0.00     0.022 A 
HETATM    9  C   UNL     1      61.590   5.534   4.903  1.00  0.00     0.088 A 
HETATM   10  C   UNL     1      62.551   5.716   5.881  1.00  0.00     0.018 A 
ENDROOT
BRANCH   1  11
HETATM   11  C   UNL     1      61.955  11.333   3.320  1.00  0.00     0.216 C 
HETATM   12  O   UNL     1      61.990  11.690   2.153  1.00  0.00    -0.643 OA
HETATM   13  O   UNL     1      61.822  12.256   4.301  1.00  0.00    -0.643 OA
ENDBRANCH   1  11
TORSDOF 1
ENDMDL
MODEL 3
REMARK VINA RESULT:      -4.4      1.366      1.864
REMARK  1 active torsions:
REMARK  status: ('A' for Active; 'I' for Inactive)
REMARK    1  A    between atoms: C_1  and  C_5 
ROOT
HETATM    1  C   UNL     1      64.145   8.158   4.935  1.00  0.00     0.084 A 
HETATM    2  S   UNL     1      64.174   7.008   3.666  1.00  0.00    -0.081 SA
HETATM    3  C   UNL     1      63.295   9.204   4.641  1.00  0.00     0.057 A 
HETATM    4  C   UNL     1      62.665   9.070   3.376  1.00  0.00     0.050 A 
HETATM    5  C   UNL     1      63.053   7.903   2.718  1.00  0.00     0.032 A 
HETATM    6  N   UNL     1      61.785   9.962   2.849  1.00  0.00    -0.365 N 
ATOM      7  HN  UNL     1      61.511  10.811   3.343  1.00  0.00     0.165 HD
HETATM    8  C   UNL     1      62.527   7.607   1.451  1.00  0.00     0.022 A 
HETATM    9  C   UNL     1      61.299   9.651   1.634  1.00  0.00     0.088 A 
HETATM   10  C   UNL     1      61.625   8.519   0.909  1.00  0.00     0.018 A 
ENDROOT
BRANCH   1  11
HETATM   11  C   UNL     1      64.947   7.957   6.115  1.00  0.00     0.216 C 
HETATM   12  O   UNL     1      64.820   7.122   6.997  1.00  0.00    -0.643 OA
HETATM   13  O   UNL     1      65.957   8.855   6.181  1.00  0.00    -0.643 OA
ENDBRANCH   1  11
TORSDOF 1
ENDMDL
MODEL 4
REMARK VINA RESULT:      -4.3      3.157      4.674
REMARK  1 active torsions:
REMARK  status: ('A' for Active; 'I' for Inactive)
REMARK    1  A    between atoms: C_1  and  C_5 
ROOT
HETATM    1  C   UNL     1      62.569   9.699   3.936  1.00  0.00     0.084 A 
HETATM    2  S   UNL     1      62.757   8.355   2.891  1.00  0.00    -0.081 SA
HETATM    3  C   UNL     1      62.990   9.400   5.215  1.00  0.00     0.057 A 
HETATM    4  C   UNL     1      63.468   8.070   5.347  1.00  0.00     0.050 A 
HETATM    5  C   UNL     1      63.402   7.368   4.143  1.00  0.00     0.032 A 
HETATM    6  N   UNL     1      63.939   7.525   6.499  1.00  0.00    -0.365 N 
ATOM      7  HN  UNL     1      63.982   8.052   7.371  1.00  0.00     0.165 HD
HETATM    8  C   UNL     1      63.834   6.033   4.088  1.00  0.00     0.022 A 
HETATM    9  C   UNL     1      64.346   6.246   6.415  1.00  0.00     0.088 A 
HETATM   10  C   UNL     1      64.317   5.473   5.267  1.00  0.00     0.018 A 
ENDROOT
BRANCH   1  11
HETATM   11  C   UNL     1      62.028  10.937   3.435  1.00  0.00     0.216 C 
HETATM   12  O   UNL     1      61.771  11.965   4.043  1.00  0.00    -0.643 OA
HETATM   13  O   UNL     1      61.803  10.871   2.102  1.00  0.00    -0.643 OA
ENDBRANCH   1  11
TORSDOF 1
ENDMDL
MODEL 5
REMARK VINA RESULT:      -4.3      3.216      4.676
REMARK  1 active torsions:
REMARK  status: ('A' for Active; 'I' for Inactive)
REMARK    1  A    between atoms: C_1  and  C_5 
ROOT
HETATM    1  C   UNL     1      63.055   8.989   4.215  1.00  0.00     0.084 A 
HETATM    2  S   UNL     1      63.563   7.599   3.353  1.00  0.00    -0.081 SA
HETATM    3  C   UNL     1      63.928   9.286   5.241  1.00  0.00     0.057 A 
HETATM    4  C   UNL     1      65.016   8.378   5.327  1.00  0.00     0.050 A 
HETATM    5  C   UNL     1      64.950   7.388   4.346  1.00  0.00     0.032 A 
HETATM    6  N   UNL     1      66.014   8.447   6.247  1.00  0.00    -0.365 N 
ATOM      7  HN  UNL     1      66.047   9.178   6.957  1.00  0.00     0.165 HD
HETATM    8  C   UNL     1      65.947   6.402   4.281  1.00  0.00     0.022 A 
HETATM    9  C   UNL     1      66.954   7.489   6.159  1.00  0.00     0.088 A 
HETATM   10  C   UNL     1      66.971   6.471   5.223  1.00  0.00     0.018 A 
ENDROOT
BRANCH   1  11
HETATM   11  C   UNL     1      61.852   9.682   3.832  1.00  0.00     0.216 C 
HETATM   12  O   UNL     1      61.596  10.874   3.899  1.00  0.00    -0.643 OA
HETATM   13  O   UNL     1      60.928   8.825   3.338  1.00  0.00    -0.643 OA
ENDBRANCH   1  11
TORSDOF 1
ENDMDL
MODEL 6
REMARK VINA RESULT:      -4.3      1.834      2.314
REMARK  1 active torsions:
REMARK  status: ('A' for Active; 'I' for Inactive)
REMARK    1  A    between atoms: C_1  and  C_5 
ROOT
HETATM    1  C   UNL     1      64.135   7.727   5.006  1.00  0.00     0.084 A 
HETATM    2  S   UNL     1      63.391   9.267   5.099  1.00  0.00    -0.081 SA
HETATM    3  C   UNL     1      63.916   7.140   3.777  1.00  0.00     0.057 A 
HETATM    4  C   UNL     1      63.137   7.946   2.906  1.00  0.00     0.050 A 
HETATM    5  C   UNL     1      62.772   9.155   3.498  1.00  0.00     0.032 A 
HETATM    6  N   UNL     1      62.779   7.601   1.641  1.00  0.00    -0.365 N 
ATOM      7  HN  UNL     1      63.055   6.712   1.223  1.00  0.00     0.165 HD
HETATM    8  C   UNL     1      61.997  10.079   2.779  1.00  0.00     0.022 A 
HETATM    9  C   UNL     1      62.038   8.506   0.978  1.00  0.00     0.088 A 
HETATM   10  C   UNL     1      61.629   9.727   1.483  1.00  0.00     0.018 A 
ENDROOT
BRANCH   1  11
HETATM   11  C   UNL     1      64.872   7.209   6.130  1.00  0.00     0.216 C 
HETATM   12  O   UNL     1      64.530   7.121   7.299  1.00  0.00    -0.643 OA
HETATM   13  O   UNL     1      66.100   6.780   5.756  1.00  0.00    -0.643 OA
ENDBRANCH   1  11
TORSDOF 1
ENDMDL
MODEL 7
REMARK VINA RESULT:      -4.1      4.453      6.817
REMARK  1 active torsions:
REMARK  status: ('A' for Active; 'I' for Inactive)
REMARK    1  A    between atoms: C_1  and  C_5 
ROOT
HETATM    1  C   UNL     1      65.654   7.274   5.930  1.00  0.00     0.084 A 
HETATM    2  S   UNL     1      66.759   6.385   4.970  1.00  0.00    -0.081 SA
HETATM    3  C   UNL     1      65.556   6.742   7.199  1.00  0.00     0.057 A 
HETATM    4  C   UNL     1      66.383   5.605   7.392  1.00  0.00     0.050 A 
HETATM    5  C   UNL     1      67.110   5.286   6.245  1.00  0.00     0.032 A 
HETATM    6  N   UNL     1      66.471   4.897   8.548  1.00  0.00    -0.365 N 
ATOM      7  HN  UNL     1      65.932   5.143   9.378  1.00  0.00     0.165 HD
HETATM    8  C   UNL     1      67.983   4.186   6.255  1.00  0.00     0.022 A 
HETATM    9  C   UNL     1      67.314   3.849   8.526  1.00  0.00     0.088 A 
HETATM   10  C   UNL     1      68.075   3.459   7.439  1.00  0.00     0.018 A 
ENDROOT
BRANCH   1  11
HETATM   11  C   UNL     1      64.970   8.415   5.378  1.00  0.00     0.216 C 
HETATM   12  O   UNL     1      64.917   9.559   5.804  1.00  0.00    -0.643 OA
HETATM   13  O   UNL     1      64.321   8.094   4.235  1.00  0.00    -0.643 OA
ENDBRANCH   1  11
TORSDOF 1
ENDMDL
MODEL 8
REMARK VINA RESULT:      -4.1      5.814      7.946
REMARK  1 active torsions:
REMARK  status: ('A' for Active; 'I' for Inactive)
REMARK    1  A    between atoms: C_1  and  C_5 
ROOT
HETATM    1  C   UNL     1      67.207   6.689   6.528  1.00  0.00     0.084 A 
HETATM    2  S   UNL     1      67.368   5.379   5.438  1.00  0.00    -0.081 SA
HETATM    3  C   UNL     1      67.362   6.274   7.834  1.00  0.00     0.057 A 
HETATM    4  C   UNL     1      67.612   4.881   7.949  1.00  0.00     0.050 A 
HETATM    5  C   UNL     1      67.645   4.250   6.706  1.00  0.00     0.032 A 
HETATM    6  N   UNL     1      67.801   4.222   9.122  1.00  0.00    -0.365 N 
ATOM      7  HN  UNL     1      67.774   4.698  10.023  1.00  0.00     0.165 HD
HETATM    8  C   UNL     1      67.881   2.869   6.629  1.00  0.00     0.022 A 
HETATM    9  C   UNL     1      68.025   2.900   9.017  1.00  0.00     0.088 A 
HETATM   10  C   UNL     1      68.075   2.190   7.830  1.00  0.00     0.018 A 
ENDROOT
BRANCH   1  11
HETATM   11  C   UNL     1      66.943   8.016   6.033  1.00  0.00     0.216 C 
HETATM   12  O   UNL     1      66.370   8.943   6.585  1.00  0.00    -0.643 OA
HETATM   13  O   UNL     1      67.427   8.178   4.779  1.00  0.00    -0.643 OA
ENDBRANCH   1  11
TORSDOF 1
ENDMDL
MODEL 9
REMARK VINA RESULT:      -3.8      3.464      4.448
REMARK  1 active torsions:
REMARK  status: ('A' for Active; 'I' for Inactive)
REMARK    1  A    between atoms: C_1  and  C_5 
ROOT
HETATM    1  C   UNL     1      66.431   5.647   7.374  1.00  0.00     0.084 A 
HETATM    2  S   UNL     1      66.150   4.834   5.894  1.00  0.00    -0.081 SA
HETATM    3  C   UNL     1      65.874   6.909   7.365  1.00  0.00     0.057 A 
HETATM    4  C   UNL     1      65.215   7.217   6.146  1.00  0.00     0.050 A 
HETATM    5  C   UNL     1      65.283   6.164   5.233  1.00  0.00     0.032 A 
HETATM    6  N   UNL     1      64.586   8.391   5.880  1.00  0.00    -0.365 N 
ATOM      7  HN  UNL     1      64.545   9.152   6.559  1.00  0.00     0.165 HD
HETATM    8  C   UNL     1      64.683   6.295   3.971  1.00  0.00     0.022 A 
HETATM    9  C   UNL     1      64.021   8.487   4.663  1.00  0.00     0.088 A 
HETATM   10  C   UNL     1      64.038   7.498   3.695  1.00  0.00     0.018 A 
ENDROOT
BRANCH   1  11
HETATM   11  C   UNL     1      67.169   4.999   8.429  1.00  0.00     0.216 C 
HETATM   12  O   UNL     1      68.075   5.443   9.118  1.00  0.00    -0.643 OA
HETATM   13  O   UNL     1      66.740   3.730   8.621  1.00  0.00    -0.643 OA
ENDBRANCH   1  11
TORSDOF 1
ENDMDL
