MODEL 1
REMARK VINA RESULT:      -5.7      0.000      0.000
REMARK  3 active torsions:
REMARK  status: ('A' for Active; 'I' for Inactive)
REMARK    1  A    between atoms: C_3  and  C_8 
REMARK    2  A    between atoms: C_6  and  C_9 
REMARK    3  A    between atoms: C_9  and  N_10 
ROOT
HETATM    1  N   UNL     1      64.816   8.093   5.128  1.00  0.00    -0.321 N 
ATOM      2  HN  UNL     1      65.525   8.285   4.420  1.00  0.00     0.169 HD
HETATM    3  C   UNL     1      63.486   8.463   5.142  1.00  0.00     0.137 A 
HETATM    4  N   UNL     1      62.814   8.028   6.223  1.00  0.00    -0.242 N 
ATOM      5  HN  UNL     1      61.829   8.165   6.448  1.00  0.00     0.196 HD
HETATM    6  C   UNL     1      64.938   7.432   6.258  1.00  0.00     0.174 A 
HETATM    7  O   UNL     1      63.777   7.349   6.964  1.00  0.00    -0.221 OA
ENDROOT
BRANCH   3   8
HETATM    8  C   UNL     1      62.876   9.235   4.064  1.00  0.00     0.010 A 
HETATM    9  C   UNL     1      62.439  10.549   4.293  1.00  0.00     0.015 A 
HETATM   10  C   UNL     1      61.869  11.299   3.262  1.00  0.00     0.001 A 
HETATM   11  C   UNL     1      61.727  10.745   1.991  1.00  0.00     0.000 A 
HETATM   12  C   UNL     1      62.149   9.440   1.750  1.00  0.00     0.001 A 
HETATM   13  C   UNL     1      62.721   8.688   2.781  1.00  0.00     0.015 A 
ENDBRANCH   3   8
BRANCH   6  14
HETATM   14  C   UNL     1      66.132   6.762   6.844  1.00  0.00     0.315 C 
BRANCH  14  15
HETATM   15  N   UNL     1      67.098   7.724   7.382  1.00  0.00    -0.072 N 
HETATM   16  H   UNL     1      66.924   8.644   6.979  1.00  0.00     0.274 HD
HETATM   17  H   UNL     1      68.044   7.424   7.147  1.00  0.00     0.274 HD
HETATM   18  H   UNL     1      66.999   7.773   8.397  1.00  0.00     0.274 HD
ENDBRANCH  14  15
ENDBRANCH   6  14
TORSDOF 3
ENDMDL
MODEL 2
REMARK VINA RESULT:      -5.1      1.933      2.933
REMARK  3 active torsions:
REMARK  status: ('A' for Active; 'I' for Inactive)
REMARK    1  A    between atoms: C_3  and  C_8 
REMARK    2  A    between atoms: C_6  and  C_9 
REMARK    3  A    between atoms: C_9  and  N_10 
ROOT
HETATM    1  N   UNL     1      61.876   7.118   4.913  1.00  0.00    -0.321 N 
ATOM      2  HN  UNL     1      61.274   6.712   4.197  1.00  0.00     0.169 HD
HETATM    3  C   UNL     1      62.448   8.374   4.953  1.00  0.00     0.137 A 
HETATM    4  N   UNL     1      63.177   8.603   6.059  1.00  0.00    -0.242 N 
ATOM      5  HN  UNL     1      63.681   9.452   6.316  1.00  0.00     0.196 HD
HETATM    6  C   UNL     1      62.303   6.577   6.034  1.00  0.00     0.174 A 
HETATM    7  O   UNL     1      63.085   7.411   6.773  1.00  0.00    -0.221 OA
ENDROOT
BRANCH   3   8
HETATM    8  C   UNL     1      62.252   9.357   3.892  1.00  0.00     0.010 A 
HETATM    9  C   UNL     1      62.236   8.957   2.548  1.00  0.00     0.015 A 
HETATM   10  C   UNL     1      62.033   9.891   1.529  1.00  0.00     0.001 A 
HETATM   11  C   UNL     1      61.847  11.236   1.842  1.00  0.00     0.000 A 
HETATM   12  C   UNL     1      61.867  11.650   3.171  1.00  0.00     0.001 A 
HETATM   13  C   UNL     1      62.069  10.716   4.192  1.00  0.00     0.015 A 
ENDBRANCH   3   8
BRANCH   6  14
HETATM   14  C   UNL     1      62.040   5.225   6.598  1.00  0.00     0.315 C 
BRANCH  14  15
HETATM   15  N   UNL     1      60.672   5.094   7.110  1.00  0.00    -0.072 N 
HETATM   16  H   UNL     1      60.646   4.377   7.833  1.00  0.00     0.274 HD
HETATM   17  H   UNL     1      60.047   4.832   6.347  1.00  0.00     0.274 HD
HETATM   18  H   UNL     1      60.370   5.986   7.505  1.00  0.00     0.274 HD
ENDBRANCH  14  15
ENDBRANCH   6  14
TORSDOF 3
ENDMDL
MODEL 3
REMARK VINA RESULT:      -5.0      1.505      2.342
REMARK  3 active torsions:
REMARK  status: ('A' for Active; 'I' for Inactive)
REMARK    1  A    between atoms: C_3  and  C_8 
REMARK    2  A    between atoms: C_6  and  C_9 
REMARK    3  A    between atoms: C_9  and  N_10 
ROOT
HETATM    1  N   UNL     1      64.693   7.458   6.778  1.00  0.00    -0.321 N 
ATOM      2  HN  UNL     1      63.800   7.344   7.255  1.00  0.00     0.169 HD
HETATM    3  C   UNL     1      64.957   8.081   5.574  1.00  0.00     0.137 A 
HETATM    4  N   UNL     1      66.259   8.074   5.235  1.00  0.00    -0.242 N 
ATOM      5  HN  UNL     1      66.694   8.479   4.406  1.00  0.00     0.196 HD
HETATM    6  C   UNL     1      65.886   7.049   7.153  1.00  0.00     0.174 A 
HETATM    7  O   UNL     1      66.873   7.388   6.278  1.00  0.00    -0.221 OA
ENDROOT
BRANCH   3   8
HETATM    8  C   UNL     1      63.912   8.702   4.768  1.00  0.00     0.010 A 
HETATM    9  C   UNL     1      63.476   8.094   3.581  1.00  0.00     0.015 A 
HETATM   10  C   UNL     1      62.464   8.675   2.812  1.00  0.00     0.001 A 
HETATM   11  C   UNL     1      61.878   9.872   3.220  1.00  0.00     0.000 A 
HETATM   12  C   UNL     1      62.305  10.491   4.392  1.00  0.00     0.001 A 
HETATM   13  C   UNL     1      63.316   9.910   5.162  1.00  0.00     0.015 A 
ENDBRANCH   3   8
BRANCH   6  14
HETATM   14  C   UNL     1      66.296   6.308   8.377  1.00  0.00     0.315 C 
BRANCH  14  15
HETATM   15  N   UNL     1      67.683   6.591   8.757  1.00  0.00    -0.072 N 
HETATM   16  H   UNL     1      67.997   5.900   9.438  1.00  0.00     0.274 HD
HETATM   17  H   UNL     1      67.740   7.523   9.169  1.00  0.00     0.274 HD
HETATM   18  H   UNL     1      68.278   6.547   7.930  1.00  0.00     0.274 HD
ENDBRANCH  14  15
ENDBRANCH   6  14
TORSDOF 3
ENDMDL
MODEL 4
REMARK VINA RESULT:      -4.7      2.166      5.500
REMARK  3 active torsions:
REMARK  status: ('A' for Active; 'I' for Inactive)
REMARK    1  A    between atoms: C_3  and  C_8 
REMARK    2  A    between atoms: C_6  and  C_9 
REMARK    3  A    between atoms: C_9  and  N_10 
ROOT
HETATM    1  N   UNL     1      63.620   8.408   3.949  1.00  0.00    -0.321 N 
ATOM      2  HN  UNL     1      63.718   7.630   3.297  1.00  0.00     0.169 HD
HETATM    3  C   UNL     1      64.346   8.675   5.093  1.00  0.00     0.137 A 
HETATM    4  N   UNL     1      63.972   9.804   5.720  1.00  0.00    -0.242 N 
ATOM      5  HN  UNL     1      64.365  10.210   6.569  1.00  0.00     0.196 HD
HETATM    6  C   UNL     1      62.770   9.411   3.912  1.00  0.00     0.174 A 
HETATM    7  O   UNL     1      62.926  10.290   4.940  1.00  0.00    -0.221 OA
ENDROOT
BRANCH   3   8
HETATM    8  C   UNL     1      65.428   7.811   5.553  1.00  0.00     0.010 A 
HETATM    9  C   UNL     1      66.667   7.813   4.894  1.00  0.00     0.015 A 
HETATM   10  C   UNL     1      67.712   7.000   5.340  1.00  0.00     0.001 A 
HETATM   11  C   UNL     1      67.530   6.172   6.446  1.00  0.00     0.000 A 
HETATM   12  C   UNL     1      66.304   6.153   7.106  1.00  0.00     0.001 A 
HETATM   13  C   UNL     1      65.257   6.968   6.662  1.00  0.00     0.015 A 
ENDBRANCH   3   8
BRANCH   6  14
HETATM   14  C   UNL     1      61.707   9.721   2.918  1.00  0.00     0.315 C 
BRANCH  14  15
HETATM   15  N   UNL     1      61.602  11.158   2.647  1.00  0.00    -0.072 N 
HETATM   16  H   UNL     1      62.436  11.631   2.993  1.00  0.00     0.274 HD
HETATM   17  H   UNL     1      60.778  11.533   3.117  1.00  0.00     0.274 HD
HETATM   18  H   UNL     1      61.519  11.309   1.641  1.00  0.00     0.274 HD
ENDBRANCH  14  15
ENDBRANCH   6  14
TORSDOF 3
ENDMDL
MODEL 5
REMARK VINA RESULT:      -4.1     12.866     14.298
REMARK  3 active torsions:
REMARK  status: ('A' for Active; 'I' for Inactive)
REMARK    1  A    between atoms: C_3  and  C_8 
REMARK    2  A    between atoms: C_6  and  C_9 
REMARK    3  A    between atoms: C_9  and  N_10 
ROOT
HETATM    1  N   UNL     1      55.747   2.840  13.431  1.00  0.00    -0.321 N 
ATOM      2  HN  UNL     1      56.271   3.464  12.820  1.00  0.00     0.169 HD
HETATM    3  C   UNL     1      56.126   1.618  13.952  1.00  0.00     0.137 A 
HETATM    4  N   UNL     1      55.198   1.057  14.747  1.00  0.00    -0.242 N 
ATOM      5  HN  UNL     1      55.255   0.171  15.250  1.00  0.00     0.196 HD
HETATM    6  C   UNL     1      54.537   2.994  13.925  1.00  0.00     0.174 A 
HETATM    7  O   UNL     1      54.145   1.966  14.727  1.00  0.00    -0.221 OA
ENDROOT
BRANCH   3   8
HETATM    8  C   UNL     1      57.425   1.017  13.670  1.00  0.00     0.010 A 
HETATM    9  C   UNL     1      57.574  -0.378  13.659  1.00  0.00     0.015 A 
HETATM   10  C   UNL     1      58.811  -0.961  13.374  1.00  0.00     0.001 A 
HETATM   11  C   UNL     1      59.915  -0.156  13.100  1.00  0.00     0.000 A 
HETATM   12  C   UNL     1      59.786   1.231  13.114  1.00  0.00     0.001 A 
HETATM   13  C   UNL     1      58.547   1.815  13.398  1.00  0.00     0.015 A 
ENDBRANCH   3   8
BRANCH   6  14
HETATM   14  C   UNL     1      53.575   4.116  13.750  1.00  0.00     0.315 C 
BRANCH  14  15
HETATM   15  N   UNL     1      53.894   5.259  14.611  1.00  0.00    -0.072 N 
HETATM   16  H   UNL     1      54.098   4.929  15.553  1.00  0.00     0.274 HD
HETATM   17  H   UNL     1      53.097   5.896  14.639  1.00  0.00     0.274 HD
HETATM   18  H   UNL     1      54.708   5.749  14.238  1.00  0.00     0.274 HD
ENDBRANCH  14  15
ENDBRANCH   6  14
TORSDOF 3
ENDMDL
MODEL 6
REMARK VINA RESULT:      -3.9      2.346      3.274
REMARK  3 active torsions:
REMARK  status: ('A' for Active; 'I' for Inactive)
REMARK    1  A    between atoms: C_3  and  C_8 
REMARK    2  A    between atoms: C_6  and  C_9 
REMARK    3  A    between atoms: C_9  and  N_10 
ROOT
HETATM    1  N   UNL     1      61.064   6.851   5.095  1.00  0.00    -0.321 N 
ATOM      2  HN  UNL     1      60.091   6.993   4.827  1.00  0.00     0.169 HD
HETATM    3  C   UNL     1      62.195   7.477   4.610  1.00  0.00     0.137 A 
HETATM    4  N   UNL     1      63.334   7.070   5.197  1.00  0.00    -0.242 N 
ATOM      5  HN  UNL     1      64.285   7.393   5.016  1.00  0.00     0.196 HD
HETATM    6  C   UNL     1      61.560   6.026   5.991  1.00  0.00     0.174 A 
HETATM    7  O   UNL     1      62.914   6.106   6.109  1.00  0.00    -0.221 OA
ENDROOT
BRANCH   3   8
HETATM    8  C   UNL     1      62.139   8.499   3.569  1.00  0.00     0.010 A 
HETATM    9  C   UNL     1      61.952   9.847   3.908  1.00  0.00     0.015 A 
HETATM   10  C   UNL     1      61.914  10.832   2.918  1.00  0.00     0.001 A 
HETATM   11  C   UNL     1      62.057  10.480   1.577  1.00  0.00     0.000 A 
HETATM   12  C   UNL     1      62.235   9.145   1.224  1.00  0.00     0.001 A 
HETATM   13  C   UNL     1      62.276   8.158   2.215  1.00  0.00     0.015 A 
ENDBRANCH   3   8
BRANCH   6  14
HETATM   14  C   UNL     1      60.862   5.060   6.884  1.00  0.00     0.315 C 
BRANCH  14  15
HETATM   15  N   UNL     1      59.568   4.638   6.340  1.00  0.00    -0.072 N 
HETATM   16  H   UNL     1      59.682   3.761   5.832  1.00  0.00     0.274 HD
HETATM   17  H   UNL     1      59.216   5.355   5.705  1.00  0.00     0.274 HD
HETATM   18  H   UNL     1      58.906   4.504   7.104  1.00  0.00     0.274 HD
ENDBRANCH  14  15
ENDBRANCH   6  14
TORSDOF 3
ENDMDL
MODEL 7
REMARK VINA RESULT:      -3.8      9.300     11.133
REMARK  3 active torsions:
REMARK  status: ('A' for Active; 'I' for Inactive)
REMARK    1  A    between atoms: C_3  and  C_8 
REMARK    2  A    between atoms: C_6  and  C_9 
REMARK    3  A    between atoms: C_9  and  N_10 
ROOT
HETATM    1  N   UNL     1      58.610   4.301  10.325  1.00  0.00    -0.321 N 
ATOM      2  HN  UNL     1      58.540   5.050  11.013  1.00  0.00     0.169 HD
HETATM    3  C   UNL     1      58.480   2.939  10.513  1.00  0.00     0.137 A 
HETATM    4  N   UNL     1      58.608   2.221   9.383  1.00  0.00    -0.242 N 
ATOM      5  HN  UNL     1      58.541   1.210   9.270  1.00  0.00     0.196 HD
HETATM    6  C   UNL     1      58.845   4.387   9.034  1.00  0.00     0.174 A 
HETATM    7  O   UNL     1      58.854   3.180   8.404  1.00  0.00    -0.221 OA
ENDROOT
BRANCH   3   8
HETATM    8  C   UNL     1      58.208   2.351  11.821  1.00  0.00     0.010 A 
HETATM    9  C   UNL     1      59.258   1.863  12.611  1.00  0.00     0.015 A 
HETATM   10  C   UNL     1      59.007   1.314  13.871  1.00  0.00     0.001 A 
HETATM   11  C   UNL     1      57.701   1.244  14.354  1.00  0.00     0.000 A 
HETATM   12  C   UNL     1      56.646   1.718  13.578  1.00  0.00     0.001 A 
HETATM   13  C   UNL     1      56.898   2.269  12.317  1.00  0.00     0.015 A 
ENDBRANCH   3   8
BRANCH   6  14
HETATM   14  C   UNL     1      59.075   5.590   8.187  1.00  0.00     0.315 C 
BRANCH  14  15
HETATM   15  N   UNL     1      58.614   6.821   8.836  1.00  0.00    -0.072 N 
HETATM   16  H   UNL     1      57.829   6.608   9.451  1.00  0.00     0.274 HD
HETATM   17  H   UNL     1      58.317   7.489   8.126  1.00  0.00     0.274 HD
HETATM   18  H   UNL     1      59.376   7.222   9.384  1.00  0.00     0.274 HD
ENDBRANCH  14  15
ENDBRANCH   6  14
TORSDOF 3
ENDMDL
MODEL 8
REMARK VINA RESULT:      -3.8      3.813      5.866
REMARK  3 active torsions:
REMARK  status: ('A' for Active; 'I' for Inactive)
REMARK    1  A    between atoms: C_3  and  C_8 
REMARK    2  A    between atoms: C_6  and  C_9 
REMARK    3  A    between atoms: C_9  and  N_10 
ROOT
HETATM    1  N   UNL     1      61.674   7.365   4.733  1.00  0.00    -0.321 N 
ATOM      2  HN  UNL     1      61.027   6.937   4.072  1.00  0.00     0.169 HD
HETATM    3  C   UNL     1      61.991   6.964   6.016  1.00  0.00     0.137 A 
HETATM    4  N   UNL     1      62.906   7.745   6.617  1.00  0.00    -0.242 N 
ATOM      5  HN  UNL     1      63.303   7.643   7.551  1.00  0.00     0.196 HD
HETATM    6  C   UNL     1      62.418   8.438   4.580  1.00  0.00     0.174 A 
HETATM    7  O   UNL     1      63.186   8.724   5.668  1.00  0.00    -0.221 OA
ENDROOT
BRANCH   3   8
HETATM    8  C   UNL     1      61.394   5.787   6.638  1.00  0.00     0.010 A 
HETATM    9  C   UNL     1      62.029   4.539   6.552  1.00  0.00     0.015 A 
HETATM   10  C   UNL     1      61.471   3.412   7.160  1.00  0.00     0.001 A 
HETATM   11  C   UNL     1      60.269   3.518   7.858  1.00  0.00     0.000 A 
HETATM   12  C   UNL     1      59.622   4.748   7.946  1.00  0.00     0.001 A 
HETATM   13  C   UNL     1      60.181   5.877   7.339  1.00  0.00     0.015 A 
ENDBRANCH   3   8
BRANCH   6  14
HETATM   14  C   UNL     1      62.548   9.346   3.407  1.00  0.00     0.315 C 
BRANCH  14  15
HETATM   15  N   UNL     1      61.415  10.269   3.293  1.00  0.00    -0.072 N 
HETATM   16  H   UNL     1      61.731  11.221   3.478  1.00  0.00     0.274 HD
HETATM   17  H   UNL     1      60.697  10.012   3.970  1.00  0.00     0.274 HD
HETATM   18  H   UNL     1      61.028  10.218   2.350  1.00  0.00     0.274 HD
ENDBRANCH  14  15
ENDBRANCH   6  14
TORSDOF 3
ENDMDL
MODEL 9
REMARK VINA RESULT:      -3.7     12.300     13.946
REMARK  3 active torsions:
REMARK  status: ('A' for Active; 'I' for Inactive)
REMARK    1  A    between atoms: C_3  and  C_8 
REMARK    2  A    between atoms: C_6  and  C_9 
REMARK    3  A    between atoms: C_9  and  N_10 
ROOT
HETATM    1  N   UNL     1      54.863   2.867  12.317  1.00  0.00    -0.321 N 
ATOM      2  HN  UNL     1      55.098   2.729  11.335  1.00  0.00     0.169 HD
HETATM    3  C   UNL     1      55.624   2.591  13.436  1.00  0.00     0.137 A 
HETATM    4  N   UNL     1      55.021   2.914  14.594  1.00  0.00    -0.242 N 
ATOM      5  HN  UNL     1      55.387   2.815  15.541  1.00  0.00     0.196 HD
HETATM    6  C   UNL     1      53.758   3.353  12.839  1.00  0.00     0.174 A 
HETATM    7  O   UNL     1      53.784   3.415  14.200  1.00  0.00    -0.221 OA
ENDROOT
BRANCH   3   8
HETATM    8  C   UNL     1      56.965   2.021  13.350  1.00  0.00     0.010 A 
HETATM    9  C   UNL     1      57.386   1.056  14.276  1.00  0.00     0.015 A 
HETATM   10  C   UNL     1      58.662   0.495  14.190  1.00  0.00     0.001 A 
HETATM   11  C   UNL     1      59.534   0.894  13.178  1.00  0.00     0.000 A 
HETATM   12  C   UNL     1      59.133   1.857  12.255  1.00  0.00     0.001 A 
HETATM   13  C   UNL     1      57.855   2.418  12.340  1.00  0.00     0.015 A 
ENDBRANCH   3   8
BRANCH   6  14
HETATM   14  C   UNL     1      52.527   3.851  12.167  1.00  0.00     0.315 C 
BRANCH  14  15
HETATM   15  N   UNL     1      52.086   5.142  12.702  1.00  0.00    -0.072 N 
HETATM   16  H   UNL     1      52.501   5.897  12.157  1.00  0.00     0.274 HD
HETATM   17  H   UNL     1      52.380   5.225  13.675  1.00  0.00     0.274 HD
HETATM   18  H   UNL     1      51.069   5.204  12.648  1.00  0.00     0.274 HD
ENDBRANCH  14  15
ENDBRANCH   6  14
TORSDOF 3
ENDMDL
