MODEL 1
REMARK VINA RESULT:      -5.6      0.000      0.000
REMARK  1 active torsions:
REMARK  status: ('A' for Active; 'I' for Inactive)
REMARK    1  A    between atoms: C_1  and  C_3 
ROOT
HETATM    1  C   UNL     1      64.952   8.009   4.826  1.00  0.00     0.074 A 
HETATM    2  C   UNL     1      63.974   9.015   4.759  1.00  0.00     0.092 A 
HETATM    3  O   UNL     1      64.100  10.113   5.573  1.00  0.00    -0.349 OA
HETATM    4  C   UNL     1      62.934   8.915   3.815  1.00  0.00    -0.024 A 
HETATM    5  C   UNL     1      64.868   6.899   3.971  1.00  0.00     0.021 A 
HETATM    6  C   UNL     1      63.816   6.781   3.065  1.00  0.00     0.002 A 
HETATM    7  C   UNL     1      62.853   7.784   2.988  1.00  0.00     0.010 A 
HETATM    8  C   UNL     1      62.907  10.883   5.736  1.00  0.00     0.176 C 
HETATM    9  C   UNL     1      61.896   9.996   3.676  1.00  0.00     0.043 C 
HETATM   10  C   UNL     1      62.332  11.267   4.387  1.00  0.00     0.031 C 
ENDROOT
BRANCH   1  11
HETATM   11  C   UNL     1      66.122   8.053   5.734  1.00  0.00     0.212 C 
HETATM   12  O   UNL     1      67.260   8.328   5.388  1.00  0.00    -0.644 OA
HETATM   13  O   UNL     1      65.861   7.674   6.994  1.00  0.00    -0.644 OA
ENDBRANCH   1  11
TORSDOF 1
ENDMDL
MODEL 2
REMARK VINA RESULT:      -5.6      1.900      3.880
REMARK  1 active torsions:
REMARK  status: ('A' for Active; 'I' for Inactive)
REMARK    1  A    between atoms: C_1  and  C_3 
ROOT
HETATM    1  C   UNL     1      62.877   9.485   4.218  1.00  0.00     0.074 A 
HETATM    2  C   UNL     1      62.716   8.740   3.039  1.00  0.00     0.092 A 
HETATM    3  O   UNL     1      63.099   7.422   3.034  1.00  0.00    -0.349 OA
HETATM    4  C   UNL     1      62.102   9.332   1.918  1.00  0.00    -0.024 A 
HETATM    5  C   UNL     1      62.450  10.822   4.261  1.00  0.00     0.021 A 
HETATM    6  C   UNL     1      61.880  11.419   3.138  1.00  0.00     0.002 A 
HETATM    7  C   UNL     1      61.706  10.677   1.972  1.00  0.00     0.010 A 
HETATM    8  C   UNL     1      63.272   6.849   1.736  1.00  0.00     0.176 C 
HETATM    9  C   UNL     1      61.864   8.552   0.653  1.00  0.00     0.043 C 
HETATM   10  C   UNL     1      62.030   7.060   0.892  1.00  0.00     0.031 C 
ENDROOT
BRANCH   1  11
HETATM   11  C   UNL     1      63.446   8.937   5.472  1.00  0.00     0.212 C 
HETATM   12  O   UNL     1      62.827   8.266   6.281  1.00  0.00    -0.644 OA
HETATM   13  O   UNL     1      64.712   9.310   5.715  1.00  0.00    -0.644 OA
ENDBRANCH   1  11
TORSDOF 1
ENDMDL
MODEL 3
REMARK VINA RESULT:      -5.3      1.196      3.807
REMARK  1 active torsions:
REMARK  status: ('A' for Active; 'I' for Inactive)
REMARK    1  A    between atoms: C_1  and  C_3 
ROOT
HETATM    1  C   UNL     1      63.027   9.733   4.474  1.00  0.00     0.074 A 
HETATM    2  C   UNL     1      64.055   8.819   4.755  1.00  0.00     0.092 A 
HETATM    3  O   UNL     1      64.895   9.074   5.810  1.00  0.00    -0.349 OA
HETATM    4  C   UNL     1      64.158   7.632   4.004  1.00  0.00    -0.024 A 
HETATM    5  C   UNL     1      62.127   9.468   3.430  1.00  0.00     0.021 A 
HETATM    6  C   UNL     1      62.255   8.314   2.661  1.00  0.00     0.002 A 
HETATM    7  C   UNL     1      63.266   7.400   2.946  1.00  0.00     0.010 A 
HETATM    8  C   UNL     1      66.120   8.337   5.798  1.00  0.00     0.176 C 
HETATM    9  C   UNL     1      65.215   6.603   4.306  1.00  0.00     0.043 C 
HETATM   10  C   UNL     1      65.846   6.852   5.666  1.00  0.00     0.031 C 
ENDROOT
BRANCH   1  11
HETATM   11  C   UNL     1      62.789  10.974   5.248  1.00  0.00     0.212 C 
HETATM   12  O   UNL     1      63.159  11.159   6.396  1.00  0.00    -0.644 OA
HETATM   13  O   UNL     1      62.037  11.886   4.614  1.00  0.00    -0.644 OA
ENDBRANCH   1  11
TORSDOF 1
ENDMDL
MODEL 4
REMARK VINA RESULT:      -5.3      2.033      4.364
REMARK  1 active torsions:
REMARK  status: ('A' for Active; 'I' for Inactive)
REMARK    1  A    between atoms: C_1  and  C_3 
ROOT
HETATM    1  C   UNL     1      62.212   9.753   2.530  1.00  0.00     0.074 A 
HETATM    2  C   UNL     1      62.993   8.827   3.241  1.00  0.00     0.092 A 
HETATM    3  O   UNL     1      63.513   9.197   4.456  1.00  0.00    -0.349 OA
HETATM    4  C   UNL     1      63.164   7.524   2.734  1.00  0.00    -0.024 A 
HETATM    5  C   UNL     1      61.631   9.380   1.308  1.00  0.00     0.021 A 
HETATM    6  C   UNL     1      61.835   8.104   0.787  1.00  0.00     0.002 A 
HETATM    7  C   UNL     1      62.598   7.180   1.497  1.00  0.00     0.010 A 
HETATM    8  C   UNL     1      64.587   8.380   4.927  1.00  0.00     0.176 C 
HETATM    9  C   UNL     1      63.951   6.487   3.490  1.00  0.00     0.043 C 
HETATM   10  C   UNL     1      64.183   6.919   4.929  1.00  0.00     0.031 C 
ENDROOT
BRANCH   1  11
HETATM   11  C   UNL     1      61.914  11.123   3.009  1.00  0.00     0.212 C 
HETATM   12  O   UNL     1      61.628  11.411   4.160  1.00  0.00    -0.644 OA
HETATM   13  O   UNL     1      61.892  12.054   2.043  1.00  0.00    -0.644 OA
ENDBRANCH   1  11
TORSDOF 1
ENDMDL
MODEL 5
REMARK VINA RESULT:      -5.1      2.279      3.625
REMARK  1 active torsions:
REMARK  status: ('A' for Active; 'I' for Inactive)
REMARK    1  A    between atoms: C_1  and  C_3 
ROOT
HETATM    1  C   UNL     1      66.346   6.502   7.188  1.00  0.00     0.074 A 
HETATM    2  C   UNL     1      65.263   7.066   6.494  1.00  0.00     0.092 A 
HETATM    3  O   UNL     1      64.037   7.110   7.108  1.00  0.00    -0.349 OA
HETATM    4  C   UNL     1      65.471   7.638   5.223  1.00  0.00    -0.024 A 
HETATM    5  C   UNL     1      67.620   6.488   6.598  1.00  0.00     0.021 A 
HETATM    6  C   UNL     1      67.816   7.017   5.324  1.00  0.00     0.002 A 
HETATM    7  C   UNL     1      66.746   7.589   4.640  1.00  0.00     0.010 A 
HETATM    8  C   UNL     1      62.930   7.326   6.230  1.00  0.00     0.176 C 
HETATM    9  C   UNL     1      64.348   8.298   4.469  1.00  0.00     0.043 C 
HETATM   10  C   UNL     1      63.159   8.560   5.379  1.00  0.00     0.031 C 
ENDROOT
BRANCH   1  11
HETATM   11  C   UNL     1      66.249   5.939   8.555  1.00  0.00     0.212 C 
HETATM   12  O   UNL     1      66.339   6.590   9.584  1.00  0.00    -0.644 OA
HETATM   13  O   UNL     1      66.136   4.602   8.597  1.00  0.00    -0.644 OA
ENDBRANCH   1  11
TORSDOF 1
ENDMDL
MODEL 6
REMARK VINA RESULT:      -4.8      2.683      4.862
REMARK  1 active torsions:
REMARK  status: ('A' for Active; 'I' for Inactive)
REMARK    1  A    between atoms: C_1  and  C_3 
ROOT
HETATM    1  C   UNL     1      62.285   9.289   2.619  1.00  0.00     0.074 A 
HETATM    2  C   UNL     1      63.166   8.478   3.353  1.00  0.00     0.092 A 
HETATM    3  O   UNL     1      63.617   7.313   2.786  1.00  0.00    -0.349 OA
HETATM    4  C   UNL     1      63.624   8.909   4.613  1.00  0.00    -0.024 A 
HETATM    5  C   UNL     1      61.847  10.509   3.159  1.00  0.00     0.021 A 
HETATM    6  C   UNL     1      62.269  10.914   4.424  1.00  0.00     0.002 A 
HETATM    7  C   UNL     1      63.153  10.118   5.147  1.00  0.00     0.010 A 
HETATM    8  C   UNL     1      64.176   6.372   3.706  1.00  0.00     0.176 C 
HETATM    9  C   UNL     1      64.609   8.094   5.409  1.00  0.00     0.043 C 
HETATM   10  C   UNL     1      65.257   7.025   4.544  1.00  0.00     0.031 C 
ENDROOT
BRANCH   1  11
HETATM   11  C   UNL     1      61.799   8.962   1.258  1.00  0.00     0.212 C 
HETATM   12  O   UNL     1      62.477   9.020   0.245  1.00  0.00    -0.644 OA
HETATM   13  O   UNL     1      60.492   8.668   1.192  1.00  0.00    -0.644 OA
ENDBRANCH   1  11
TORSDOF 1
ENDMDL
MODEL 7
REMARK VINA RESULT:      -4.4      2.286      3.717
REMARK  1 active torsions:
REMARK  status: ('A' for Active; 'I' for Inactive)
REMARK    1  A    between atoms: C_1  and  C_3 
ROOT
HETATM    1  C   UNL     1      62.625   9.186   4.509  1.00  0.00     0.074 A 
HETATM    2  C   UNL     1      62.099   7.924   4.831  1.00  0.00     0.092 A 
HETATM    3  O   UNL     1      62.352   7.402   6.075  1.00  0.00    -0.349 OA
HETATM    4  C   UNL     1      61.270   7.258   3.909  1.00  0.00    -0.024 A 
HETATM    5  C   UNL     1      62.341   9.760   3.259  1.00  0.00     0.021 A 
HETATM    6  C   UNL     1      61.554   9.081   2.332  1.00  0.00     0.002 A 
HETATM    7  C   UNL     1      61.021   7.836   2.655  1.00  0.00     0.010 A 
HETATM    8  C   UNL     1      62.132   5.995   6.195  1.00  0.00     0.176 C 
HETATM    9  C   UNL     1      60.645   5.927   4.236  1.00  0.00     0.043 C 
HETATM   10  C   UNL     1      60.737   5.633   5.724  1.00  0.00     0.031 C 
ENDROOT
BRANCH   1  11
HETATM   11  C   UNL     1      63.449   9.999   5.433  1.00  0.00     0.212 C 
HETATM   12  O   UNL     1      63.074  11.022   5.983  1.00  0.00    -0.644 OA
HETATM   13  O   UNL     1      64.714   9.572   5.568  1.00  0.00    -0.644 OA
ENDBRANCH   1  11
TORSDOF 1
ENDMDL
MODEL 8
REMARK VINA RESULT:      -4.3     13.506     14.098
REMARK  1 active torsions:
REMARK  status: ('A' for Active; 'I' for Inactive)
REMARK    1  A    between atoms: C_1  and  C_3 
ROOT
HETATM    1  C   UNL     1      54.890   2.788  13.514  1.00  0.00     0.074 A 
HETATM    2  C   UNL     1      56.171   2.385  13.103  1.00  0.00     0.092 A 
HETATM    3  O   UNL     1      56.911   3.237  12.321  1.00  0.00    -0.349 OA
HETATM    4  C   UNL     1      56.696   1.160  13.556  1.00  0.00    -0.024 A 
HETATM    5  C   UNL     1      54.133   1.952  14.352  1.00  0.00     0.021 A 
HETATM    6  C   UNL     1      54.638   0.722  14.767  1.00  0.00     0.002 A 
HETATM    7  C   UNL     1      55.914   0.327  14.371  1.00  0.00     0.010 A 
HETATM    8  C   UNL     1      58.004   2.627  11.632  1.00  0.00     0.176 C 
HETATM    9  C   UNL     1      58.084   0.716  13.179  1.00  0.00     0.043 C 
HETATM   10  C   UNL     1      58.889   1.869  12.602  1.00  0.00     0.031 C 
ENDROOT
BRANCH   1  11
HETATM   11  C   UNL     1      54.274   4.085  13.151  1.00  0.00     0.212 C 
HETATM   12  O   UNL     1      53.692   4.310  12.102  1.00  0.00    -0.644 OA
HETATM   13  O   UNL     1      54.477   5.064  14.046  1.00  0.00    -0.644 OA
ENDBRANCH   1  11
TORSDOF 1
ENDMDL
MODEL 9
REMARK VINA RESULT:      -4.3      2.114      2.679
REMARK  1 active torsions:
REMARK  status: ('A' for Active; 'I' for Inactive)
REMARK    1  A    between atoms: C_1  and  C_3 
ROOT
HETATM    1  C   UNL     1      63.607   7.886   5.213  1.00  0.00     0.074 A 
HETATM    2  C   UNL     1      62.671   8.174   4.207  1.00  0.00     0.092 A 
HETATM    3  O   UNL     1      63.019   9.053   3.213  1.00  0.00    -0.349 OA
HETATM    4  C   UNL     1      61.432   7.503   4.195  1.00  0.00    -0.024 A 
HETATM    5  C   UNL     1      63.290   6.954   6.214  1.00  0.00     0.021 A 
HETATM    6  C   UNL     1      62.048   6.322   6.224  1.00  0.00     0.002 A 
HETATM    7  C   UNL     1      61.123   6.596   5.220  1.00  0.00     0.010 A 
HETATM    8  C   UNL     1      61.922   9.588   2.469  1.00  0.00     0.176 C 
HETATM    9  C   UNL     1      60.421   7.745   3.106  1.00  0.00     0.043 C 
HETATM   10  C   UNL     1      61.051   8.471   1.928  1.00  0.00     0.031 C 
ENDROOT
BRANCH   1  11
HETATM   11  C   UNL     1      64.962   8.482   5.276  1.00  0.00     0.212 C 
HETATM   12  O   UNL     1      65.981   7.937   4.884  1.00  0.00    -0.644 OA
HETATM   13  O   UNL     1      65.015   9.673   5.893  1.00  0.00    -0.644 OA
ENDBRANCH   1  11
TORSDOF 1
ENDMDL
