MODEL 1
REMARK VINA RESULT:      -4.7      0.000      0.000
REMARK  3 active torsions:
REMARK  status: ('A' for Active; 'I' for Inactive)
REMARK    1  A    between atoms: C_1  and  C_2 
REMARK    2  A    between atoms: C_1  and  C_4 
REMARK    3  A    between atoms: N_3  and  C_4 
ROOT
HETATM    1  C   UNL     1      63.279   9.008   4.890  1.00  0.00     0.003 C 
HETATM    2  C   UNL     1      64.803   8.814   5.101  1.00  0.00     0.021 C 
HETATM    3  C   UNL     1      62.584   7.993   5.833  1.00  0.00     0.021 C 
ENDROOT
BRANCH   1   4
HETATM    4  C   UNL     1      62.867   8.784   3.418  1.00  0.00    -0.049 A 
HETATM    5  C   UNL     1      62.199   9.780   2.680  1.00  0.00     0.008 A 
HETATM    6  C   UNL     1      61.819   9.575   1.351  1.00  0.00     0.001 A 
HETATM    7  C   UNL     1      62.086   8.365   0.724  1.00  0.00     0.000 A 
HETATM    8  C   UNL     1      62.722   7.352   1.434  1.00  0.00     0.001 A 
HETATM    9  C   UNL     1      63.101   7.557   2.764  1.00  0.00     0.008 A 
ENDBRANCH   1   4
BRANCH   1  10
HETATM   10  C   UNL     1      62.879  10.467   5.279  1.00  0.00     0.243 C 
BRANCH  10  11
HETATM   11  N   UNL     1      63.829  11.152   6.161  1.00  0.00    -0.078 N 
HETATM   12  H   UNL     1      63.412  12.019   6.501  1.00  0.00     0.274 HD
HETATM   13  H   UNL     1      64.681  11.365   5.642  1.00  0.00     0.274 HD
HETATM   14  H   UNL     1      64.053  10.548   6.952  1.00  0.00     0.274 HD
ENDBRANCH  10  11
ENDBRANCH   1  10
TORSDOF 3
ENDMDL
MODEL 2
REMARK VINA RESULT:      -4.6      1.545      2.617
REMARK  3 active torsions:
REMARK  status: ('A' for Active; 'I' for Inactive)
REMARK    1  A    between atoms: C_1  and  C_2 
REMARK    2  A    between atoms: C_1  and  C_4 
REMARK    3  A    between atoms: N_3  and  C_4 
ROOT
HETATM    1  C   UNL     1      63.389   7.800   4.308  1.00  0.00     0.003 C 
HETATM    2  C   UNL     1      63.849   6.712   3.303  1.00  0.00     0.021 C 
HETATM    3  C   UNL     1      62.359   7.113   5.241  1.00  0.00     0.021 C 
ENDROOT
BRANCH   1   4
HETATM    4  C   UNL     1      62.774   9.024   3.593  1.00  0.00    -0.049 A 
HETATM    5  C   UNL     1      62.513   9.014   2.209  1.00  0.00     0.008 A 
HETATM    6  C   UNL     1      61.963  10.123   1.560  1.00  0.00     0.001 A 
HETATM    7  C   UNL     1      61.668  11.277   2.273  1.00  0.00     0.000 A 
HETATM    8  C   UNL     1      61.939  11.327   3.637  1.00  0.00     0.001 A 
HETATM    9  C   UNL     1      62.489  10.218   4.285  1.00  0.00     0.008 A 
ENDBRANCH   1   4
BRANCH   1  10
HETATM   10  C   UNL     1      64.616   8.301   5.135  1.00  0.00     0.243 C 
BRANCH  10  11
HETATM   11  N   UNL     1      64.727   7.729   6.480  1.00  0.00    -0.078 N 
HETATM   12  H   UNL     1      63.809   7.724   6.924  1.00  0.00     0.274 HD
HETATM   13  H   UNL     1      65.371   8.292   7.037  1.00  0.00     0.274 HD
HETATM   14  H   UNL     1      65.079   6.773   6.415  1.00  0.00     0.274 HD
ENDBRANCH  10  11
ENDBRANCH   1  10
TORSDOF 3
ENDMDL
MODEL 3
REMARK VINA RESULT:      -4.6      2.363      4.208
REMARK  3 active torsions:
REMARK  status: ('A' for Active; 'I' for Inactive)
REMARK    1  A    between atoms: C_1  and  C_2 
REMARK    2  A    between atoms: C_1  and  C_4 
REMARK    3  A    between atoms: N_3  and  C_4 
ROOT
HETATM    1  C   UNL     1      62.015   8.279   1.935  1.00  0.00     0.003 C 
HETATM    2  C   UNL     1      62.917   7.018   1.885  1.00  0.00     0.021 C 
HETATM    3  C   UNL     1      62.250   9.027   0.599  1.00  0.00     0.021 C 
ENDROOT
BRANCH   1   4
HETATM    4  C   UNL     1      62.345   9.176   3.149  1.00  0.00    -0.049 A 
HETATM    5  C   UNL     1      61.873  10.499   3.237  1.00  0.00     0.008 A 
HETATM    6  C   UNL     1      62.177  11.315   4.331  1.00  0.00     0.001 A 
HETATM    7  C   UNL     1      62.970  10.833   5.364  1.00  0.00     0.000 A 
HETATM    8  C   UNL     1      63.473   9.538   5.295  1.00  0.00     0.001 A 
HETATM    9  C   UNL     1      63.169   8.724   4.199  1.00  0.00     0.008 A 
ENDBRANCH   1   4
BRANCH   1  10
HETATM   10  C   UNL     1      60.519   7.847   2.057  1.00  0.00     0.243 C 
BRANCH  10  11
HETATM   11  N   UNL     1      59.603   8.536   1.143  1.00  0.00    -0.078 N 
HETATM   12  H   UNL     1      59.458   7.964   0.311  1.00  0.00     0.274 HD
HETATM   13  H   UNL     1      60.005   9.434   0.871  1.00  0.00     0.274 HD
HETATM   14  H   UNL     1      58.710   8.691   1.610  1.00  0.00     0.274 HD
ENDBRANCH  10  11
ENDBRANCH   1  10
TORSDOF 3
ENDMDL
MODEL 4
REMARK VINA RESULT:      -4.3      1.798      3.775
REMARK  3 active torsions:
REMARK  status: ('A' for Active; 'I' for Inactive)
REMARK    1  A    between atoms: C_1  and  C_2 
REMARK    2  A    between atoms: C_1  and  C_4 
REMARK    3  A    between atoms: N_3  and  C_4 
ROOT
HETATM    1  C   UNL     1      61.965   8.914   3.013  1.00  0.00     0.003 C 
HETATM    2  C   UNL     1      60.722   8.049   3.346  1.00  0.00     0.021 C 
HETATM    3  C   UNL     1      62.007   9.025   1.467  1.00  0.00     0.021 C 
ENDROOT
BRANCH   1   4
HETATM    4  C   UNL     1      63.266   8.292   3.568  1.00  0.00    -0.049 A 
HETATM    5  C   UNL     1      63.789   7.092   3.051  1.00  0.00     0.008 A 
HETATM    6  C   UNL     1      64.961   6.526   3.559  1.00  0.00     0.001 A 
HETATM    7  C   UNL     1      65.639   7.137   4.604  1.00  0.00     0.000 A 
HETATM    8  C   UNL     1      65.134   8.311   5.154  1.00  0.00     0.001 A 
HETATM    9  C   UNL     1      63.961   8.876   4.647  1.00  0.00     0.008 A 
ENDBRANCH   1   4
BRANCH   1  10
HETATM   10  C   UNL     1      61.804  10.330   3.652  1.00  0.00     0.243 C 
BRANCH  10  11
HETATM   11  N   UNL     1      61.682  11.429   2.690  1.00  0.00    -0.078 N 
HETATM   12  H   UNL     1      61.810  12.319   3.172  1.00  0.00     0.274 HD
HETATM   13  H   UNL     1      60.757  11.405   2.261  1.00  0.00     0.274 HD
HETATM   14  H   UNL     1      62.395  11.329   1.967  1.00  0.00     0.274 HD
ENDBRANCH  10  11
ENDBRANCH   1  10
TORSDOF 3
ENDMDL
MODEL 5
REMARK VINA RESULT:      -4.2      2.279      3.960
REMARK  3 active torsions:
REMARK  status: ('A' for Active; 'I' for Inactive)
REMARK    1  A    between atoms: C_1  and  C_2 
REMARK    2  A    between atoms: C_1  and  C_4 
REMARK    3  A    between atoms: N_3  and  C_4 
ROOT
HETATM    1  C   UNL     1      62.011   9.241   3.168  1.00  0.00     0.003 C 
HETATM    2  C   UNL     1      62.024   9.521   1.643  1.00  0.00     0.021 C 
HETATM    3  C   UNL     1      61.944  10.627   3.858  1.00  0.00     0.021 C 
ENDROOT
BRANCH   1   4
HETATM    4  C   UNL     1      63.258   8.447   3.620  1.00  0.00    -0.049 A 
HETATM    5  C   UNL     1      63.620   7.233   3.006  1.00  0.00     0.008 A 
HETATM    6  C   UNL     1      64.743   6.511   3.419  1.00  0.00     0.001 A 
HETATM    7  C   UNL     1      65.531   6.976   4.463  1.00  0.00     0.000 A 
HETATM    8  C   UNL     1      65.184   8.159   5.107  1.00  0.00     0.001 A 
HETATM    9  C   UNL     1      64.060   8.881   4.695  1.00  0.00     0.008 A 
ENDBRANCH   1   4
BRANCH   1  10
HETATM   10  C   UNL     1      60.751   8.394   3.534  1.00  0.00     0.243 C 
BRANCH  10  11
HETATM   11  N   UNL     1      59.849   8.116   2.412  1.00  0.00    -0.078 N 
HETATM   12  H   UNL     1      59.767   7.107   2.284  1.00  0.00     0.274 HD
HETATM   13  H   UNL     1      60.225   8.537   1.562  1.00  0.00     0.274 HD
HETATM   14  H   UNL     1      58.929   8.510   2.610  1.00  0.00     0.274 HD
ENDBRANCH  10  11
ENDBRANCH   1  10
TORSDOF 3
ENDMDL
MODEL 6
REMARK VINA RESULT:      -4.2      2.311      3.171
REMARK  3 active torsions:
REMARK  status: ('A' for Active; 'I' for Inactive)
REMARK    1  A    between atoms: C_1  and  C_2 
REMARK    2  A    between atoms: C_1  and  C_4 
REMARK    3  A    between atoms: N_3  and  C_4 
ROOT
HETATM    1  C   UNL     1      62.689   7.708   4.261  1.00  0.00     0.003 C 
HETATM    2  C   UNL     1      61.417   6.842   4.451  1.00  0.00     0.021 C 
HETATM    3  C   UNL     1      63.233   7.988   5.685  1.00  0.00     0.021 C 
ENDROOT
BRANCH   1   4
HETATM    4  C   UNL     1      62.385   9.022   3.506  1.00  0.00    -0.049 A 
HETATM    5  C   UNL     1      62.192  10.236   4.190  1.00  0.00     0.008 A 
HETATM    6  C   UNL     1      61.909  11.424   3.508  1.00  0.00     0.001 A 
HETATM    7  C   UNL     1      61.803  11.428   2.123  1.00  0.00     0.000 A 
HETATM    8  C   UNL     1      61.963  10.238   1.421  1.00  0.00     0.001 A 
HETATM    9  C   UNL     1      62.245   9.051   2.104  1.00  0.00     0.008 A 
ENDBRANCH   1   4
BRANCH   1  10
HETATM   10  C   UNL     1      63.744   6.914   3.427  1.00  0.00     0.243 C 
BRANCH  10  11
HETATM   11  N   UNL     1      63.461   5.483   3.280  1.00  0.00    -0.078 N 
HETATM   12  H   UNL     1      62.452   5.336   3.254  1.00  0.00     0.274 HD
HETATM   13  H   UNL     1      63.858   4.974   4.071  1.00  0.00     0.274 HD
HETATM   14  H   UNL     1      63.877   5.142   2.413  1.00  0.00     0.274 HD
ENDBRANCH  10  11
ENDBRANCH   1  10
TORSDOF 3
ENDMDL
MODEL 7
REMARK VINA RESULT:      -4.1      2.695      3.941
REMARK  3 active torsions:
REMARK  status: ('A' for Active; 'I' for Inactive)
REMARK    1  A    between atoms: C_1  and  C_2 
REMARK    2  A    between atoms: C_1  and  C_4 
REMARK    3  A    between atoms: N_3  and  C_4 
ROOT
HETATM    1  C   UNL     1      62.713   7.281   2.699  1.00  0.00     0.003 C 
HETATM    2  C   UNL     1      61.675   6.405   3.447  1.00  0.00     0.021 C 
HETATM    3  C   UNL     1      64.093   6.924   3.308  1.00  0.00     0.021 C 
ENDROOT
BRANCH   1   4
HETATM    4  C   UNL     1      62.407   8.789   2.844  1.00  0.00    -0.049 A 
HETATM    5  C   UNL     1      62.091   9.587   1.728  1.00  0.00     0.008 A 
HETATM    6  C   UNL     1      61.821  10.952   1.858  1.00  0.00     0.001 A 
HETATM    7  C   UNL     1      61.869  11.561   3.105  1.00  0.00     0.000 A 
HETATM    8  C   UNL     1      62.203  10.804   4.223  1.00  0.00     0.001 A 
HETATM    9  C   UNL     1      62.474   9.439   4.093  1.00  0.00     0.008 A 
ENDBRANCH   1   4
BRANCH   1  10
HETATM   10  C   UNL     1      62.689   6.936   1.176  1.00  0.00     0.243 C 
BRANCH  10  11
HETATM   11  N   UNL     1      61.587   6.063   0.760  1.00  0.00    -0.078 N 
HETATM   12  H   UNL     1      61.435   5.346   1.470  1.00  0.00     0.274 HD
HETATM   13  H   UNL     1      61.824   5.617  -0.127  1.00  0.00     0.274 HD
HETATM   14  H   UNL     1      60.739   6.617   0.647  1.00  0.00     0.274 HD
ENDBRANCH  10  11
ENDBRANCH   1  10
TORSDOF 3
ENDMDL
MODEL 8
REMARK VINA RESULT:      -3.9      2.344      3.807
REMARK  3 active torsions:
REMARK  status: ('A' for Active; 'I' for Inactive)
REMARK    1  A    between atoms: C_1  and  C_2 
REMARK    2  A    between atoms: C_1  and  C_4 
REMARK    3  A    between atoms: N_3  and  C_4 
ROOT
HETATM    1  C   UNL     1      62.095   9.103   3.236  1.00  0.00     0.003 C 
HETATM    2  C   UNL     1      61.974  10.506   3.885  1.00  0.00     0.021 C 
HETATM    3  C   UNL     1      60.802   8.341   3.621  1.00  0.00     0.021 C 
ENDROOT
BRANCH   1   4
HETATM    4  C   UNL     1      63.357   8.351   3.718  1.00  0.00    -0.049 A 
HETATM    5  C   UNL     1      64.157   8.850   4.763  1.00  0.00     0.008 A 
HETATM    6  C   UNL     1      65.303   8.175   5.194  1.00  0.00     0.001 A 
HETATM    7  C   UNL     1      65.686   6.987   4.586  1.00  0.00     0.000 A 
HETATM    8  C   UNL     1      64.931   6.482   3.533  1.00  0.00     0.001 A 
HETATM    9  C   UNL     1      63.786   7.158   3.102  1.00  0.00     0.008 A 
ENDBRANCH   1   4
BRANCH   1  10
HETATM   10  C   UNL     1      62.194   9.250   1.684  1.00  0.00     0.243 C 
BRANCH  10  11
HETATM   11  N   UNL     1      61.046   8.720   0.942  1.00  0.00    -0.078 N 
HETATM   12  H   UNL     1      60.185   8.950   1.437  1.00  0.00     0.274 HD
HETATM   13  H   UNL     1      61.132   7.706   0.862  1.00  0.00     0.274 HD
HETATM   14  H   UNL     1      61.024   9.134   0.010  1.00  0.00     0.274 HD
ENDBRANCH  10  11
ENDBRANCH   1  10
TORSDOF 3
ENDMDL
MODEL 9
REMARK VINA RESULT:      -3.6     12.264     14.275
REMARK  3 active torsions:
REMARK  status: ('A' for Active; 'I' for Inactive)
REMARK    1  A    between atoms: C_1  and  C_2 
REMARK    2  A    between atoms: C_1  and  C_4 
REMARK    3  A    between atoms: N_3  and  C_4 
ROOT
HETATM    1  C   UNL     1      55.153   1.092  13.500  1.00  0.00     0.003 C 
HETATM    2  C   UNL     1      54.778   0.258  14.752  1.00  0.00     0.021 C 
HETATM    3  C   UNL     1      54.584   0.318  12.284  1.00  0.00     0.021 C 
ENDROOT
BRANCH   1   4
HETATM    4  C   UNL     1      56.680   1.293  13.377  1.00  0.00    -0.049 A 
HETATM    5  C   UNL     1      57.240   2.064  12.341  1.00  0.00     0.008 A 
HETATM    6  C   UNL     1      58.622   2.240  12.224  1.00  0.00     0.001 A 
HETATM    7  C   UNL     1      59.484   1.640  13.133  1.00  0.00     0.000 A 
HETATM    8  C   UNL     1      58.962   0.850  14.152  1.00  0.00     0.001 A 
HETATM    9  C   UNL     1      57.580   0.674  14.268  1.00  0.00     0.008 A 
ENDBRANCH   1   4
BRANCH   1  10
HETATM   10  C   UNL     1      54.495   2.505  13.597  1.00  0.00     0.243 C 
BRANCH  10  11
HETATM   11  N   UNL     1      54.863   3.276  14.788  1.00  0.00    -0.078 N 
HETATM   12  H   UNL     1      54.245   4.083  14.876  1.00  0.00     0.274 HD
HETATM   13  H   UNL     1      55.828   3.595  14.702  1.00  0.00     0.274 HD
HETATM   14  H   UNL     1      54.773   2.686  15.616  1.00  0.00     0.274 HD
ENDBRANCH  10  11
ENDBRANCH   1  10
TORSDOF 3
ENDMDL
