MODEL 1
REMARK VINA RESULT:      -4.7      0.000      0.000
REMARK  1 active torsions:
REMARK  status: ('A' for Active; 'I' for Inactive)
REMARK    1  A    between atoms: C_6  and  N_7 
ROOT
HETATM    1  C   UNL     1      62.349   9.626   3.328  1.00  0.00    -0.024 A 
HETATM    2  O   UNL     1      61.899  11.901   3.548  1.00  0.00    -0.382 OA
HETATM    3  C   UNL     1      62.058  10.111   2.065  1.00  0.00    -0.026 A 
HETATM    4  C   UNL     1      62.645   8.288   3.535  1.00  0.00     0.038 A 
HETATM    5  C   UNL     1      62.044   9.271   0.966  1.00  0.00     0.012 A 
HETATM    6  C   UNL     1      62.683   7.424   2.435  1.00  0.00     0.026 A 
HETATM    7  C   UNL     1      62.252  10.727   4.315  1.00  0.00     0.207 A 
HETATM    8  C   UNL     1      62.339   7.918   1.164  1.00  0.00     0.029 A 
HETATM    9  C   UNL     1      61.754  11.560   2.149  1.00  0.00     0.207 A 
ENDROOT
BRANCH   6  10
HETATM   10  N   UNL     1      62.831   6.045   2.635  1.00  0.00    -0.399 N 
HETATM   11  H   UNL     1      62.687   5.658   3.528  1.00  0.00     0.156 HD
HETATM   12  H   UNL     1      63.077   5.462   1.880  1.00  0.00     0.156 HD
ENDBRANCH   6  10
TORSDOF 1
ENDMDL
MODEL 2
REMARK VINA RESULT:      -4.7      2.645      3.660
REMARK  1 active torsions:
REMARK  status: ('A' for Active; 'I' for Inactive)
REMARK    1  A    between atoms: C_6  and  N_7 
ROOT
HETATM    1  C   UNL     1      62.857   8.943   3.463  1.00  0.00    -0.024 A 
HETATM    2  O   UNL     1      62.572   7.668   1.534  1.00  0.00    -0.382 OA
HETATM    3  C   UNL     1      62.148   9.716   2.560  1.00  0.00    -0.026 A 
HETATM    4  C   UNL     1      63.205   9.431   4.713  1.00  0.00     0.038 A 
HETATM    5  C   UNL     1      61.770  11.008   2.875  1.00  0.00     0.012 A 
HETATM    6  C   UNL     1      62.796  10.718   5.075  1.00  0.00     0.026 A 
HETATM    7  C   UNL     1      63.163   7.627   2.853  1.00  0.00     0.207 A 
HETATM    8  C   UNL     1      62.118  11.513   4.132  1.00  0.00     0.029 A 
HETATM    9  C   UNL     1      61.945   8.952   1.306  1.00  0.00     0.207 A 
ENDROOT
BRANCH   6  10
HETATM   10  N   UNL     1      63.261  11.290   6.267  1.00  0.00    -0.399 N 
HETATM   11  H   UNL     1      62.949  10.944   7.134  1.00  0.00     0.156 HD
HETATM   12  H   UNL     1      63.903  12.037   6.238  1.00  0.00     0.156 HD
ENDBRANCH   6  10
TORSDOF 1
ENDMDL
MODEL 3
REMARK VINA RESULT:      -4.7      0.840      2.048
REMARK  1 active torsions:
REMARK  status: ('A' for Active; 'I' for Inactive)
REMARK    1  A    between atoms: C_6  and  N_7 
ROOT
HETATM    1  C   UNL     1      62.054  10.118   2.141  1.00  0.00    -0.024 A 
HETATM    2  O   UNL     1      61.881  11.969   3.545  1.00  0.00    -0.382 OA
HETATM    3  C   UNL     1      62.354   9.691   3.423  1.00  0.00    -0.026 A 
HETATM    4  C   UNL     1      62.087   9.245   1.064  1.00  0.00     0.038 A 
HETATM    5  C   UNL     1      62.706   8.376   3.670  1.00  0.00     0.012 A 
HETATM    6  C   UNL     1      62.396   7.900   1.291  1.00  0.00     0.026 A 
HETATM    7  C   UNL     1      61.754  11.569   2.160  1.00  0.00     0.207 A 
HETATM    8  C   UNL     1      62.745   7.487   2.591  1.00  0.00     0.029 A 
HETATM    9  C   UNL     1      62.267  10.837   4.359  1.00  0.00     0.207 A 
ENDROOT
BRANCH   6  10
HETATM   10  N   UNL     1      62.583   7.033   0.207  1.00  0.00    -0.399 N 
HETATM   11  H   UNL     1      62.444   7.356  -0.712  1.00  0.00     0.156 HD
HETATM   12  H   UNL     1      62.856   6.100   0.364  1.00  0.00     0.156 HD
ENDBRANCH   6  10
TORSDOF 1
ENDMDL
MODEL 4
REMARK VINA RESULT:      -4.4      1.628      2.232
REMARK  1 active torsions:
REMARK  status: ('A' for Active; 'I' for Inactive)
REMARK    1  A    between atoms: C_6  and  N_7 
ROOT
HETATM    1  C   UNL     1      62.838   9.060   3.873  1.00  0.00    -0.024 A 
HETATM    2  O   UNL     1      63.108  10.074   5.954  1.00  0.00    -0.382 OA
HETATM    3  C   UNL     1      62.389  10.364   3.756  1.00  0.00    -0.026 A 
HETATM    4  C   UNL     1      62.792   8.183   2.801  1.00  0.00     0.038 A 
HETATM    5  C   UNL     1      61.871  10.833   2.563  1.00  0.00     0.012 A 
HETATM    6  C   UNL     1      62.315   8.643   1.569  1.00  0.00     0.026 A 
HETATM    7  C   UNL     1      63.299   8.818   5.261  1.00  0.00     0.207 A 
HETATM    8  C   UNL     1      61.817   9.956   1.475  1.00  0.00     0.029 A 
HETATM    9  C   UNL     1      62.531  11.055   5.060  1.00  0.00     0.207 A 
ENDROOT
BRANCH   6  10
HETATM   10  N   UNL     1      62.117   7.742   0.515  1.00  0.00    -0.399 N 
HETATM   11  H   UNL     1      61.527   7.982  -0.235  1.00  0.00     0.156 HD
HETATM   12  H   UNL     1      62.571   6.867   0.523  1.00  0.00     0.156 HD
ENDBRANCH   6  10
TORSDOF 1
ENDMDL
MODEL 5
REMARK VINA RESULT:      -4.3      2.570      3.705
REMARK  1 active torsions:
REMARK  status: ('A' for Active; 'I' for Inactive)
REMARK    1  A    between atoms: C_6  and  N_7 
ROOT
HETATM    1  C   UNL     1      62.182  10.152   3.109  1.00  0.00    -0.024 A 
HETATM    2  O   UNL     1      61.613   9.174   1.072  1.00  0.00    -0.382 OA
HETATM    3  C   UNL     1      62.781   8.904   3.071  1.00  0.00    -0.026 A 
HETATM    4  C   UNL     1      62.318  10.982   4.211  1.00  0.00     0.038 A 
HETATM    5  C   UNL     1      63.529   8.441   4.138  1.00  0.00     0.012 A 
HETATM    6  C   UNL     1      63.107  10.559   5.286  1.00  0.00     0.026 A 
HETATM    7  C   UNL     1      61.415  10.371   1.861  1.00  0.00     0.207 A 
HETATM    8  C   UNL     1      63.670   9.270   5.256  1.00  0.00     0.029 A 
HETATM    9  C   UNL     1      62.442   8.232   1.793  1.00  0.00     0.207 A 
ENDROOT
BRANCH   6  10
HETATM   10  N   UNL     1      63.137  11.309   6.468  1.00  0.00    -0.399 N 
HETATM   11  H   UNL     1      63.307  10.865   7.330  1.00  0.00     0.156 HD
HETATM   12  H   UNL     1      62.991  12.283   6.438  1.00  0.00     0.156 HD
ENDBRANCH   6  10
TORSDOF 1
ENDMDL
MODEL 6
REMARK VINA RESULT:      -4.3      2.141      2.916
REMARK  1 active torsions:
REMARK  status: ('A' for Active; 'I' for Inactive)
REMARK    1  A    between atoms: C_6  and  N_7 
ROOT
HETATM    1  C   UNL     1      62.703   9.605   4.240  1.00  0.00    -0.024 A 
HETATM    2  O   UNL     1      64.355   9.945   5.847  1.00  0.00    -0.382 OA
HETATM    3  C   UNL     1      63.608   8.564   4.126  1.00  0.00    -0.026 A 
HETATM    4  C   UNL     1      61.603   9.699   3.402  1.00  0.00     0.038 A 
HETATM    5  C   UNL     1      63.447   7.586   3.162  1.00  0.00     0.012 A 
HETATM    6  C   UNL     1      61.390   8.698   2.448  1.00  0.00     0.026 A 
HETATM    7  C   UNL     1      63.139  10.523   5.319  1.00  0.00     0.207 A 
HETATM    8  C   UNL     1      62.342   7.671   2.309  1.00  0.00     0.029 A 
HETATM    9  C   UNL     1      64.690   8.737   5.124  1.00  0.00     0.207 A 
ENDROOT
BRANCH   6  10
HETATM   10  N   UNL     1      60.376   8.847   1.494  1.00  0.00    -0.399 N 
HETATM   11  H   UNL     1      60.337   9.659   0.938  1.00  0.00     0.156 HD
HETATM   12  H   UNL     1      59.701   8.139   1.376  1.00  0.00     0.156 HD
ENDBRANCH   6  10
TORSDOF 1
ENDMDL
MODEL 7
REMARK VINA RESULT:      -4.2      1.609      1.978
REMARK  1 active torsions:
REMARK  status: ('A' for Active; 'I' for Inactive)
REMARK    1  A    between atoms: C_6  and  N_7 
ROOT
HETATM    1  C   UNL     1      63.244   9.547   4.719  1.00  0.00    -0.024 A 
HETATM    2  O   UNL     1      62.046  11.532   4.491  1.00  0.00    -0.382 OA
HETATM    3  C   UNL     1      62.611   9.505   3.489  1.00  0.00    -0.026 A 
HETATM    4  C   UNL     1      64.029   8.493   5.161  1.00  0.00     0.038 A 
HETATM    5  C   UNL     1      62.734   8.404   2.663  1.00  0.00     0.012 A 
HETATM    6  C   UNL     1      64.208   7.385   4.327  1.00  0.00     0.026 A 
HETATM    7  C   UNL     1      62.908  10.816   5.406  1.00  0.00     0.207 A 
HETATM    8  C   UNL     1      63.521   7.333   3.100  1.00  0.00     0.029 A 
HETATM    9  C   UNL     1      61.823  10.747   3.296  1.00  0.00     0.207 A 
ENDROOT
BRANCH   6  10
HETATM   10  N   UNL     1      64.869   6.248   4.808  1.00  0.00    -0.399 N 
HETATM   11  H   UNL     1      65.271   5.607   4.178  1.00  0.00     0.156 HD
HETATM   12  H   UNL     1      64.933   6.088   5.778  1.00  0.00     0.156 HD
ENDBRANCH   6  10
TORSDOF 1
ENDMDL
MODEL 8
REMARK VINA RESULT:      -4.1      2.692      3.587
REMARK  1 active torsions:
REMARK  status: ('A' for Active; 'I' for Inactive)
REMARK    1  A    between atoms: C_6  and  N_7 
ROOT
HETATM    1  C   UNL     1      62.837   8.726   3.807  1.00  0.00    -0.024 A 
HETATM    2  O   UNL     1      63.739   6.712   4.555  1.00  0.00    -0.382 OA
HETATM    3  C   UNL     1      62.867   7.863   2.726  1.00  0.00    -0.026 A 
HETATM    4  C   UNL     1      62.366  10.024   3.681  1.00  0.00     0.038 A 
HETATM    5  C   UNL     1      62.434   8.272   1.478  1.00  0.00     0.012 A 
HETATM    6  C   UNL     1      61.880  10.450   2.441  1.00  0.00     0.026 A 
HETATM    7  C   UNL     1      63.393   8.045   5.000  1.00  0.00     0.207 A 
HETATM    8  C   UNL     1      61.959   9.580   1.337  1.00  0.00     0.029 A 
HETATM    9  C   UNL     1      63.443   6.563   3.147  1.00  0.00     0.207 A 
ENDROOT
BRANCH   6  10
HETATM   10  N   UNL     1      61.540  11.796   2.248  1.00  0.00    -0.399 N 
HETATM   11  H   UNL     1      62.084  12.505   2.659  1.00  0.00     0.156 HD
HETATM   12  H   UNL     1      60.758  12.033   1.699  1.00  0.00     0.156 HD
ENDBRANCH   6  10
TORSDOF 1
ENDMDL
MODEL 9
REMARK VINA RESULT:      -4.1      1.987      3.080
REMARK  1 active torsions:
REMARK  status: ('A' for Active; 'I' for Inactive)
REMARK    1  A    between atoms: C_6  and  N_7 
ROOT
HETATM    1  C   UNL     1      62.660   8.721   2.949  1.00  0.00    -0.024 A 
HETATM    2  O   UNL     1      61.896   9.440   0.869  1.00  0.00    -0.382 OA
HETATM    3  C   UNL     1      62.255  10.036   3.092  1.00  0.00    -0.026 A 
HETATM    4  C   UNL     1      63.186   8.009   4.015  1.00  0.00     0.038 A 
HETATM    5  C   UNL     1      62.371  10.687   4.307  1.00  0.00     0.012 A 
HETATM    6  C   UNL     1      63.273   8.627   5.266  1.00  0.00     0.026 A 
HETATM    7  C   UNL     1      62.461   8.293   1.544  1.00  0.00     0.207 A 
HETATM    8  C   UNL     1      62.904   9.980   5.389  1.00  0.00     0.029 A 
HETATM    9  C   UNL     1      61.765  10.549   1.790  1.00  0.00     0.207 A 
ENDROOT
BRANCH   6  10
HETATM   10  N   UNL     1      63.937   7.984   6.319  1.00  0.00    -0.399 N 
HETATM   11  H   UNL     1      63.449   7.753   7.142  1.00  0.00     0.156 HD
HETATM   12  H   UNL     1      64.893   7.762   6.236  1.00  0.00     0.156 HD
ENDBRANCH   6  10
TORSDOF 1
ENDMDL
