MODEL 1
REMARK VINA RESULT:      -3.9      0.000      0.000
REMARK  1 active torsions:
REMARK  status: ('A' for Active; 'I' for Inactive)
REMARK    1  A    between atoms: C_1  and  C_6 
ROOT
HETATM    1  C   UNL     1      62.841   9.475   4.117  1.00  0.00     0.074 A 
HETATM    2  N   UNL     1      61.592  10.475   2.480  1.00  0.00    -0.309 N 
ATOM      3  HN  UNL     1      61.015  11.137   1.962  1.00  0.00     0.186 HD
HETATM    4  C   UNL     1      62.785   8.630   3.025  1.00  0.00     0.129 A 
HETATM    5  N   UNL     1      62.045   9.274   2.078  1.00  0.00    -0.307 N 
HETATM    6  C   UNL     1      62.079  10.595   3.718  1.00  0.00     0.127 A 
HETATM    7  C   UNL     1      61.743   8.811   0.745  1.00  0.00     0.177 C 
ENDROOT
BRANCH   1   8
HETATM    8  C   UNL     1      63.521   9.273   5.370  1.00  0.00     0.212 C 
HETATM    9  O   UNL     1      64.525   9.868   5.735  1.00  0.00    -0.644 OA
HETATM   10  O   UNL     1      62.965   8.331   6.165  1.00  0.00    -0.644 OA
ENDBRANCH   1   8
TORSDOF 1
ENDMDL
MODEL 2
REMARK VINA RESULT:      -3.8      1.670      1.977
REMARK  1 active torsions:
REMARK  status: ('A' for Active; 'I' for Inactive)
REMARK    1  A    between atoms: C_1  and  C_6 
ROOT
HETATM    1  C   UNL     1      62.328  10.062   3.475  1.00  0.00     0.074 A 
HETATM    2  N   UNL     1      61.919   9.505   1.293  1.00  0.00    -0.309 N 
ATOM      3  HN  UNL     1      61.651   9.548   0.310  1.00  0.00     0.186 HD
HETATM    4  C   UNL     1      62.638   8.728   3.293  1.00  0.00     0.129 A 
HETATM    5  N   UNL     1      62.390   8.450   1.981  1.00  0.00    -0.307 N 
HETATM    6  C   UNL     1      61.884  10.483   2.202  1.00  0.00     0.127 A 
HETATM    7  C   UNL     1      62.603   7.196   1.301  1.00  0.00     0.177 C 
ENDROOT
BRANCH   1   8
HETATM    8  C   UNL     1      62.437  10.850   4.675  1.00  0.00     0.212 C 
HETATM    9  O   UNL     1      62.946  10.478   5.723  1.00  0.00    -0.644 OA
HETATM   10  O   UNL     1      61.911  12.092   4.580  1.00  0.00    -0.644 OA
ENDBRANCH   1   8
TORSDOF 1
ENDMDL
MODEL 3
REMARK VINA RESULT:      -3.8      2.676      3.235
REMARK  1 active torsions:
REMARK  status: ('A' for Active; 'I' for Inactive)
REMARK    1  A    between atoms: C_1  and  C_6 
ROOT
HETATM    1  C   UNL     1      62.051   9.939   3.761  1.00  0.00     0.074 A 
HETATM    2  N   UNL     1      62.808   8.030   4.773  1.00  0.00    -0.309 N 
ATOM      3  HN  UNL     1      63.353   7.373   5.329  1.00  0.00     0.186 HD
HETATM    4  C   UNL     1      61.231   8.889   3.394  1.00  0.00     0.129 A 
HETATM    5  N   UNL     1      61.714   7.783   4.030  1.00  0.00    -0.307 N 
HETATM    6  C   UNL     1      63.009   9.341   4.609  1.00  0.00     0.127 A 
HETATM    7  C   UNL     1      61.166   6.449   3.994  1.00  0.00     0.177 C 
ENDROOT
BRANCH   1   8
HETATM    8  C   UNL     1      61.954  11.324   3.379  1.00  0.00     0.212 C 
HETATM    9  O   UNL     1      61.977  11.746   2.232  1.00  0.00    -0.644 OA
HETATM   10  O   UNL     1      61.839  12.184   4.416  1.00  0.00    -0.644 OA
ENDBRANCH   1   8
TORSDOF 1
ENDMDL
MODEL 4
REMARK VINA RESULT:      -3.8      3.064      3.794
REMARK  1 active torsions:
REMARK  status: ('A' for Active; 'I' for Inactive)
REMARK    1  A    between atoms: C_1  and  C_6 
ROOT
HETATM    1  C   UNL     1      62.323   9.990   3.720  1.00  0.00     0.074 A 
HETATM    2  N   UNL     1      63.006   9.808   5.897  1.00  0.00    -0.309 N 
ATOM      3  HN  UNL     1      63.312  10.029   6.845  1.00  0.00     0.186 HD
HETATM    4  C   UNL     1      62.406   8.650   4.047  1.00  0.00     0.129 A 
HETATM    5  N   UNL     1      62.802   8.596   5.351  1.00  0.00    -0.307 N 
HETATM    6  C   UNL     1      62.713  10.653   4.905  1.00  0.00     0.127 A 
HETATM    7  C   UNL     1      62.987   7.413   6.156  1.00  0.00     0.177 C 
ENDROOT
BRANCH   1   8
HETATM    8  C   UNL     1      61.926  10.583   2.469  1.00  0.00     0.212 C 
HETATM    9  O   UNL     1      61.605   9.966   1.464  1.00  0.00    -0.644 OA
HETATM   10  O   UNL     1      61.935  11.935   2.461  1.00  0.00    -0.644 OA
ENDBRANCH   1   8
TORSDOF 1
ENDMDL
MODEL 5
REMARK VINA RESULT:      -3.6      2.135      2.873
REMARK  1 active torsions:
REMARK  status: ('A' for Active; 'I' for Inactive)
REMARK    1  A    between atoms: C_1  and  C_6 
ROOT
HETATM    1  C   UNL     1      62.824   9.721   4.519  1.00  0.00     0.074 A 
HETATM    2  N   UNL     1      62.886   7.978   3.036  1.00  0.00    -0.309 N 
ATOM      3  HN  UNL     1      62.784   7.408   2.196  1.00  0.00     0.186 HD
HETATM    4  C   UNL     1      63.380   8.624   5.148  1.00  0.00     0.129 A 
HETATM    5  N   UNL     1      63.407   7.622   4.224  1.00  0.00    -0.307 N 
HETATM    6  C   UNL     1      62.534   9.254   3.217  1.00  0.00     0.127 A 
HETATM    7  C   UNL     1      63.940   6.292   4.396  1.00  0.00     0.177 C 
ENDROOT
BRANCH   1   8
HETATM    8  C   UNL     1      62.595  11.038   5.053  1.00  0.00     0.212 C 
HETATM    9  O   UNL     1      61.952  11.922   4.506  1.00  0.00    -0.644 OA
HETATM   10  O   UNL     1      63.168  11.262   6.257  1.00  0.00    -0.644 OA
ENDBRANCH   1   8
TORSDOF 1
ENDMDL
MODEL 6
REMARK VINA RESULT:      -3.6      1.545      2.070
REMARK  1 active torsions:
REMARK  status: ('A' for Active; 'I' for Inactive)
REMARK    1  A    between atoms: C_1  and  C_6 
ROOT
HETATM    1  C   UNL     1      62.526   8.839   4.776  1.00  0.00     0.074 A 
HETATM    2  N   UNL     1      61.153   9.197   2.980  1.00  0.00    -0.309 N 
ATOM      3  HN  UNL     1      60.458   9.072   2.244  1.00  0.00     0.186 HD
HETATM    4  C   UNL     1      62.758  10.111   4.289  1.00  0.00     0.129 A 
HETATM    5  N   UNL     1      61.911  10.279   3.233  1.00  0.00    -0.307 N 
HETATM    6  C   UNL     1      61.528   8.325   3.920  1.00  0.00     0.127 A 
HETATM    7  C   UNL     1      61.751  11.463   2.424  1.00  0.00     0.177 C 
ENDROOT
BRANCH   1   8
HETATM    8  C   UNL     1      63.146   8.186   5.900  1.00  0.00     0.212 C 
HETATM    9  O   UNL     1      62.551   7.646   6.821  1.00  0.00    -0.644 OA
HETATM   10  O   UNL     1      64.498   8.208   5.886  1.00  0.00    -0.644 OA
ENDBRANCH   1   8
TORSDOF 1
ENDMDL
MODEL 7
REMARK VINA RESULT:      -3.6      6.151      7.285
REMARK  1 active torsions:
REMARK  status: ('A' for Active; 'I' for Inactive)
REMARK    1  A    between atoms: C_1  and  C_6 
ROOT
HETATM    1  C   UNL     1      66.926   6.776   7.147  1.00  0.00     0.074 A 
HETATM    2  N   UNL     1      66.204   5.392   8.822  1.00  0.00    -0.309 N 
ATOM      3  HN  UNL     1      65.653   4.975   9.572  1.00  0.00     0.186 HD
HETATM    4  C   UNL     1      67.856   5.769   7.321  1.00  0.00     0.129 A 
HETATM    5  N   UNL     1      67.375   4.969   8.316  1.00  0.00    -0.307 N 
HETATM    6  C   UNL     1      65.932   6.489   8.109  1.00  0.00     0.127 A 
HETATM    7  C   UNL     1      67.974   3.759   8.825  1.00  0.00     0.177 C 
ENDROOT
BRANCH   1   8
HETATM    8  C   UNL     1      66.950   7.862   6.203  1.00  0.00     0.212 C 
HETATM    9  O   UNL     1      67.696   7.945   5.238  1.00  0.00    -0.644 OA
HETATM   10  O   UNL     1      66.060   8.848   6.459  1.00  0.00    -0.644 OA
ENDBRANCH   1   8
TORSDOF 1
ENDMDL
MODEL 8
REMARK VINA RESULT:      -3.5      4.938      6.230
REMARK  1 active torsions:
REMARK  status: ('A' for Active; 'I' for Inactive)
REMARK    1  A    between atoms: C_1  and  C_6 
ROOT
HETATM    1  C   UNL     1      65.996   7.583   6.111  1.00  0.00     0.074 A 
HETATM    2  N   UNL     1      68.074   6.818   6.694  1.00  0.00    -0.309 N 
ATOM      3  HN  UNL     1      69.075   6.626   6.701  1.00  0.00     0.186 HD
HETATM    4  C   UNL     1      65.884   6.838   7.269  1.00  0.00     0.129 A 
HETATM    5  N   UNL     1      67.144   6.418   7.580  1.00  0.00    -0.307 N 
HETATM    6  C   UNL     1      67.374   7.527   5.804  1.00  0.00     0.127 A 
HETATM    7  C   UNL     1      67.545   5.645   8.730  1.00  0.00     0.177 C 
ENDROOT
BRANCH   1   8
HETATM    8  C   UNL     1      64.959   8.267   5.384  1.00  0.00     0.212 C 
HETATM    9  O   UNL     1      64.254   7.769   4.518  1.00  0.00    -0.644 OA
HETATM   10  O   UNL     1      64.799   9.567   5.723  1.00  0.00    -0.644 OA
ENDBRANCH   1   8
TORSDOF 1
ENDMDL
MODEL 9
REMARK VINA RESULT:      -3.4      2.097      2.894
REMARK  1 active torsions:
REMARK  status: ('A' for Active; 'I' for Inactive)
REMARK    1  A    between atoms: C_1  and  C_6 
ROOT
HETATM    1  C   UNL     1      64.510   8.252   4.978  1.00  0.00     0.074 A 
HETATM    2  N   UNL     1      63.084   8.262   3.186  1.00  0.00    -0.309 N 
ATOM      3  HN  UNL     1      62.596   8.008   2.328  1.00  0.00     0.186 HD
HETATM    4  C   UNL     1      63.730   9.391   5.039  1.00  0.00     0.129 A 
HETATM    5  N   UNL     1      62.894   9.344   3.963  1.00  0.00    -0.307 N 
HETATM    6  C   UNL     1      64.066   7.600   3.806  1.00  0.00     0.127 A 
HETATM    7  C   UNL     1      61.862  10.291   3.620  1.00  0.00     0.177 C 
ENDROOT
BRANCH   1   8
HETATM    8  C   UNL     1      65.533   7.819   5.893  1.00  0.00     0.212 C 
HETATM    9  O   UNL     1      65.792   6.656   6.166  1.00  0.00    -0.644 OA
HETATM   10  O   UNL     1      66.227   8.823   6.475  1.00  0.00    -0.644 OA
ENDBRANCH   1   8
TORSDOF 1
ENDMDL
