MODEL 1
REMARK VINA RESULT:      -3.8      0.000      0.000
REMARK  4 active torsions:
REMARK  status: ('A' for Active; 'I' for Inactive)
REMARK    1  A    between atoms: N_1  and  C_5 
REMARK    2  A    between atoms: N_4  and  C_11 
REMARK    3  A    between atoms: C_5  and  C_10 
REMARK    4  A    between atoms: C_10  and  C_11 
ROOT
HETATM    1  C   UNL     1      63.092   9.109   4.891  1.00  0.00     0.140 C 
ENDROOT
BRANCH   1   2
HETATM    2  N   UNL     1      62.478   9.733   3.731  1.00  0.00    -0.366 N 
HETATM    3  C   UNL     1      62.082  11.043   3.663  1.00  0.00     0.090 A 
HETATM    4  C   UNL     1      61.719  11.315   2.361  1.00  0.00     0.019 A 
HETATM    5  C   UNL     1      61.900  10.125   1.619  1.00  0.00     0.019 A 
HETATM    6  C   UNL     1      62.364   9.161   2.489  1.00  0.00     0.090 A 
ENDBRANCH   1   2
BRANCH   1   7
HETATM    7  C   UNL     1      64.205   8.114   4.563  1.00  0.00     0.124 C 
BRANCH   7   8
HETATM    8  C   UNL     1      65.293   8.281   5.612  1.00  0.00    -0.076 C 
BRANCH   8   9
HETATM    9  N   UNL     1      66.196   8.419   6.480  1.00  0.00    -0.370 N 
ATOM     10  HN2 UNL     1      65.483   8.273   5.765  1.00  0.00     0.165 HD
ATOM     11  HN1 UNL     1      66.927   8.531   7.184  1.00  0.00     0.165 HD
ENDBRANCH   8   9
ENDBRANCH   7   8
ENDBRANCH   1   7
TORSDOF 4
ENDMDL
MODEL 2
REMARK VINA RESULT:      -3.8      2.163      3.032
REMARK  4 active torsions:
REMARK  status: ('A' for Active; 'I' for Inactive)
REMARK    1  A    between atoms: N_1  and  C_5 
REMARK    2  A    between atoms: N_4  and  C_11 
REMARK    3  A    between atoms: C_5  and  C_10 
REMARK    4  A    between atoms: C_10  and  C_11 
ROOT
HETATM    1  C   UNL     1      62.334   9.120   4.040  1.00  0.00     0.140 C 
ENDROOT
BRANCH   1   2
HETATM    2  N   UNL     1      62.447   8.680   2.660  1.00  0.00    -0.366 N 
HETATM    3  C   UNL     1      62.788   7.412   2.267  1.00  0.00     0.090 A 
HETATM    4  C   UNL     1      62.612   7.323   0.902  1.00  0.00     0.019 A 
HETATM    5  C   UNL     1      62.152   8.585   0.457  1.00  0.00     0.019 A 
HETATM    6  C   UNL     1      62.064   9.406   1.561  1.00  0.00     0.090 A 
ENDBRANCH   1   2
BRANCH   1   7
HETATM    7  C   UNL     1      62.114  10.622   4.212  1.00  0.00     0.124 C 
BRANCH   7   8
HETATM    8  C   UNL     1      62.950  11.076   5.399  1.00  0.00    -0.076 C 
BRANCH   8   9
HETATM    9  N   UNL     1      63.643  11.451   6.382  1.00  0.00    -0.370 N 
ATOM     10  HN2 UNL     1      63.072  11.186   5.580  1.00  0.00     0.165 HD
ATOM     11  HN1 UNL     1      64.204  11.754   7.179  1.00  0.00     0.165 HD
ENDBRANCH   8   9
ENDBRANCH   7   8
ENDBRANCH   1   7
TORSDOF 4
ENDMDL
MODEL 3
REMARK VINA RESULT:      -3.7      1.128      1.466
REMARK  4 active torsions:
REMARK  status: ('A' for Active; 'I' for Inactive)
REMARK    1  A    between atoms: N_1  and  C_5 
REMARK    2  A    between atoms: N_4  and  C_11 
REMARK    3  A    between atoms: C_5  and  C_10 
REMARK    4  A    between atoms: C_10  and  C_11 
ROOT
HETATM    1  C   UNL     1      63.836   8.051   5.214  1.00  0.00     0.140 C 
ENDROOT
BRANCH   1   2
HETATM    2  N   UNL     1      63.066   9.178   4.717  1.00  0.00    -0.366 N 
HETATM    3  C   UNL     1      62.922  10.377   5.366  1.00  0.00     0.090 A 
HETATM    4  C   UNL     1      62.286  11.254   4.514  1.00  0.00     0.019 A 
HETATM    5  C   UNL     1      62.035  10.557   3.308  1.00  0.00     0.019 A 
HETATM    6  C   UNL     1      62.521   9.276   3.461  1.00  0.00     0.090 A 
ENDBRANCH   1   2
BRANCH   1   7
HETATM    7  C   UNL     1      65.300   8.038   4.777  1.00  0.00     0.124 C 
BRANCH   7   8
HETATM    8  C   UNL     1      66.151   8.276   6.014  1.00  0.00    -0.076 C 
BRANCH   8   9
HETATM    9  N   UNL     1      66.856   8.474   7.040  1.00  0.00    -0.370 N 
ATOM     10  HN2 UNL     1      66.286   8.274   6.218  1.00  0.00     0.165 HD
ATOM     11  HN1 UNL     1      67.428   8.636   7.870  1.00  0.00     0.165 HD
ENDBRANCH   8   9
ENDBRANCH   7   8
ENDBRANCH   1   7
TORSDOF 4
ENDMDL
MODEL 4
REMARK VINA RESULT:      -3.6      2.042      4.434
REMARK  4 active torsions:
REMARK  status: ('A' for Active; 'I' for Inactive)
REMARK    1  A    between atoms: N_1  and  C_5 
REMARK    2  A    between atoms: N_4  and  C_11 
REMARK    3  A    between atoms: C_5  and  C_10 
REMARK    4  A    between atoms: C_10  and  C_11 
ROOT
HETATM    1  C   UNL     1      62.480   8.357   2.273  1.00  0.00     0.140 C 
ENDROOT
BRANCH   1   2
HETATM    2  N   UNL     1      62.615   9.382   3.293  1.00  0.00    -0.366 N 
HETATM    3  C   UNL     1      62.014  10.613   3.252  1.00  0.00     0.090 A 
HETATM    4  C   UNL     1      62.221  11.233   4.466  1.00  0.00     0.019 A 
HETATM    5  C   UNL     1      62.977  10.345   5.266  1.00  0.00     0.019 A 
HETATM    6  C   UNL     1      63.212   9.211   4.517  1.00  0.00     0.090 A 
ENDBRANCH   1   2
BRANCH   1   7
HETATM    7  C   UNL     1      61.901   8.850   0.947  1.00  0.00     0.124 C 
BRANCH   7   8
HETATM    8  C   UNL     1      60.416   8.524   0.945  1.00  0.00    -0.076 C 
BRANCH   8   9
HETATM    9  N   UNL     1      59.184   8.255   0.943  1.00  0.00    -0.370 N 
ATOM     10  HN2 UNL     1      60.174   8.504   0.919  1.00  0.00     0.165 HD
ATOM     11  HN1 UNL     1      58.188   8.036   0.942  1.00  0.00     0.165 HD
ENDBRANCH   8   9
ENDBRANCH   7   8
ENDBRANCH   1   7
TORSDOF 4
ENDMDL
MODEL 5
REMARK VINA RESULT:      -3.6      2.367      5.213
REMARK  4 active torsions:
REMARK  status: ('A' for Active; 'I' for Inactive)
REMARK    1  A    between atoms: N_1  and  C_5 
REMARK    2  A    between atoms: N_4  and  C_11 
REMARK    3  A    between atoms: C_5  and  C_10 
REMARK    4  A    between atoms: C_10  and  C_11 
ROOT
HETATM    1  C   UNL     1      64.731   8.408   4.662  1.00  0.00     0.140 C 
ENDROOT
BRANCH   1   2
HETATM    2  N   UNL     1      65.274   7.830   5.880  1.00  0.00    -0.366 N 
HETATM    3  C   UNL     1      64.702   6.801   6.583  1.00  0.00     0.090 A 
HETATM    4  C   UNL     1      65.587   6.407   7.563  1.00  0.00     0.019 A 
HETATM    5  C   UNL     1      66.732   7.230   7.450  1.00  0.00     0.019 A 
HETATM    6  C   UNL     1      66.511   8.105   6.407  1.00  0.00     0.090 A 
ENDBRANCH   1   2
BRANCH   1   7
HETATM    7  C   UNL     1      63.291   8.904   4.780  1.00  0.00     0.124 C 
BRANCH   7   8
HETATM    8  C   UNL     1      63.327  10.260   5.467  1.00  0.00    -0.076 C 
BRANCH   8   9
HETATM    9  N   UNL     1      63.357  11.384   6.036  1.00  0.00    -0.370 N 
ATOM     10  HN2 UNL     1      63.372  10.470   5.583  1.00  0.00     0.165 HD
ATOM     11  HN1 UNL     1      63.381  12.294   6.496  1.00  0.00     0.165 HD
ENDBRANCH   8   9
ENDBRANCH   7   8
ENDBRANCH   1   7
TORSDOF 4
ENDMDL
MODEL 6
REMARK VINA RESULT:      -3.6      1.601      4.432
REMARK  4 active torsions:
REMARK  status: ('A' for Active; 'I' for Inactive)
REMARK    1  A    between atoms: N_1  and  C_5 
REMARK    2  A    between atoms: N_4  and  C_11 
REMARK    3  A    between atoms: C_5  and  C_10 
REMARK    4  A    between atoms: C_10  and  C_11 
ROOT
HETATM    1  C   UNL     1      62.079   9.004   3.607  1.00  0.00     0.140 C 
ENDROOT
BRANCH   1   2
HETATM    2  N   UNL     1      63.386   8.511   4.008  1.00  0.00    -0.366 N 
HETATM    3  C   UNL     1      64.155   9.049   5.006  1.00  0.00     0.090 A 
HETATM    4  C   UNL     1      65.229   8.212   5.220  1.00  0.00     0.019 A 
HETATM    5  C   UNL     1      65.104   7.131   4.316  1.00  0.00     0.019 A 
HETATM    6  C   UNL     1      63.961   7.342   3.574  1.00  0.00     0.090 A 
ENDBRANCH   1   2
BRANCH   1   7
HETATM    7  C   UNL     1      61.951   9.327   2.118  1.00  0.00     0.124 C 
BRANCH   7   8
HETATM    8  C   UNL     1      61.875  10.840   1.982  1.00  0.00    -0.076 C 
BRANCH   8   9
HETATM    9  N   UNL     1      61.814  12.093   1.868  1.00  0.00    -0.370 N 
ATOM     10  HN2 UNL     1      61.901  11.082   1.974  1.00  0.00     0.165 HD
ATOM     11  HN1 UNL     1      61.763  13.108   1.776  1.00  0.00     0.165 HD
ENDBRANCH   8   9
ENDBRANCH   7   8
ENDBRANCH   1   7
TORSDOF 4
ENDMDL
MODEL 7
REMARK VINA RESULT:      -3.5      1.636      4.732
REMARK  4 active torsions:
REMARK  status: ('A' for Active; 'I' for Inactive)
REMARK    1  A    between atoms: N_1  and  C_5 
REMARK    2  A    between atoms: N_4  and  C_11 
REMARK    3  A    between atoms: C_5  and  C_10 
REMARK    4  A    between atoms: C_10  and  C_11 
ROOT
HETATM    1  C   UNL     1      62.817   8.672   3.301  1.00  0.00     0.140 C 
ENDROOT
BRANCH   1   2
HETATM    2  N   UNL     1      63.946   8.101   4.015  1.00  0.00    -0.366 N 
HETATM    3  C   UNL     1      64.606   6.956   3.652  1.00  0.00     0.090 A 
HETATM    4  C   UNL     1      65.723   6.833   4.450  1.00  0.00     0.019 A 
HETATM    5  C   UNL     1      65.735   7.942   5.328  1.00  0.00     0.019 A 
HETATM    6  C   UNL     1      64.624   8.707   5.043  1.00  0.00     0.090 A 
ENDBRANCH   1   2
BRANCH   1   7
HETATM    7  C   UNL     1      62.160   9.863   3.998  1.00  0.00     0.124 C 
BRANCH   7   8
HETATM    8  C   UNL     1      61.864  10.910   2.936  1.00  0.00    -0.076 C 
BRANCH   8   9
HETATM    9  N   UNL     1      61.618  11.779   2.057  1.00  0.00    -0.370 N 
ATOM     10  HN2 UNL     1      61.833  11.105   2.791  1.00  0.00     0.165 HD
ATOM     11  HN1 UNL     1      61.420  12.482   1.344  1.00  0.00     0.165 HD
ENDBRANCH   8   9
ENDBRANCH   7   8
ENDBRANCH   1   7
TORSDOF 4
ENDMDL
MODEL 8
REMARK VINA RESULT:      -3.4      2.627      3.873
REMARK  4 active torsions:
REMARK  status: ('A' for Active; 'I' for Inactive)
REMARK    1  A    between atoms: N_1  and  C_5 
REMARK    2  A    between atoms: N_4  and  C_11 
REMARK    3  A    between atoms: C_5  and  C_10 
REMARK    4  A    between atoms: C_10  and  C_11 
ROOT
HETATM    1  C   UNL     1      62.000   7.803   3.208  1.00  0.00     0.140 C 
ENDROOT
BRANCH   1   2
HETATM    2  N   UNL     1      61.849   9.229   2.975  1.00  0.00    -0.366 N 
HETATM    3  C   UNL     1      61.900  10.192   3.948  1.00  0.00     0.090 A 
HETATM    4  C   UNL     1      61.902  11.426   3.333  1.00  0.00     0.019 A 
HETATM    5  C   UNL     1      61.846  11.197   1.937  1.00  0.00     0.019 A 
HETATM    6  C   UNL     1      61.809   9.833   1.743  1.00  0.00     0.090 A 
ENDBRANCH   1   2
BRANCH   1   7
HETATM    7  C   UNL     1      60.892   7.176   4.053  1.00  0.00     0.124 C 
BRANCH   7   8
HETATM    8  C   UNL     1      59.563   7.531   3.406  1.00  0.00    -0.076 C 
BRANCH   8   9
HETATM    9  N   UNL     1      58.461   7.824   2.868  1.00  0.00    -0.370 N 
ATOM     10  HN2 UNL     1      59.335   7.590   3.340  1.00  0.00     0.165 HD
ATOM     11  HN1 UNL     1      57.569   8.062   2.433  1.00  0.00     0.165 HD
ENDBRANCH   8   9
ENDBRANCH   7   8
ENDBRANCH   1   7
TORSDOF 4
ENDMDL
MODEL 9
REMARK VINA RESULT:      -3.4      2.536      3.681
REMARK  4 active torsions:
REMARK  status: ('A' for Active; 'I' for Inactive)
REMARK    1  A    between atoms: N_1  and  C_5 
REMARK    2  A    between atoms: N_4  and  C_11 
REMARK    3  A    between atoms: C_5  and  C_10 
REMARK    4  A    between atoms: C_10  and  C_11 
ROOT
HETATM    1  C   UNL     1      62.600   9.174   3.689  1.00  0.00     0.140 C 
ENDROOT
BRANCH   1   2
HETATM    2  N   UNL     1      61.694   8.082   3.998  1.00  0.00    -0.366 N 
HETATM    3  C   UNL     1      61.887   7.159   4.993  1.00  0.00     0.090 A 
HETATM    4  C   UNL     1      60.742   6.400   5.104  1.00  0.00     0.019 A 
HETATM    5  C   UNL     1      59.826   6.879   4.137  1.00  0.00     0.019 A 
HETATM    6  C   UNL     1      60.440   7.914   3.464  1.00  0.00     0.090 A 
ENDBRANCH   1   2
BRANCH   1   7
HETATM    7  C   UNL     1      62.087  10.558   4.085  1.00  0.00     0.124 C 
BRANCH   7   8
HETATM    8  C   UNL     1      62.884  11.014   5.296  1.00  0.00    -0.076 C 
BRANCH   8   9
HETATM    9  N   UNL     1      63.546  11.393   6.300  1.00  0.00    -0.370 N 
ATOM     10  HN2 UNL     1      62.979  11.081   5.512  1.00  0.00     0.165 HD
ATOM     11  HN1 UNL     1      64.083  11.699   7.112  1.00  0.00     0.165 HD
ENDBRANCH   8   9
ENDBRANCH   7   8
ENDBRANCH   1   7
TORSDOF 4
ENDMDL
