MODEL 1
REMARK VINA RESULT:      -5.0      0.000      0.000
REMARK  3 active torsions:
REMARK  status: ('A' for Active; 'I' for Inactive)
REMARK    1  A    between atoms: C_1  and  C_4 
REMARK    2  A    between atoms: N_2  and  C_3 
REMARK    3  A    between atoms: C_4  and  O_10 
ROOT
HETATM    1  C   UNL     1      62.700   9.365   4.205  1.00  0.00     0.066 A 
HETATM    2  C   UNL     1      62.588   8.571   3.045  1.00  0.00     0.054 A 
HETATM    3  C   UNL     1      62.350  10.732   4.135  1.00  0.00     0.020 A 
HETATM    4  C   UNL     1      62.118   9.169   1.856  1.00  0.00     0.031 A 
HETATM    5  C   UNL     1      61.885  11.304   2.954  1.00  0.00     0.001 A 
HETATM    6  C   UNL     1      61.768  10.521   1.813  1.00  0.00     0.002 A 
ENDROOT
BRANCH   2   7
HETATM    7  N   UNL     1      62.909   7.179   2.996  1.00  0.00    -0.332 N 
HETATM    8  C   UNL     1      64.132   6.596   2.741  1.00  0.00     0.096 A 
HETATM    9  C   UNL     1      63.999   5.224   2.749  1.00  0.00     0.019 A 
HETATM   10  C   UNL     1      62.662   4.937   3.088  1.00  0.00     0.019 A 
HETATM   11  C   UNL     1      62.027   6.144   3.270  1.00  0.00     0.096 A 
ENDBRANCH   2   7
BRANCH   1  12
HETATM   12  C   UNL     1      63.325   8.917   5.478  1.00  0.00     0.295 C 
HETATM   13  O   UNL     1      62.766   8.265   6.341  1.00  0.00    -0.259 OA
BRANCH  12  14
HETATM   14  O   UNL     1      64.619   9.332   5.498  1.00  0.00    -0.322 OA
HETATM   15  C   UNL     1      65.598   8.298   5.629  1.00  0.00     0.213 C 
ENDBRANCH  12  14
ENDBRANCH   1  12
TORSDOF 3
ENDMDL
MODEL 2
REMARK VINA RESULT:      -4.7      2.304      3.634
REMARK  3 active torsions:
REMARK  status: ('A' for Active; 'I' for Inactive)
REMARK    1  A    between atoms: C_1  and  C_4 
REMARK    2  A    between atoms: N_2  and  C_3 
REMARK    3  A    between atoms: C_4  and  O_10 
ROOT
HETATM    1  C   UNL     1      62.398   8.916   2.408  1.00  0.00     0.066 A 
HETATM    2  C   UNL     1      62.588   9.214   3.773  1.00  0.00     0.054 A 
HETATM    3  C   UNL     1      61.952   9.937   1.539  1.00  0.00     0.020 A 
HETATM    4  C   UNL     1      62.336  10.528   4.222  1.00  0.00     0.031 A 
HETATM    5  C   UNL     1      61.712  11.229   2.000  1.00  0.00     0.001 A 
HETATM    6  C   UNL     1      61.905  11.525   3.342  1.00  0.00     0.002 A 
ENDROOT
BRANCH   2   7
HETATM    7  N   UNL     1      63.039   8.265   4.742  1.00  0.00    -0.332 N 
HETATM    8  C   UNL     1      62.287   7.357   5.457  1.00  0.00     0.096 A 
HETATM    9  C   UNL     1      63.107   6.656   6.316  1.00  0.00     0.019 A 
HETATM   10  C   UNL     1      64.425   7.092   6.083  1.00  0.00     0.019 A 
HETATM   11  C   UNL     1      64.363   8.046   5.093  1.00  0.00     0.096 A 
ENDBRANCH   2   7
BRANCH   1  12
HETATM   12  C   UNL     1      62.469   7.549   1.824  1.00  0.00     0.295 C 
HETATM   13  O   UNL     1      63.458   6.839   1.822  1.00  0.00    -0.259 OA
BRANCH  12  14
HETATM   14  O   UNL     1      61.247   7.226   1.325  1.00  0.00    -0.322 OA
HETATM   15  C   UNL     1      60.359   6.574   2.238  1.00  0.00     0.213 C 
ENDBRANCH  12  14
ENDBRANCH   1  12
TORSDOF 3
ENDMDL
MODEL 3
REMARK VINA RESULT:      -4.5      2.000      3.469
REMARK  3 active torsions:
REMARK  status: ('A' for Active; 'I' for Inactive)
REMARK    1  A    between atoms: C_1  and  C_4 
REMARK    2  A    between atoms: N_2  and  C_3 
REMARK    3  A    between atoms: C_4  and  O_10 
ROOT
HETATM    1  C   UNL     1      62.817   8.434   3.540  1.00  0.00     0.066 A 
HETATM    2  C   UNL     1      63.396   8.847   4.757  1.00  0.00     0.054 A 
HETATM    3  C   UNL     1      62.020   9.348   2.815  1.00  0.00     0.020 A 
HETATM    4  C   UNL     1      63.168  10.166   5.204  1.00  0.00     0.031 A 
HETATM    5  C   UNL     1      61.808  10.647   3.270  1.00  0.00     0.001 A 
HETATM    6  C   UNL     1      62.384  11.057   4.465  1.00  0.00     0.002 A 
ENDROOT
BRANCH   2   7
HETATM    7  N   UNL     1      64.222   8.013   5.572  1.00  0.00    -0.332 N 
HETATM    8  C   UNL     1      63.839   6.953   6.367  1.00  0.00     0.096 A 
HETATM    9  C   UNL     1      64.943   6.444   7.018  1.00  0.00     0.019 A 
HETATM   10  C   UNL     1      66.065   7.164   6.563  1.00  0.00     0.019 A 
HETATM   11  C   UNL     1      65.605   8.090   5.654  1.00  0.00     0.096 A 
ENDBRANCH   2   7
BRANCH   1  12
HETATM   12  C   UNL     1      62.837   7.038   3.025  1.00  0.00     0.295 C 
HETATM   13  O   UNL     1      61.907   6.255   3.091  1.00  0.00    -0.259 OA
BRANCH  12  14
HETATM   14  O   UNL     1      64.046   6.802   2.452  1.00  0.00    -0.322 OA
HETATM   15  C   UNL     1      64.735   5.638   2.919  1.00  0.00     0.213 C 
ENDBRANCH  12  14
ENDBRANCH   1  12
TORSDOF 3
ENDMDL
MODEL 4
REMARK VINA RESULT:      -4.5      2.183      4.745
REMARK  3 active torsions:
REMARK  status: ('A' for Active; 'I' for Inactive)
REMARK    1  A    between atoms: C_1  and  C_4 
REMARK    2  A    between atoms: N_2  and  C_3 
REMARK    3  A    between atoms: C_4  and  O_10 
ROOT
HETATM    1  C   UNL     1      63.688   7.051   6.051  1.00  0.00     0.066 A 
HETATM    2  C   UNL     1      64.174   8.135   5.293  1.00  0.00     0.054 A 
HETATM    3  C   UNL     1      64.611   6.177   6.667  1.00  0.00     0.020 A 
HETATM    4  C   UNL     1      65.570   8.316   5.185  1.00  0.00     0.031 A 
HETATM    5  C   UNL     1      65.985   6.373   6.553  1.00  0.00     0.001 A 
HETATM    6  C   UNL     1      66.465   7.445   5.812  1.00  0.00     0.002 A 
ENDROOT
BRANCH   2   7
HETATM    7  N   UNL     1      63.337   9.084   4.629  1.00  0.00    -0.332 N 
HETATM    8  C   UNL     1      62.774   8.991   3.374  1.00  0.00     0.096 A 
HETATM    9  C   UNL     1      62.067  10.143   3.100  1.00  0.00     0.019 A 
HETATM   10  C   UNL     1      62.133  10.956   4.248  1.00  0.00     0.019 A 
HETATM   11  C   UNL     1      62.881  10.273   5.180  1.00  0.00     0.096 A 
ENDBRANCH   2   7
BRANCH   1  12
HETATM   12  C   UNL     1      62.259   6.642   6.123  1.00  0.00     0.295 C 
HETATM   13  O   UNL     1      61.511   6.874   7.055  1.00  0.00    -0.259 OA
BRANCH  12  14
HETATM   14  O   UNL     1      61.932   6.001   4.970  1.00  0.00    -0.322 OA
HETATM   15  C   UNL     1      60.553   6.073   4.593  1.00  0.00     0.213 C 
ENDBRANCH  12  14
ENDBRANCH   1  12
TORSDOF 3
ENDMDL
MODEL 5
REMARK VINA RESULT:      -4.1      2.002      3.233
REMARK  3 active torsions:
REMARK  status: ('A' for Active; 'I' for Inactive)
REMARK    1  A    between atoms: C_1  and  C_4 
REMARK    2  A    between atoms: N_2  and  C_3 
REMARK    3  A    between atoms: C_4  and  O_10 
ROOT
HETATM    1  C   UNL     1      62.998   8.446   4.080  1.00  0.00     0.066 A 
HETATM    2  C   UNL     1      62.010   9.119   3.332  1.00  0.00     0.054 A 
HETATM    3  C   UNL     1      63.687   9.148   5.094  1.00  0.00     0.020 A 
HETATM    4  C   UNL     1      61.736  10.471   3.631  1.00  0.00     0.031 A 
HETATM    5  C   UNL     1      63.400  10.481   5.377  1.00  0.00     0.001 A 
HETATM    6  C   UNL     1      62.423  11.143   4.646  1.00  0.00     0.002 A 
ENDROOT
BRANCH   2   7
HETATM    7  N   UNL     1      61.248   8.511   2.287  1.00  0.00    -0.332 N 
HETATM    8  C   UNL     1      61.499   8.526   0.931  1.00  0.00     0.096 A 
HETATM    9  C   UNL     1      60.495   7.852   0.270  1.00  0.00     0.019 A 
HETATM   10  C   UNL     1      59.622   7.339   1.248  1.00  0.00     0.019 A 
HETATM   11  C   UNL     1      60.122   7.722   2.472  1.00  0.00     0.096 A 
ENDBRANCH   2   7
BRANCH   1  12
HETATM   12  C   UNL     1      63.504   7.080   3.776  1.00  0.00     0.295 C 
HETATM   13  O   UNL     1      64.161   6.780   2.796  1.00  0.00    -0.259 OA
BRANCH  12  14
HETATM   14  O   UNL     1      63.136   6.245   4.783  1.00  0.00    -0.322 OA
HETATM   15  C   UNL     1      62.139   5.275   4.448  1.00  0.00     0.213 C 
ENDBRANCH  12  14
ENDBRANCH   1  12
TORSDOF 3
ENDMDL
MODEL 6
REMARK VINA RESULT:      -4.0      2.123      4.518
REMARK  3 active torsions:
REMARK  status: ('A' for Active; 'I' for Inactive)
REMARK    1  A    between atoms: C_1  and  C_4 
REMARK    2  A    between atoms: N_2  and  C_3 
REMARK    3  A    between atoms: C_4  and  O_10 
ROOT
HETATM    1  C   UNL     1      62.243   7.133   4.967  1.00  0.00     0.066 A 
HETATM    2  C   UNL     1      63.016   8.180   4.426  1.00  0.00     0.054 A 
HETATM    3  C   UNL     1      62.793   6.336   5.996  1.00  0.00     0.020 A 
HETATM    4  C   UNL     1      64.311   8.404   4.941  1.00  0.00     0.031 A 
HETATM    5  C   UNL     1      64.072   6.574   6.494  1.00  0.00     0.001 A 
HETATM    6  C   UNL     1      64.831   7.610   5.966  1.00  0.00     0.002 A 
ENDROOT
BRANCH   2   7
HETATM    7  N   UNL     1      62.564   9.052   3.387  1.00  0.00    -0.332 N 
HETATM    8  C   UNL     1      62.159  10.366   3.496  1.00  0.00     0.096 A 
HETATM    9  C   UNL     1      61.762  10.828   2.259  1.00  0.00     0.019 A 
HETATM   10  C   UNL     1      61.989   9.792   1.334  1.00  0.00     0.019 A 
HETATM   11  C   UNL     1      62.513   8.732   2.039  1.00  0.00     0.096 A 
ENDBRANCH   2   7
BRANCH   1  12
HETATM   12  C   UNL     1      60.935   6.678   4.423  1.00  0.00     0.295 C 
HETATM   13  O   UNL     1      59.936   7.368   4.337  1.00  0.00    -0.259 OA
BRANCH  12  14
HETATM   14  O   UNL     1      61.058   5.388   4.016  1.00  0.00    -0.322 OA
HETATM   15  C   UNL     1      61.435   5.204   2.648  1.00  0.00     0.213 C 
ENDBRANCH  12  14
ENDBRANCH   1  12
TORSDOF 3
ENDMDL
MODEL 7
REMARK VINA RESULT:      -4.0      2.104      4.313
REMARK  3 active torsions:
REMARK  status: ('A' for Active; 'I' for Inactive)
REMARK    1  A    between atoms: C_1  and  C_4 
REMARK    2  A    between atoms: N_2  and  C_3 
REMARK    3  A    between atoms: C_4  and  O_10 
ROOT
HETATM    1  C   UNL     1      63.769   7.357   4.506  1.00  0.00     0.066 A 
HETATM    2  C   UNL     1      64.904   6.587   4.831  1.00  0.00     0.054 A 
HETATM    3  C   UNL     1      63.200   7.229   3.220  1.00  0.00     0.020 A 
HETATM    4  C   UNL     1      65.426   5.704   3.861  1.00  0.00     0.031 A 
HETATM    5  C   UNL     1      63.726   6.350   2.276  1.00  0.00     0.001 A 
HETATM    6  C   UNL     1      64.840   5.586   2.598  1.00  0.00     0.002 A 
ENDROOT
BRANCH   2   7
HETATM    7  N   UNL     1      65.562   6.629   6.099  1.00  0.00    -0.332 N 
HETATM    8  C   UNL     1      66.509   7.531   6.536  1.00  0.00     0.096 A 
HETATM    9  C   UNL     1      66.914   7.191   7.810  1.00  0.00     0.019 A 
HETATM   10  C   UNL     1      66.145   6.081   8.210  1.00  0.00     0.019 A 
HETATM   11  C   UNL     1      65.302   5.780   7.165  1.00  0.00     0.096 A 
ENDBRANCH   2   7
BRANCH   1  12
HETATM   12  C   UNL     1      63.208   8.437   5.361  1.00  0.00     0.295 C 
HETATM   13  O   UNL     1      62.797   8.288   6.497  1.00  0.00    -0.259 OA
BRANCH  12  14
HETATM   14  O   UNL     1      63.260   9.608   4.673  1.00  0.00    -0.322 OA
HETATM   15  C   UNL     1      62.944  10.782   5.427  1.00  0.00     0.213 C 
ENDBRANCH  12  14
ENDBRANCH   1  12
TORSDOF 3
ENDMDL
MODEL 8
REMARK VINA RESULT:      -4.0      2.107      3.338
REMARK  3 active torsions:
REMARK  status: ('A' for Active; 'I' for Inactive)
REMARK    1  A    between atoms: C_1  and  C_4 
REMARK    2  A    between atoms: N_2  and  C_3 
REMARK    3  A    between atoms: C_4  and  O_10 
ROOT
HETATM    1  C   UNL     1      62.060   7.284   4.587  1.00  0.00     0.066 A 
HETATM    2  C   UNL     1      63.156   7.632   3.771  1.00  0.00     0.054 A 
HETATM    3  C   UNL     1      60.750   7.488   4.100  1.00  0.00     0.020 A 
HETATM    4  C   UNL     1      62.903   8.163   2.488  1.00  0.00     0.031 A 
HETATM    5  C   UNL     1      60.521   8.010   2.829  1.00  0.00     0.001 A 
HETATM    6  C   UNL     1      61.599   8.347   2.022  1.00  0.00     0.002 A 
ENDROOT
BRANCH   2   7
HETATM    7  N   UNL     1      64.522   7.467   4.156  1.00  0.00    -0.332 N 
HETATM    8  C   UNL     1      65.401   6.478   3.767  1.00  0.00     0.096 A 
HETATM    9  C   UNL     1      66.612   6.665   4.400  1.00  0.00     0.019 A 
HETATM   10  C   UNL     1      66.509   7.848   5.157  1.00  0.00     0.019 A 
HETATM   11  C   UNL     1      65.238   8.339   4.963  1.00  0.00     0.096 A 
ENDBRANCH   2   7
BRANCH   1  12
HETATM   12  C   UNL     1      62.166   6.866   6.012  1.00  0.00     0.295 C 
HETATM   13  O   UNL     1      62.515   7.589   6.928  1.00  0.00    -0.259 OA
BRANCH  12  14
HETATM   14  O   UNL     1      61.784   5.567   6.114  1.00  0.00    -0.322 OA
HETATM   15  C   UNL     1      60.721   5.306   7.036  1.00  0.00     0.213 C 
ENDBRANCH  12  14
ENDBRANCH   1  12
TORSDOF 3
ENDMDL
MODEL 9
REMARK VINA RESULT:      -3.8      2.236      4.365
REMARK  3 active torsions:
REMARK  status: ('A' for Active; 'I' for Inactive)
REMARK    1  A    between atoms: C_1  and  C_4 
REMARK    2  A    between atoms: N_2  and  C_3 
REMARK    3  A    between atoms: C_4  and  O_10 
ROOT
HETATM    1  C   UNL     1      64.398   7.880   5.166  1.00  0.00     0.066 A 
HETATM    2  C   UNL     1      64.030   6.814   6.012  1.00  0.00     0.054 A 
HETATM    3  C   UNL     1      65.659   8.491   5.344  1.00  0.00     0.020 A 
HETATM    4  C   UNL     1      64.942   6.386   7.002  1.00  0.00     0.031 A 
HETATM    5  C   UNL     1      66.547   8.054   6.324  1.00  0.00     0.001 A 
HETATM    6  C   UNL     1      66.188   7.000   7.153  1.00  0.00     0.002 A 
ENDROOT
BRANCH   2   7
HETATM    7  N   UNL     1      62.785   6.117   5.924  1.00  0.00    -0.332 N 
HETATM    8  C   UNL     1      61.572   6.471   6.475  1.00  0.00     0.096 A 
HETATM    9  C   UNL     1      60.634   5.503   6.183  1.00  0.00     0.019 A 
HETATM   10  C   UNL     1      61.264   4.546   5.365  1.00  0.00     0.019 A 
HETATM   11  C   UNL     1      62.565   4.961   5.190  1.00  0.00     0.096 A 
ENDBRANCH   2   7
BRANCH   1  12
HETATM   12  C   UNL     1      63.487   8.539   4.192  1.00  0.00     0.295 C 
HETATM   13  O   UNL     1      63.271   8.145   3.061  1.00  0.00    -0.259 OA
BRANCH  12  14
HETATM   14  O   UNL     1      62.926   9.624   4.786  1.00  0.00    -0.322 OA
HETATM   15  C   UNL     1      62.082  10.420   3.949  1.00  0.00     0.213 C 
ENDBRANCH  12  14
ENDBRANCH   1  12
TORSDOF 3
ENDMDL
