MODEL 1
REMARK VINA RESULT:      -5.0      0.000      0.000
REMARK  1 active torsions:
REMARK  status: ('A' for Active; 'I' for Inactive)
REMARK    1  A    between atoms: N_1  and  C_2 
ROOT
HETATM    1  C   UNL     1      62.500   9.305   3.980  1.00  0.00     0.038 A 
HETATM    2  C   UNL     1      62.303  10.593   4.508  1.00  0.00     0.033 A 
HETATM    3  C   UNL     1      62.333   9.106   2.599  1.00  0.00     0.033 A 
HETATM    4  C   UNL     1      61.782  11.435   2.311  1.00  0.00     0.116 A 
HETATM    5  C   UNL     1      61.972  10.172   1.769  1.00  0.00     0.044 A 
HETATM    6  C   UNL     1      61.945  11.655   3.671  1.00  0.00     0.044 A 
HETATM    7  F   UNL     1      61.435  12.453   1.513  1.00  0.00    -0.206 F 
ENDROOT
BRANCH   1   8
HETATM    8  N   UNL     1      62.861   8.216   4.835  1.00  0.00    -0.333 N 
HETATM    9  C   UNL     1      64.119   7.944   5.343  1.00  0.00     0.096 A 
HETATM   10  C   UNL     1      64.065   6.815   6.130  1.00  0.00     0.019 A 
HETATM   11  C   UNL     1      62.734   6.360   6.112  1.00  0.00     0.019 A 
HETATM   12  C   UNL     1      62.017   7.229   5.318  1.00  0.00     0.096 A 
ENDBRANCH   1   8
TORSDOF 1
ENDMDL
MODEL 2
REMARK VINA RESULT:      -5.0      0.101      1.763
REMARK  1 active torsions:
REMARK  status: ('A' for Active; 'I' for Inactive)
REMARK    1  A    between atoms: N_1  and  C_2 
ROOT
HETATM    1  C   UNL     1      62.550   9.279   4.023  1.00  0.00     0.038 A 
HETATM    2  C   UNL     1      62.390   9.063   2.642  1.00  0.00     0.033 A 
HETATM    3  C   UNL     1      62.316  10.565   4.539  1.00  0.00     0.033 A 
HETATM    4  C   UNL     1      61.785  11.376   2.332  1.00  0.00     0.116 A 
HETATM    5  C   UNL     1      61.937  11.610   3.691  1.00  0.00     0.044 A 
HETATM    6  C   UNL     1      62.007  10.112   1.801  1.00  0.00     0.044 A 
HETATM    7  F   UNL     1      61.422  12.379   1.523  1.00  0.00    -0.206 F 
ENDROOT
BRANCH   1   8
HETATM    8  N   UNL     1      62.947   8.209   4.885  1.00  0.00    -0.333 N 
HETATM    9  C   UNL     1      62.139   7.199   5.378  1.00  0.00     0.096 A 
HETATM   10  C   UNL     1      62.886   6.353   6.167  1.00  0.00     0.019 A 
HETATM   11  C   UNL     1      64.202   6.848   6.175  1.00  0.00     0.019 A 
HETATM   12  C   UNL     1      64.218   7.979   5.387  1.00  0.00     0.096 A 
ENDBRANCH   1   8
TORSDOF 1
ENDMDL
MODEL 3
REMARK VINA RESULT:      -4.6      2.867      5.214
REMARK  1 active torsions:
REMARK  status: ('A' for Active; 'I' for Inactive)
REMARK    1  A    between atoms: N_1  and  C_2 
ROOT
HETATM    1  C   UNL     1      63.330   8.525   4.668  1.00  0.00     0.038 A 
HETATM    2  C   UNL     1      62.557   7.593   5.384  1.00  0.00     0.033 A 
HETATM    3  C   UNL     1      64.713   8.586   4.911  1.00  0.00     0.033 A 
HETATM    4  C   UNL     1      64.523   6.826   6.547  1.00  0.00     0.116 A 
HETATM    5  C   UNL     1      65.305   7.738   5.852  1.00  0.00     0.044 A 
HETATM    6  C   UNL     1      63.156   6.746   6.320  1.00  0.00     0.044 A 
HETATM    7  F   UNL     1      65.093   6.015   7.448  1.00  0.00    -0.206 F 
ENDROOT
BRANCH   1   8
HETATM    8  N   UNL     1      62.719   9.397   3.713  1.00  0.00    -0.333 N 
HETATM    9  C   UNL     1      62.442   9.109   2.388  1.00  0.00     0.096 A 
HETATM   10  C   UNL     1      61.844  10.200   1.794  1.00  0.00     0.019 A 
HETATM   11  C   UNL     1      61.748  11.204   2.773  1.00  0.00     0.019 A 
HETATM   12  C   UNL     1      62.285  10.694   3.936  1.00  0.00     0.096 A 
ENDBRANCH   1   8
TORSDOF 1
ENDMDL
MODEL 4
REMARK VINA RESULT:      -4.5      1.631      2.566
REMARK  1 active torsions:
REMARK  status: ('A' for Active; 'I' for Inactive)
REMARK    1  A    between atoms: N_1  and  C_2 
ROOT
HETATM    1  C   UNL     1      63.789   8.369   4.657  1.00  0.00     0.038 A 
HETATM    2  C   UNL     1      63.598   7.721   3.423  1.00  0.00     0.033 A 
HETATM    3  C   UNL     1      63.120   9.582   4.895  1.00  0.00     0.033 A 
HETATM    4  C   UNL     1      62.112   9.479   2.709  1.00  0.00     0.116 A 
HETATM    5  C   UNL     1      62.286  10.135   3.919  1.00  0.00     0.044 A 
HETATM    6  C   UNL     1      62.759   8.278   2.453  1.00  0.00     0.044 A 
HETATM    7  F   UNL     1      61.311  10.011   1.776  1.00  0.00    -0.206 F 
ENDROOT
BRANCH   1   8
HETATM    8  N   UNL     1      64.651   7.804   5.649  1.00  0.00    -0.333 N 
HETATM    9  C   UNL     1      65.965   8.160   5.903  1.00  0.00     0.096 A 
HETATM   10  C   UNL     1      66.457   7.396   6.938  1.00  0.00     0.019 A 
HETATM   11  C   UNL     1      65.425   6.531   7.343  1.00  0.00     0.019 A 
HETATM   12  C   UNL     1      64.333   6.798   6.545  1.00  0.00     0.096 A 
ENDBRANCH   1   8
TORSDOF 1
ENDMDL
MODEL 5
REMARK VINA RESULT:      -4.5      2.342      3.353
REMARK  1 active torsions:
REMARK  status: ('A' for Active; 'I' for Inactive)
REMARK    1  A    between atoms: N_1  and  C_2 
ROOT
HETATM    1  C   UNL     1      62.630   8.816   2.693  1.00  0.00     0.038 A 
HETATM    2  C   UNL     1      62.056   9.899   2.004  1.00  0.00     0.033 A 
HETATM    3  C   UNL     1      62.949   8.971   4.053  1.00  0.00     0.033 A 
HETATM    4  C   UNL     1      62.138  11.240   4.005  1.00  0.00     0.116 A 
HETATM    5  C   UNL     1      62.705  10.184   4.704  1.00  0.00     0.044 A 
HETATM    6  C   UNL     1      61.811  11.108   2.662  1.00  0.00     0.044 A 
HETATM    7  F   UNL     1      61.905  12.401   4.631  1.00  0.00    -0.206 F 
ENDROOT
BRANCH   1   8
HETATM    8  N   UNL     1      62.887   7.579   2.021  1.00  0.00    -0.333 N 
HETATM    9  C   UNL     1      62.446   7.215   0.760  1.00  0.00     0.096 A 
HETATM   10  C   UNL     1      62.904   5.952   0.458  1.00  0.00     0.019 A 
HETATM   11  C   UNL     1      63.652   5.507   1.562  1.00  0.00     0.019 A 
HETATM   12  C   UNL     1      63.630   6.514   2.503  1.00  0.00     0.096 A 
ENDBRANCH   1   8
TORSDOF 1
ENDMDL
MODEL 6
REMARK VINA RESULT:      -4.3      2.415      2.923
REMARK  1 active torsions:
REMARK  status: ('A' for Active; 'I' for Inactive)
REMARK    1  A    between atoms: N_1  and  C_2 
ROOT
HETATM    1  C   UNL     1      62.990   8.584   3.256  1.00  0.00     0.038 A 
HETATM    2  C   UNL     1      63.462   8.890   4.545  1.00  0.00     0.033 A 
HETATM    3  C   UNL     1      62.208   9.535   2.578  1.00  0.00     0.033 A 
HETATM    4  C   UNL     1      62.378  11.041   4.453  1.00  0.00     0.116 A 
HETATM    5  C   UNL     1      61.902  10.760   3.180  1.00  0.00     0.044 A 
HETATM    6  C   UNL     1      63.155  10.118   5.139  1.00  0.00     0.044 A 
HETATM    7  F   UNL     1      62.084  12.214   5.027  1.00  0.00    -0.206 F 
ENDROOT
BRANCH   1   8
HETATM    8  N   UNL     1      63.297   7.326   2.648  1.00  0.00    -0.333 N 
HETATM    9  C   UNL     1      64.229   6.401   3.085  1.00  0.00     0.096 A 
HETATM   10  C   UNL     1      64.230   5.313   2.241  1.00  0.00     0.019 A 
HETATM   11  C   UNL     1      63.275   5.563   1.240  1.00  0.00     0.019 A 
HETATM   12  C   UNL     1      62.717   6.795   1.508  1.00  0.00     0.096 A 
ENDBRANCH   1   8
TORSDOF 1
ENDMDL
MODEL 7
REMARK VINA RESULT:      -4.0      3.031      4.689
REMARK  1 active torsions:
REMARK  status: ('A' for Active; 'I' for Inactive)
REMARK    1  A    between atoms: N_1  and  C_2 
ROOT
HETATM    1  C   UNL     1      65.075   6.972   6.560  1.00  0.00     0.038 A 
HETATM    2  C   UNL     1      65.506   8.036   5.748  1.00  0.00     0.033 A 
HETATM    3  C   UNL     1      63.730   6.570   6.492  1.00  0.00     0.033 A 
HETATM    4  C   UNL     1      63.284   8.271   4.843  1.00  0.00     0.116 A 
HETATM    5  C   UNL     1      62.838   7.223   5.636  1.00  0.00     0.044 A 
HETATM    6  C   UNL     1      64.609   8.682   4.891  1.00  0.00     0.044 A 
HETATM    7  F   UNL     1      62.427   8.894   4.024  1.00  0.00    -0.206 F 
ENDROOT
BRANCH   1   8
HETATM    8  N   UNL     1      65.989   6.313   7.441  1.00  0.00    -0.333 N 
HETATM    9  C   UNL     1      66.159   4.947   7.586  1.00  0.00     0.096 A 
HETATM   10  C   UNL     1      67.137   4.702   8.526  1.00  0.00     0.019 A 
HETATM   11  C   UNL     1      67.590   5.949   8.988  1.00  0.00     0.019 A 
HETATM   12  C   UNL     1      66.878   6.918   8.314  1.00  0.00     0.096 A 
ENDBRANCH   1   8
TORSDOF 1
ENDMDL
MODEL 8
REMARK VINA RESULT:      -4.0      2.503      3.554
REMARK  1 active torsions:
REMARK  status: ('A' for Active; 'I' for Inactive)
REMARK    1  A    between atoms: N_1  and  C_2 
ROOT
HETATM    1  C   UNL     1      64.823   7.527   4.789  1.00  0.00     0.038 A 
HETATM    2  C   UNL     1      64.144   8.732   5.040  1.00  0.00     0.033 A 
HETATM    3  C   UNL     1      64.483   6.783   3.646  1.00  0.00     0.033 A 
HETATM    4  C   UNL     1      62.825   8.426   3.046  1.00  0.00     0.116 A 
HETATM    5  C   UNL     1      63.483   7.234   2.779  1.00  0.00     0.044 A 
HETATM    6  C   UNL     1      63.148   9.179   4.166  1.00  0.00     0.044 A 
HETATM    7  F   UNL     1      61.868   8.855   2.213  1.00  0.00    -0.206 F 
ENDROOT
BRANCH   1   8
HETATM    8  N   UNL     1      65.839   7.064   5.684  1.00  0.00    -0.333 N 
HETATM    9  C   UNL     1      65.725   6.906   7.054  1.00  0.00     0.096 A 
HETATM   10  C   UNL     1      66.915   6.433   7.564  1.00  0.00     0.019 A 
HETATM   11  C   UNL     1      67.804   6.295   6.484  1.00  0.00     0.019 A 
HETATM   12  C   UNL     1      67.128   6.684   5.347  1.00  0.00     0.096 A 
ENDBRANCH   1   8
TORSDOF 1
ENDMDL
MODEL 9
REMARK VINA RESULT:      -3.9      2.957      4.557
REMARK  1 active torsions:
REMARK  status: ('A' for Active; 'I' for Inactive)
REMARK    1  A    between atoms: N_1  and  C_2 
ROOT
HETATM    1  C   UNL     1      62.098   8.293   3.170  1.00  0.00     0.038 A 
HETATM    2  C   UNL     1      62.161   9.411   4.021  1.00  0.00     0.033 A 
HETATM    3  C   UNL     1      63.153   7.365   3.192  1.00  0.00     0.033 A 
HETATM    4  C   UNL     1      64.289   8.666   4.874  1.00  0.00     0.116 A 
HETATM    5  C   UNL     1      64.247   7.556   4.042  1.00  0.00     0.044 A 
HETATM    6  C   UNL     1      63.256   9.594   4.871  1.00  0.00     0.044 A 
HETATM    7  F   UNL     1      65.338   8.846   5.687  1.00  0.00    -0.206 F 
ENDROOT
BRANCH   1   8
HETATM    8  N   UNL     1      60.981   8.107   2.295  1.00  0.00    -0.333 N 
HETATM    9  C   UNL     1      59.774   7.507   2.610  1.00  0.00     0.096 A 
HETATM   10  C   UNL     1      58.950   7.522   1.506  1.00  0.00     0.019 A 
HETATM   11  C   UNL     1      59.661   8.147   0.466  1.00  0.00     0.019 A 
HETATM   12  C   UNL     1      60.896   8.496   0.969  1.00  0.00     0.096 A 
ENDBRANCH   1   8
TORSDOF 1
ENDMDL
