MODEL 1
REMARK VINA RESULT:      -4.5      0.000      0.000
REMARK  1 active torsions:
REMARK  status: ('A' for Active; 'I' for Inactive)
REMARK    1  A    between atoms: N_1  and  C_4 
ROOT
HETATM    1  C   UNL     1      63.134   8.569   4.693  1.00  0.00     0.053 A 
HETATM    2  N   UNL     1      65.007   7.923   6.097  1.00  0.00    -0.373 N 
ATOM      3  HN  UNL     1      65.965   8.073   6.415  1.00  0.00     0.164 HD
HETATM    4  C   UNL     1      64.434   8.725   5.165  1.00  0.00     0.117 A 
HETATM    5  C   UNL     1      64.252   6.918   6.584  1.00  0.00     0.088 A 
HETATM    6  C   UNL     1      62.381   7.518   5.228  1.00  0.00     0.033 A 
HETATM    7  C   UNL     1      62.948   6.678   6.186  1.00  0.00     0.019 A 
ENDROOT
BRANCH   1   8
HETATM    8  N   UNL     1      62.598   9.440   3.703  1.00  0.00    -0.332 N 
HETATM    9  C   UNL     1      62.202  10.755   3.882  1.00  0.00     0.096 A 
HETATM   10  C   UNL     1      61.752  11.265   2.683  1.00  0.00     0.019 A 
HETATM   11  C   UNL     1      61.861  10.238   1.726  1.00  0.00     0.019 A 
HETATM   12  C   UNL     1      62.380   9.137   2.370  1.00  0.00     0.096 A 
ENDBRANCH   1   8
TORSDOF 1
ENDMDL
MODEL 2
REMARK VINA RESULT:      -4.3      1.288      4.565
REMARK  1 active torsions:
REMARK  status: ('A' for Active; 'I' for Inactive)
REMARK    1  A    between atoms: N_1  and  C_4 
ROOT
HETATM    1  C   UNL     1      63.306   9.263   4.764  1.00  0.00     0.053 A 
HETATM    2  N   UNL     1      62.394  11.514   4.744  1.00  0.00    -0.373 N 
ATOM      3  HN  UNL     1      62.266  12.419   5.198  1.00  0.00     0.164 HD
HETATM    4  C   UNL     1      63.098  10.516   5.334  1.00  0.00     0.117 A 
HETATM    5  C   UNL     1      61.873  11.255   3.527  1.00  0.00     0.088 A 
HETATM    6  C   UNL     1      62.753   9.037   3.499  1.00  0.00     0.033 A 
HETATM    7  C   UNL     1      62.024  10.046   2.872  1.00  0.00     0.019 A 
ENDROOT
BRANCH   1   8
HETATM    8  N   UNL     1      64.045   8.255   5.446  1.00  0.00    -0.332 N 
HETATM    9  C   UNL     1      63.528   7.166   6.126  1.00  0.00     0.096 A 
HETATM   10  C   UNL     1      64.562   6.413   6.638  1.00  0.00     0.019 A 
HETATM   11  C   UNL     1      65.763   7.052   6.276  1.00  0.00     0.019 A 
HETATM   12  C   UNL     1      65.423   8.172   5.550  1.00  0.00     0.096 A 
ENDBRANCH   1   8
TORSDOF 1
ENDMDL
MODEL 3
REMARK VINA RESULT:      -4.3      0.831      1.831
REMARK  1 active torsions:
REMARK  status: ('A' for Active; 'I' for Inactive)
REMARK    1  A    between atoms: N_1  and  C_4 
ROOT
HETATM    1  C   UNL     1      63.336   8.520   4.671  1.00  0.00     0.053 A 
HETATM    2  N   UNL     1      63.098   6.762   6.329  1.00  0.00    -0.373 N 
ATOM      3  HN  UNL     1      62.508   6.106   6.842  1.00  0.00     0.164 HD
HETATM    4  C   UNL     1      62.582   7.605   5.401  1.00  0.00     0.117 A 
HETATM    5  C   UNL     1      64.428   6.831   6.544  1.00  0.00     0.088 A 
HETATM    6  C   UNL     1      64.713   8.556   4.919  1.00  0.00     0.033 A 
HETATM    7  C   UNL     1      65.267   7.701   5.871  1.00  0.00     0.019 A 
ENDROOT
BRANCH   1   8
HETATM    8  N   UNL     1      62.728   9.386   3.719  1.00  0.00    -0.332 N 
HETATM    9  C   UNL     1      62.469   9.104   2.389  1.00  0.00     0.096 A 
HETATM   10  C   UNL     1      61.859  10.191   1.801  1.00  0.00     0.019 A 
HETATM   11  C   UNL     1      61.738  11.187   2.788  1.00  0.00     0.019 A 
HETATM   12  C   UNL     1      62.273  10.674   3.949  1.00  0.00     0.096 A 
ENDBRANCH   1   8
TORSDOF 1
ENDMDL
MODEL 4
REMARK VINA RESULT:      -4.3      1.845      3.355
REMARK  1 active torsions:
REMARK  status: ('A' for Active; 'I' for Inactive)
REMARK    1  A    between atoms: N_1  and  C_4 
ROOT
HETATM    1  C   UNL     1      62.664   9.361   3.371  1.00  0.00     0.053 A 
HETATM    2  N   UNL     1      63.538   9.782   5.597  1.00  0.00    -0.373 N 
ATOM      3  HN  UNL     1      64.088   9.479   6.401  1.00  0.00     0.164 HD
HETATM    4  C   UNL     1      63.400   9.001   4.497  1.00  0.00     0.117 A 
HETATM    5  C   UNL     1      62.915  10.978   5.578  1.00  0.00     0.088 A 
HETATM    6  C   UNL     1      62.039  10.611   3.388  1.00  0.00     0.033 A 
HETATM    7  C   UNL     1      62.163  11.432   4.509  1.00  0.00     0.019 A 
ENDROOT
BRANCH   1   8
HETATM    8  N   UNL     1      62.550   8.486   2.253  1.00  0.00    -0.332 N 
HETATM    9  C   UNL     1      62.961   7.166   2.188  1.00  0.00     0.096 A 
HETATM   10  C   UNL     1      62.665   6.654   0.943  1.00  0.00     0.019 A 
HETATM   11  C   UNL     1      62.058   7.686   0.203  1.00  0.00     0.019 A 
HETATM   12  C   UNL     1      61.997   8.791   1.021  1.00  0.00     0.096 A 
ENDBRANCH   1   8
TORSDOF 1
ENDMDL
MODEL 5
REMARK VINA RESULT:      -4.2      1.125      4.593
REMARK  1 active torsions:
REMARK  status: ('A' for Active; 'I' for Inactive)
REMARK    1  A    between atoms: N_1  and  C_4 
ROOT
HETATM    1  C   UNL     1      62.440   9.122   3.743  1.00  0.00     0.053 A 
HETATM    2  N   UNL     1      61.789  11.396   3.190  1.00  0.00    -0.373 N 
ATOM      3  HN  UNL     1      61.561  12.345   3.486  1.00  0.00     0.164 HD
HETATM    4  C   UNL     1      62.120  10.433   4.087  1.00  0.00     0.117 A 
HETATM    5  C   UNL     1      61.775  11.038   1.890  1.00  0.00     0.088 A 
HETATM    6  C   UNL     1      62.421   8.794   2.384  1.00  0.00     0.033 A 
HETATM    7  C   UNL     1      62.081   9.765   1.443  1.00  0.00     0.019 A 
ENDROOT
BRANCH   1   8
HETATM    8  N   UNL     1      62.767   8.157   4.738  1.00  0.00    -0.332 N 
HETATM    9  C   UNL     1      61.939   7.164   5.232  1.00  0.00     0.096 A 
HETATM   10  C   UNL     1      62.623   6.423   6.172  1.00  0.00     0.019 A 
HETATM   11  C   UNL     1      63.915   6.972   6.276  1.00  0.00     0.019 A 
HETATM   12  C   UNL     1      63.980   8.027   5.392  1.00  0.00     0.096 A 
ENDBRANCH   1   8
TORSDOF 1
ENDMDL
MODEL 6
REMARK VINA RESULT:      -4.1      1.158      4.680
REMARK  1 active torsions:
REMARK  status: ('A' for Active; 'I' for Inactive)
REMARK    1  A    between atoms: N_1  and  C_4 
ROOT
HETATM    1  C   UNL     1      63.530   8.863   4.732  1.00  0.00     0.053 A 
HETATM    2  N   UNL     1      62.371   9.205   2.626  1.00  0.00    -0.373 N 
ATOM      3  HN  UNL     1      62.120   8.877   1.693  1.00  0.00     0.164 HD
HETATM    4  C   UNL     1      63.156   8.468   3.451  1.00  0.00     0.117 A 
HETATM    5  C   UNL     1      61.937  10.392   3.097  1.00  0.00     0.088 A 
HETATM    6  C   UNL     1      63.055  10.098   5.185  1.00  0.00     0.033 A 
HETATM    7  C   UNL     1      62.248  10.876   4.355  1.00  0.00     0.019 A 
ENDROOT
BRANCH   1   8
HETATM    8  N   UNL     1      64.369   8.045   5.541  1.00  0.00    -0.332 N 
HETATM    9  C   UNL     1      65.736   8.175   5.714  1.00  0.00     0.096 A 
HETATM   10  C   UNL     1      66.182   7.204   6.584  1.00  0.00     0.019 A 
HETATM   11  C   UNL     1      65.064   6.437   6.962  1.00  0.00     0.019 A 
HETATM   12  C   UNL     1      63.970   6.969   6.316  1.00  0.00     0.096 A 
ENDBRANCH   1   8
TORSDOF 1
ENDMDL
MODEL 7
REMARK VINA RESULT:      -4.0      2.692      4.640
REMARK  1 active torsions:
REMARK  status: ('A' for Active; 'I' for Inactive)
REMARK    1  A    between atoms: N_1  and  C_4 
ROOT
HETATM    1  C   UNL     1      65.833   6.362   7.282  1.00  0.00     0.053 A 
HETATM    2  N   UNL     1      66.382   4.184   8.206  1.00  0.00    -0.373 N 
ATOM      3  HN  UNL     1      66.203   3.181   8.268  1.00  0.00     0.164 HD
HETATM    4  C   UNL     1      65.637   4.989   7.408  1.00  0.00     0.117 A 
HETATM    5  C   UNL     1      67.369   4.770   8.912  1.00  0.00     0.088 A 
HETATM    6  C   UNL     1      66.872   6.930   8.027  1.00  0.00     0.033 A 
HETATM    7  C   UNL     1      67.650   6.124   8.856  1.00  0.00     0.019 A 
ENDROOT
BRANCH   1   8
HETATM    8  N   UNL     1      65.005   7.151   6.435  1.00  0.00    -0.332 N 
HETATM    9  C   UNL     1      63.632   7.051   6.289  1.00  0.00     0.096 A 
HETATM   10  C   UNL     1      63.196   7.998   5.389  1.00  0.00     0.019 A 
HETATM   11  C   UNL     1      64.329   8.709   4.950  1.00  0.00     0.019 A 
HETATM   12  C   UNL     1      65.419   8.176   5.601  1.00  0.00     0.096 A 
ENDBRANCH   1   8
TORSDOF 1
ENDMDL
MODEL 8
REMARK VINA RESULT:      -3.9      1.848      2.798
REMARK  1 active torsions:
REMARK  status: ('A' for Active; 'I' for Inactive)
REMARK    1  A    between atoms: N_1  and  C_4 
ROOT
HETATM    1  C   UNL     1      65.187   7.507   5.979  1.00  0.00     0.053 A 
HETATM    2  N   UNL     1      67.230   7.905   7.231  1.00  0.00    -0.373 N 
ATOM      3  HN  UNL     1      68.076   8.453   7.387  1.00  0.00     0.164 HD
HETATM    4  C   UNL     1      66.357   8.215   6.240  1.00  0.00     0.117 A 
HETATM    5  C   UNL     1      66.925   6.840   8.000  1.00  0.00     0.088 A 
HETATM    6  C   UNL     1      64.905   6.413   6.804  1.00  0.00     0.033 A 
HETATM    7  C   UNL     1      65.787   6.072   7.828  1.00  0.00     0.019 A 
ENDROOT
BRANCH   1   8
HETATM    8  N   UNL     1      64.320   7.880   4.913  1.00  0.00    -0.332 N 
HETATM    9  C   UNL     1      63.568   9.039   4.823  1.00  0.00     0.096 A 
HETATM   10  C   UNL     1      62.870   9.040   3.634  1.00  0.00     0.019 A 
HETATM   11  C   UNL     1      63.188   7.845   2.963  1.00  0.00     0.019 A 
HETATM   12  C   UNL     1      64.073   7.154   3.760  1.00  0.00     0.096 A 
ENDBRANCH   1   8
TORSDOF 1
ENDMDL
MODEL 9
REMARK VINA RESULT:      -3.8      2.479      6.012
REMARK  1 active torsions:
REMARK  status: ('A' for Active; 'I' for Inactive)
REMARK    1  A    between atoms: N_1  and  C_4 
ROOT
HETATM    1  C   UNL     1      65.191   7.146   6.394  1.00  0.00     0.053 A 
HETATM    2  N   UNL     1      62.814   7.264   5.913  1.00  0.00    -0.373 N 
ATOM      3  HN  UNL     1      61.867   6.912   6.053  1.00  0.00     0.164 HD
HETATM    4  C   UNL     1      63.878   6.709   6.545  1.00  0.00     0.117 A 
HETATM    5  C   UNL     1      63.066   8.303   5.091  1.00  0.00     0.088 A 
HETATM    6  C   UNL     1      65.410   8.230   5.537  1.00  0.00     0.033 A 
HETATM    7  C   UNL     1      64.333   8.816   4.874  1.00  0.00     0.019 A 
ENDROOT
BRANCH   1   8
HETATM    8  N   UNL     1      66.265   6.510   7.079  1.00  0.00    -0.332 N 
HETATM    9  C   UNL     1      67.182   5.623   6.540  1.00  0.00     0.096 A 
HETATM   10  C   UNL     1      68.075   5.238   7.517  1.00  0.00     0.019 A 
HETATM   11  C   UNL     1      67.702   5.895   8.704  1.00  0.00     0.019 A 
HETATM   12  C   UNL     1      66.598   6.665   8.413  1.00  0.00     0.096 A 
ENDBRANCH   1   8
TORSDOF 1
ENDMDL
