MODEL 1
REMARK VINA RESULT:      -5.4      0.000      0.000
REMARK  1 active torsions:
REMARK  status: ('A' for Active; 'I' for Inactive)
REMARK    1  A    between atoms: N_1  and  C_2 
ROOT
HETATM    1  C   UNL     1      62.812   9.078   3.741  1.00  0.00     0.059 A 
HETATM    2  N   UNL     1      63.164  11.383   6.481  1.00  0.00    -0.191 NA
HETATM    3  C   UNL     1      62.899  10.925   5.446  1.00  0.00     0.102 C 
HETATM    4  C   UNL     1      62.546  10.397   4.159  1.00  0.00     0.071 A 
HETATM    5  C   UNL     1      62.512   8.709   2.414  1.00  0.00     0.031 A 
HETATM    6  C   UNL     1      61.980  11.307   3.248  1.00  0.00     0.025 A 
HETATM    7  C   UNL     1      61.940   9.625   1.528  1.00  0.00     0.002 A 
HETATM    8  C   UNL     1      61.674  10.924   1.943  1.00  0.00     0.002 A 
ENDROOT
BRANCH   1   9
HETATM    9  N   UNL     1      63.383   8.089   4.601  1.00  0.00    -0.331 N 
HETATM   10  C   UNL     1      62.725   7.257   5.483  1.00  0.00     0.096 A 
HETATM   11  C   UNL     1      63.643   6.475   6.149  1.00  0.00     0.019 A 
HETATM   12  C   UNL     1      64.914   6.799   5.638  1.00  0.00     0.019 A 
HETATM   13  C   UNL     1      64.728   7.766   4.675  1.00  0.00     0.096 A 
ENDBRANCH   1   9
TORSDOF 1
ENDMDL
MODEL 2
REMARK VINA RESULT:      -4.9      1.274      2.913
REMARK  1 active torsions:
REMARK  status: ('A' for Active; 'I' for Inactive)
REMARK    1  A    between atoms: N_1  and  C_2 
ROOT
HETATM    1  C   UNL     1      63.221   9.155   4.481  1.00  0.00     0.059 A 
HETATM    2  N   UNL     1      63.197   6.575   1.973  1.00  0.00    -0.191 NA
HETATM    3  C   UNL     1      63.036   7.586   2.523  1.00  0.00     0.102 C 
HETATM    4  C   UNL     1      62.826   8.854   3.163  1.00  0.00     0.071 A 
HETATM    5  C   UNL     1      62.863  10.401   5.034  1.00  0.00     0.031 A 
HETATM    6  C   UNL     1      62.094   9.805   2.429  1.00  0.00     0.025 A 
HETATM    7  C   UNL     1      62.145  11.337   4.285  1.00  0.00     0.002 A 
HETATM    8  C   UNL     1      61.759  11.040   2.983  1.00  0.00     0.002 A 
ENDROOT
BRANCH   1   9
HETATM    9  N   UNL     1      63.968   8.248   5.296  1.00  0.00    -0.331 N 
HETATM   10  C   UNL     1      65.337   8.197   5.463  1.00  0.00     0.096 A 
HETATM   11  C   UNL     1      65.657   7.154   6.304  1.00  0.00     0.019 A 
HETATM   12  C   UNL     1      64.448   6.557   6.707  1.00  0.00     0.019 A 
HETATM   13  C   UNL     1      63.429   7.259   6.102  1.00  0.00     0.096 A 
ENDBRANCH   1   9
TORSDOF 1
ENDMDL
MODEL 3
REMARK VINA RESULT:      -4.7      1.541      4.377
REMARK  1 active torsions:
REMARK  status: ('A' for Active; 'I' for Inactive)
REMARK    1  A    between atoms: N_1  and  C_2 
ROOT
HETATM    1  C   UNL     1      61.912   7.860   4.352  1.00  0.00     0.059 A 
HETATM    2  N   UNL     1      65.080   9.134   5.485  1.00  0.00    -0.191 NA
HETATM    3  C   UNL     1      64.118   8.490   5.383  1.00  0.00     0.102 C 
HETATM    4  C   UNL     1      62.949   7.664   5.286  1.00  0.00     0.071 A 
HETATM    5  C   UNL     1      60.764   7.045   4.426  1.00  0.00     0.031 A 
HETATM    6  C   UNL     1      62.818   6.657   6.259  1.00  0.00     0.025 A 
HETATM    7  C   UNL     1      60.658   6.043   5.393  1.00  0.00     0.002 A 
HETATM    8  C   UNL     1      61.683   5.849   6.310  1.00  0.00     0.002 A 
ENDROOT
BRANCH   1   9
HETATM    9  N   UNL     1      61.964   8.857   3.329  1.00  0.00    -0.331 N 
HETATM   10  C   UNL     1      61.781  10.218   3.467  1.00  0.00     0.096 A 
HETATM   11  C   UNL     1      61.878  10.821   2.233  1.00  0.00     0.019 A 
HETATM   12  C   UNL     1      62.169   9.811   1.297  1.00  0.00     0.019 A 
HETATM   13  C   UNL     1      62.245   8.625   1.993  1.00  0.00     0.096 A 
ENDBRANCH   1   9
TORSDOF 1
ENDMDL
MODEL 4
REMARK VINA RESULT:      -4.7      1.964      2.688
REMARK  1 active torsions:
REMARK  status: ('A' for Active; 'I' for Inactive)
REMARK    1  A    between atoms: N_1  and  C_2 
ROOT
HETATM    1  C   UNL     1      62.365   8.659   2.852  1.00  0.00     0.059 A 
HETATM    2  N   UNL     1      63.097   8.088   6.328  1.00  0.00    -0.191 NA
HETATM    3  C   UNL     1      62.803   8.603   5.329  1.00  0.00     0.102 C 
HETATM    4  C   UNL     1      62.425   9.275   4.118  1.00  0.00     0.071 A 
HETATM    5  C   UNL     1      62.083   9.451   1.720  1.00  0.00     0.031 A 
HETATM    6  C   UNL     1      62.195  10.658   4.222  1.00  0.00     0.025 A 
HETATM    7  C   UNL     1      61.847  10.821   1.846  1.00  0.00     0.002 A 
HETATM    8  C   UNL     1      61.903  11.426   3.096  1.00  0.00     0.002 A 
ENDROOT
BRANCH   1   9
HETATM    9  N   UNL     1      62.583   7.260   2.656  1.00  0.00    -0.331 N 
HETATM   10  C   UNL     1      63.780   6.618   2.417  1.00  0.00     0.096 A 
HETATM   11  C   UNL     1      63.553   5.269   2.251  1.00  0.00     0.019 A 
HETATM   12  C   UNL     1      62.173   5.054   2.431  1.00  0.00     0.019 A 
HETATM   13  C   UNL     1      61.606   6.279   2.705  1.00  0.00     0.096 A 
ENDBRANCH   1   9
TORSDOF 1
ENDMDL
MODEL 5
REMARK VINA RESULT:      -4.6      1.424      4.822
REMARK  1 active torsions:
REMARK  status: ('A' for Active; 'I' for Inactive)
REMARK    1  A    between atoms: N_1  and  C_2 
ROOT
HETATM    1  C   UNL     1      64.314   8.162   5.297  1.00  0.00     0.059 A 
HETATM    2  N   UNL     1      61.420   6.523   6.667  1.00  0.00    -0.191 NA
HETATM    3  C   UNL     1      62.520   6.826   6.446  1.00  0.00     0.102 C 
HETATM    4  C   UNL     1      63.891   7.176   6.210  1.00  0.00     0.071 A 
HETATM    5  C   UNL     1      65.695   8.340   5.076  1.00  0.00     0.031 A 
HETATM    6  C   UNL     1      64.854   6.403   6.884  1.00  0.00     0.025 A 
HETATM    7  C   UNL     1      66.636   7.569   5.763  1.00  0.00     0.002 A 
HETATM    8  C   UNL     1      66.217   6.600   6.666  1.00  0.00     0.002 A 
ENDROOT
BRANCH   1   9
HETATM    9  N   UNL     1      63.405   8.994   4.573  1.00  0.00    -0.331 N 
HETATM   10  C   UNL     1      62.849   8.756   3.332  1.00  0.00     0.096 A 
HETATM   11  C   UNL     1      62.053   9.821   2.974  1.00  0.00     0.019 A 
HETATM   12  C   UNL     1      62.079  10.738   4.042  1.00  0.00     0.019 A 
HETATM   13  C   UNL     1      62.888  10.199   5.018  1.00  0.00     0.096 A 
ENDBRANCH   1   9
TORSDOF 1
ENDMDL
MODEL 6
REMARK VINA RESULT:      -4.5      1.973      4.092
REMARK  1 active torsions:
REMARK  status: ('A' for Active; 'I' for Inactive)
REMARK    1  A    between atoms: N_1  and  C_2 
ROOT
HETATM    1  C   UNL     1      62.595   8.006   3.315  1.00  0.00     0.059 A 
HETATM    2  N   UNL     1      61.708  11.410   4.070  1.00  0.00    -0.191 NA
HETATM    3  C   UNL     1      62.268  10.392   4.041  1.00  0.00     0.102 C 
HETATM    4  C   UNL     1      62.995   9.155   4.026  1.00  0.00     0.071 A 
HETATM    5  C   UNL     1      63.338   6.817   3.464  1.00  0.00     0.031 A 
HETATM    6  C   UNL     1      64.129   9.091   4.856  1.00  0.00     0.025 A 
HETATM    7  C   UNL     1      64.467   6.777   4.285  1.00  0.00     0.002 A 
HETATM    8  C   UNL     1      64.863   7.912   4.982  1.00  0.00     0.002 A 
ENDROOT
BRANCH   1   9
HETATM    9  N   UNL     1      61.459   7.984   2.447  1.00  0.00    -0.331 N 
HETATM   10  C   UNL     1      60.174   7.583   2.750  1.00  0.00     0.096 A 
HETATM   11  C   UNL     1      59.385   7.682   1.625  1.00  0.00     0.019 A 
HETATM   12  C   UNL     1      60.192   8.200   0.595  1.00  0.00     0.019 A 
HETATM   13  C   UNL     1      61.446   8.403   1.127  1.00  0.00     0.096 A 
ENDBRANCH   1   9
TORSDOF 1
ENDMDL
MODEL 7
REMARK VINA RESULT:      -4.3      1.854      3.207
REMARK  1 active torsions:
REMARK  status: ('A' for Active; 'I' for Inactive)
REMARK    1  A    between atoms: N_1  and  C_2 
ROOT
HETATM    1  C   UNL     1      62.876   8.751   3.876  1.00  0.00     0.059 A 
HETATM    2  N   UNL     1      61.603   8.355   0.535  1.00  0.00    -0.191 NA
HETATM    3  C   UNL     1      61.903   8.818   1.557  1.00  0.00     0.102 C 
HETATM    4  C   UNL     1      62.268   9.432   2.803  1.00  0.00     0.071 A 
HETATM    5  C   UNL     1      63.088   9.440   5.088  1.00  0.00     0.031 A 
HETATM    6  C   UNL     1      61.898  10.779   2.962  1.00  0.00     0.025 A 
HETATM    7  C   UNL     1      62.723  10.782   5.223  1.00  0.00     0.002 A 
HETATM    8  C   UNL     1      62.127  11.452   4.162  1.00  0.00     0.002 A 
ENDROOT
BRANCH   1   9
HETATM    9  N   UNL     1      63.285   7.384   3.800  1.00  0.00    -0.331 N 
HETATM   10  C   UNL     1      64.518   6.893   3.421  1.00  0.00     0.096 A 
HETATM   11  C   UNL     1      64.491   5.516   3.447  1.00  0.00     0.019 A 
HETATM   12  C   UNL     1      63.213   5.133   3.895  1.00  0.00     0.019 A 
HETATM   13  C   UNL     1      62.503   6.290   4.131  1.00  0.00     0.096 A 
ENDBRANCH   1   9
TORSDOF 1
ENDMDL
MODEL 8
REMARK VINA RESULT:      -4.1      2.041      4.908
REMARK  1 active torsions:
REMARK  status: ('A' for Active; 'I' for Inactive)
REMARK    1  A    between atoms: N_1  and  C_2 
ROOT
HETATM    1  C   UNL     1      62.068   8.066   4.408  1.00  0.00     0.059 A 
HETATM    2  N   UNL     1      58.799   7.215   3.170  1.00  0.00    -0.191 NA
HETATM    3  C   UNL     1      59.792   7.203   3.774  1.00  0.00     0.102 C 
HETATM    4  C   UNL     1      60.999   7.159   4.549  1.00  0.00     0.071 A 
HETATM    5  C   UNL     1      63.246   7.854   5.154  1.00  0.00     0.031 A 
HETATM    6  C   UNL     1      61.128   6.074   5.435  1.00  0.00     0.025 A 
HETATM    7  C   UNL     1      63.351   6.776   6.036  1.00  0.00     0.002 A 
HETATM    8  C   UNL     1      62.294   5.885   6.176  1.00  0.00     0.002 A 
ENDROOT
BRANCH   1   9
HETATM    9  N   UNL     1      62.020   9.196   3.535  1.00  0.00    -0.331 N 
HETATM   10  C   UNL     1      61.860  10.522   3.879  1.00  0.00     0.096 A 
HETATM   11  C   UNL     1      61.832  11.293   2.737  1.00  0.00     0.019 A 
HETATM   12  C   UNL     1      62.021  10.425   1.645  1.00  0.00     0.019 A 
HETATM   13  C   UNL     1      62.161   9.155   2.157  1.00  0.00     0.096 A 
ENDBRANCH   1   9
TORSDOF 1
ENDMDL
MODEL 9
REMARK VINA RESULT:      -4.1      2.383      3.434
REMARK  1 active torsions:
REMARK  status: ('A' for Active; 'I' for Inactive)
REMARK    1  A    between atoms: N_1  and  C_2 
ROOT
HETATM    1  C   UNL     1      64.620   6.921   3.926  1.00  0.00     0.059 A 
HETATM    2  N   UNL     1      66.366   8.609   6.580  1.00  0.00    -0.191 NA
HETATM    3  C   UNL     1      65.596   8.355   5.747  1.00  0.00     0.102 C 
HETATM    4  C   UNL     1      64.619   8.075   4.734  1.00  0.00     0.071 A 
HETATM    5  C   UNL     1      63.667   6.810   2.893  1.00  0.00     0.031 A 
HETATM    6  C   UNL     1      63.664   9.081   4.498  1.00  0.00     0.025 A 
HETATM    7  C   UNL     1      62.721   7.815   2.681  1.00  0.00     0.002 A 
HETATM    8  C   UNL     1      62.719   8.951   3.482  1.00  0.00     0.002 A 
ENDROOT
BRANCH   1   9
HETATM    9  N   UNL     1      65.551   5.850   4.099  1.00  0.00    -0.331 N 
HETATM   10  C   UNL     1      66.784   5.699   3.499  1.00  0.00     0.096 A 
HETATM   11  C   UNL     1      67.350   4.511   3.906  1.00  0.00     0.019 A 
HETATM   12  C   UNL     1      66.461   3.918   4.822  1.00  0.00     0.019 A 
HETATM   13  C   UNL     1      65.382   4.766   4.945  1.00  0.00     0.096 A 
ENDBRANCH   1   9
TORSDOF 1
ENDMDL
