MODEL 1
REMARK VINA RESULT:      -4.8      0.000      0.000
REMARK  4 active torsions:
REMARK  status: ('A' for Active; 'I' for Inactive)
REMARK    1  A    between atoms: C_1  and  C_5 
REMARK    2  A    between atoms: S_3  and  C_5 
REMARK    3  A    between atoms: S_3  and  C_7 
REMARK    4  A    between atoms: C_6  and  C_7 
ROOT
HETATM    1  C   UNL     1      62.820   8.734   3.463  1.00  0.00    -0.049 A 
HETATM    2  C   UNL     1      62.473   8.861   2.109  1.00  0.00     0.008 A 
HETATM    3  C   UNL     1      62.612   9.831   4.313  1.00  0.00     0.008 A 
HETATM    4  C   UNL     1      62.086  11.028   3.822  1.00  0.00     0.001 A 
HETATM    5  C   UNL     1      61.954  10.063   1.616  1.00  0.00     0.001 A 
HETATM    6  C   UNL     1      61.761  11.145   2.474  1.00  0.00     0.000 A 
ENDROOT
BRANCH   1   7
HETATM    7  C   UNL     1      63.317   7.428   4.032  1.00  0.00     0.112 C 
BRANCH   7   8
HETATM    8  S   UNL     1      63.296   7.304   5.848  1.00  0.00    -0.154 SA
BRANCH   8   9
HETATM    9  C   UNL     1      65.068   7.120   6.212  1.00  0.00     0.187 C 
BRANCH   9  10
HETATM   10  C   UNL     1      65.930   8.259   5.713  1.00  0.00     0.182 C 
HETATM   11  O   UNL     1      66.910   8.219   4.986  1.00  0.00    -0.647 OA
HETATM   12  O   UNL     1      65.491   9.450   6.177  1.00  0.00    -0.647 OA
ENDBRANCH   9  10
ENDBRANCH   8   9
ENDBRANCH   7   8
ENDBRANCH   1   7
TORSDOF 4
ENDMDL
MODEL 2
REMARK VINA RESULT:      -4.7      0.370      1.687
REMARK  4 active torsions:
REMARK  status: ('A' for Active; 'I' for Inactive)
REMARK    1  A    between atoms: C_1  and  C_5 
REMARK    2  A    between atoms: S_3  and  C_5 
REMARK    3  A    between atoms: S_3  and  C_7 
REMARK    4  A    between atoms: C_6  and  C_7 
ROOT
HETATM    1  C   UNL     1      62.719   8.817   3.541  1.00  0.00    -0.049 A 
HETATM    2  C   UNL     1      62.539   9.940   4.363  1.00  0.00     0.008 A 
HETATM    3  C   UNL     1      62.423   8.934   2.174  1.00  0.00     0.008 A 
HETATM    4  C   UNL     1      61.947  10.136   1.645  1.00  0.00     0.001 A 
HETATM    5  C   UNL     1      62.055  11.141   3.834  1.00  0.00     0.001 A 
HETATM    6  C   UNL     1      61.759  11.237   2.475  1.00  0.00     0.000 A 
ENDROOT
BRANCH   1   7
HETATM    7  C   UNL     1      63.304   7.533   4.074  1.00  0.00     0.112 C 
BRANCH   7   8
HETATM    8  S   UNL     1      63.004   7.208   5.841  1.00  0.00    -0.154 SA
BRANCH   8   9
HETATM    9  C   UNL     1      64.698   6.935   6.444  1.00  0.00     0.187 C 
BRANCH   9  10
HETATM   10  C   UNL     1      65.708   7.946   5.948  1.00  0.00     0.182 C 
HETATM   11  O   UNL     1      65.708   9.160   6.080  1.00  0.00    -0.647 OA
HETATM   12  O   UNL     1      66.717   7.347   5.277  1.00  0.00    -0.647 OA
ENDBRANCH   9  10
ENDBRANCH   8   9
ENDBRANCH   7   8
ENDBRANCH   1   7
TORSDOF 4
ENDMDL
MODEL 3
REMARK VINA RESULT:      -4.4      1.438      2.041
REMARK  4 active torsions:
REMARK  status: ('A' for Active; 'I' for Inactive)
REMARK    1  A    between atoms: C_1  and  C_5 
REMARK    2  A    between atoms: S_3  and  C_5 
REMARK    3  A    between atoms: S_3  and  C_7 
REMARK    4  A    between atoms: C_6  and  C_7 
ROOT
HETATM    1  C   UNL     1      63.025   8.674   3.952  1.00  0.00    -0.049 A 
HETATM    2  C   UNL     1      63.175   9.517   5.065  1.00  0.00     0.008 A 
HETATM    3  C   UNL     1      62.381   9.178   2.812  1.00  0.00     0.008 A 
HETATM    4  C   UNL     1      61.889  10.485   2.787  1.00  0.00     0.001 A 
HETATM    5  C   UNL     1      62.675  10.823   5.042  1.00  0.00     0.001 A 
HETATM    6  C   UNL     1      62.032  11.305   3.902  1.00  0.00     0.000 A 
ENDROOT
BRANCH   1   7
HETATM    7  C   UNL     1      63.615   7.286   3.928  1.00  0.00     0.112 C 
BRANCH   7   8
HETATM    8  S   UNL     1      65.379   7.175   4.368  1.00  0.00    -0.154 SA
BRANCH   8   9
HETATM    9  C   UNL     1      65.278   6.764   6.137  1.00  0.00     0.187 C 
BRANCH   9  10
HETATM   10  C   UNL     1      66.289   7.481   7.004  1.00  0.00     0.182 C 
HETATM   11  O   UNL     1      66.934   7.052   7.947  1.00  0.00    -0.647 OA
HETATM   12  O   UNL     1      66.444   8.768   6.620  1.00  0.00    -0.647 OA
ENDBRANCH   9  10
ENDBRANCH   8   9
ENDBRANCH   7   8
ENDBRANCH   1   7
TORSDOF 4
ENDMDL
MODEL 4
REMARK VINA RESULT:      -4.3      1.917      2.233
REMARK  4 active torsions:
REMARK  status: ('A' for Active; 'I' for Inactive)
REMARK    1  A    between atoms: C_1  and  C_5 
REMARK    2  A    between atoms: S_3  and  C_5 
REMARK    3  A    between atoms: S_3  and  C_7 
REMARK    4  A    between atoms: C_6  and  C_7 
ROOT
HETATM    1  C   UNL     1      62.627   8.843   3.155  1.00  0.00    -0.049 A 
HETATM    2  C   UNL     1      62.305   9.247   1.850  1.00  0.00     0.008 A 
HETATM    3  C   UNL     1      62.497   9.777   4.196  1.00  0.00     0.008 A 
HETATM    4  C   UNL     1      62.071  11.082   3.937  1.00  0.00     0.001 A 
HETATM    5  C   UNL     1      61.886  10.556   1.591  1.00  0.00     0.001 A 
HETATM    6  C   UNL     1      61.770  11.472   2.636  1.00  0.00     0.000 A 
ENDROOT
BRANCH   1   7
HETATM    7  C   UNL     1      63.015   7.420   3.469  1.00  0.00     0.112 C 
BRANCH   7   8
HETATM    8  S   UNL     1      61.658   6.341   4.028  1.00  0.00    -0.154 SA
BRANCH   8   9
HETATM    9  C   UNL     1      62.325   5.720   5.603  1.00  0.00     0.187 C 
BRANCH   9  10
HETATM   10  C   UNL     1      63.162   6.724   6.366  1.00  0.00     0.182 C 
HETATM   11  O   UNL     1      62.806   7.737   6.946  1.00  0.00    -0.647 OA
HETATM   12  O   UNL     1      64.469   6.383   6.358  1.00  0.00    -0.647 OA
ENDBRANCH   9  10
ENDBRANCH   8   9
ENDBRANCH   7   8
ENDBRANCH   1   7
TORSDOF 4
ENDMDL
MODEL 5
REMARK VINA RESULT:      -4.1      2.211      5.053
REMARK  4 active torsions:
REMARK  status: ('A' for Active; 'I' for Inactive)
REMARK    1  A    between atoms: C_1  and  C_5 
REMARK    2  A    between atoms: S_3  and  C_5 
REMARK    3  A    between atoms: S_3  and  C_7 
REMARK    4  A    between atoms: C_6  and  C_7 
ROOT
HETATM    1  C   UNL     1      65.163   7.267   4.298  1.00  0.00    -0.049 A 
HETATM    2  C   UNL     1      65.534   8.097   5.369  1.00  0.00     0.008 A 
HETATM    3  C   UNL     1      66.052   6.258   3.895  1.00  0.00     0.008 A 
HETATM    4  C   UNL     1      67.283   6.090   4.534  1.00  0.00     0.001 A 
HETATM    5  C   UNL     1      66.769   7.933   6.003  1.00  0.00     0.001 A 
HETATM    6  C   UNL     1      67.643   6.929   5.584  1.00  0.00     0.000 A 
ENDROOT
BRANCH   1   7
HETATM    7  C   UNL     1      63.810   7.380   3.643  1.00  0.00     0.112 C 
BRANCH   7   8
HETATM    8  S   UNL     1      62.514   8.171   4.650  1.00  0.00    -0.154 SA
BRANCH   8   9
HETATM    9  C   UNL     1      62.318   9.762   3.790  1.00  0.00     0.187 C 
BRANCH   9  10
HETATM   10  C   UNL     1      62.400  10.973   4.692  1.00  0.00     0.182 C 
HETATM   11  O   UNL     1      61.956  12.096   4.512  1.00  0.00    -0.647 OA
HETATM   12  O   UNL     1      63.070  10.695   5.832  1.00  0.00    -0.647 OA
ENDBRANCH   9  10
ENDBRANCH   8   9
ENDBRANCH   7   8
ENDBRANCH   1   7
TORSDOF 4
ENDMDL
MODEL 6
REMARK VINA RESULT:      -4.0      3.094      3.855
REMARK  4 active torsions:
REMARK  status: ('A' for Active; 'I' for Inactive)
REMARK    1  A    between atoms: C_1  and  C_5 
REMARK    2  A    between atoms: S_3  and  C_5 
REMARK    3  A    between atoms: S_3  and  C_7 
REMARK    4  A    between atoms: C_6  and  C_7 
ROOT
HETATM    1  C   UNL     1      62.755   8.752   3.566  1.00  0.00    -0.049 A 
HETATM    2  C   UNL     1      62.497   9.956   4.241  1.00  0.00     0.008 A 
HETATM    3  C   UNL     1      62.520   8.697   2.183  1.00  0.00     0.008 A 
HETATM    4  C   UNL     1      62.028   9.809   1.495  1.00  0.00     0.001 A 
HETATM    5  C   UNL     1      61.998  11.066   3.553  1.00  0.00     0.001 A 
HETATM    6  C   UNL     1      61.764  10.991   2.180  1.00  0.00     0.000 A 
ENDROOT
BRANCH   1   7
HETATM    7  C   UNL     1      63.358   7.564   4.273  1.00  0.00     0.112 C 
BRANCH   7   8
HETATM    8  S   UNL     1      62.831   7.328   6.000  1.00  0.00    -0.154 SA
BRANCH   8   9
HETATM    9  C   UNL     1      61.233   6.489   5.771  1.00  0.00     0.187 C 
BRANCH   9  10
HETATM   10  C   UNL     1      60.705   5.802   7.011  1.00  0.00     0.182 C 
HETATM   11  O   UNL     1      59.982   6.248   7.887  1.00  0.00    -0.647 OA
HETATM   12  O   UNL     1      61.138   4.524   7.089  1.00  0.00    -0.647 OA
ENDBRANCH   9  10
ENDBRANCH   8   9
ENDBRANCH   7   8
ENDBRANCH   1   7
TORSDOF 4
ENDMDL
MODEL 7
REMARK VINA RESULT:      -4.0      3.993      5.280
REMARK  4 active torsions:
REMARK  status: ('A' for Active; 'I' for Inactive)
REMARK    1  A    between atoms: C_1  and  C_5 
REMARK    2  A    between atoms: S_3  and  C_5 
REMARK    3  A    between atoms: S_3  and  C_7 
REMARK    4  A    between atoms: C_6  and  C_7 
ROOT
HETATM    1  C   UNL     1      62.160   9.694   2.632  1.00  0.00    -0.049 A 
HETATM    2  C   UNL     1      62.861   8.705   3.342  1.00  0.00     0.008 A 
HETATM    3  C   UNL     1      61.917  10.924   3.263  1.00  0.00     0.008 A 
HETATM    4  C   UNL     1      62.349  11.156   4.571  1.00  0.00     0.001 A 
HETATM    5  C   UNL     1      63.286   8.935   4.654  1.00  0.00     0.001 A 
HETATM    6  C   UNL     1      63.029  10.161   5.267  1.00  0.00     0.000 A 
ENDROOT
BRANCH   1   7
HETATM    7  C   UNL     1      61.752   9.494   1.194  1.00  0.00     0.112 C 
BRANCH   7   8
HETATM    8  S   UNL     1      62.097   7.846   0.502  1.00  0.00    -0.154 SA
BRANCH   8   9
HETATM    9  C   UNL     1      60.413   7.228   0.201  1.00  0.00     0.187 C 
BRANCH   9  10
HETATM   10  C   UNL     1      59.469   7.390   1.372  1.00  0.00     0.182 C 
HETATM   11  O   UNL     1      59.605   7.013   2.525  1.00  0.00    -0.647 OA
HETATM   12  O   UNL     1      58.347   8.053   1.014  1.00  0.00    -0.647 OA
ENDBRANCH   9  10
ENDBRANCH   8   9
ENDBRANCH   7   8
ENDBRANCH   1   7
TORSDOF 4
ENDMDL
MODEL 8
REMARK VINA RESULT:      -3.8      3.735      4.273
REMARK  4 active torsions:
REMARK  status: ('A' for Active; 'I' for Inactive)
REMARK    1  A    between atoms: C_1  and  C_5 
REMARK    2  A    between atoms: S_3  and  C_5 
REMARK    3  A    between atoms: S_3  and  C_7 
REMARK    4  A    between atoms: C_6  and  C_7 
ROOT
HETATM    1  C   UNL     1      61.977   8.604   3.395  1.00  0.00    -0.049 A 
HETATM    2  C   UNL     1      61.997   8.557   1.992  1.00  0.00     0.008 A 
HETATM    3  C   UNL     1      61.930   9.860   4.021  1.00  0.00     0.008 A 
HETATM    4  C   UNL     1      61.919  11.036   3.268  1.00  0.00     0.001 A 
HETATM    5  C   UNL     1      61.993   9.735   1.239  1.00  0.00     0.001 A 
HETATM    6  C   UNL     1      61.954  10.974   1.878  1.00  0.00     0.000 A 
ENDROOT
BRANCH   1   7
HETATM    7  C   UNL     1      61.912   7.348   4.227  1.00  0.00     0.112 C 
BRANCH   7   8
HETATM    8  S   UNL     1      60.307   6.486   4.223  1.00  0.00    -0.154 SA
BRANCH   8   9
HETATM    9  C   UNL     1      60.423   5.515   5.757  1.00  0.00     0.187 C 
BRANCH   9  10
HETATM   10  C   UNL     1      59.404   5.888   6.811  1.00  0.00     0.182 C 
HETATM   11  O   UNL     1      58.190   5.972   6.710  1.00  0.00    -0.647 OA
HETATM   12  O   UNL     1      59.995   6.150   7.997  1.00  0.00    -0.647 OA
ENDBRANCH   9  10
ENDBRANCH   8   9
ENDBRANCH   7   8
ENDBRANCH   1   7
TORSDOF 4
ENDMDL
MODEL 9
REMARK VINA RESULT:      -3.7     12.761     14.215
REMARK  4 active torsions:
REMARK  status: ('A' for Active; 'I' for Inactive)
REMARK    1  A    between atoms: C_1  and  C_5 
REMARK    2  A    between atoms: S_3  and  C_5 
REMARK    3  A    between atoms: S_3  and  C_7 
REMARK    4  A    between atoms: C_6  and  C_7 
ROOT
HETATM    1  C   UNL     1      56.657   1.291  12.884  1.00  0.00    -0.049 A 
HETATM    2  C   UNL     1      57.188   0.654  14.018  1.00  0.00     0.008 A 
HETATM    3  C   UNL     1      57.519   2.055  12.081  1.00  0.00     0.008 A 
HETATM    4  C   UNL     1      58.870   2.190  12.408  1.00  0.00     0.001 A 
HETATM    5  C   UNL     1      58.539   0.797  14.348  1.00  0.00     0.001 A 
HETATM    6  C   UNL     1      59.379   1.565  13.542  1.00  0.00     0.000 A 
ENDROOT
BRANCH   1   7
HETATM    7  C   UNL     1      55.220   1.097  12.470  1.00  0.00     0.112 C 
BRANCH   7   8
HETATM    8  S   UNL     1      53.974   1.604  13.697  1.00  0.00    -0.154 SA
BRANCH   8   9
HETATM    9  C   UNL     1      54.677   3.174  14.288  1.00  0.00     0.187 C 
BRANCH   9  10
HETATM   10  C   UNL     1      54.143   4.402  13.583  1.00  0.00     0.182 C 
HETATM   11  O   UNL     1      53.716   4.509  12.445  1.00  0.00    -0.647 OA
HETATM   12  O   UNL     1      54.175   5.486  14.389  1.00  0.00    -0.647 OA
ENDBRANCH   9  10
ENDBRANCH   8   9
ENDBRANCH   7   8
ENDBRANCH   1   7
TORSDOF 4
ENDMDL
