MODEL 1
REMARK VINA RESULT:      -4.5      0.000      0.000
REMARK  2 active torsions:
REMARK  status: ('A' for Active; 'I' for Inactive)
REMARK    1  A    between atoms: N_1  and  C_8 
REMARK    2  A    between atoms: C_8  and  C_9 
ROOT
HETATM    1  N   UNL     1      61.778  11.227   3.209  1.00  0.00    -0.375 N 
ATOM      2  HN  UNL     1      61.532  12.142   3.585  1.00  0.00     0.164 HD
HETATM    3  C   UNL     1      62.487   8.934   3.560  1.00  0.00    -0.025 A 
HETATM    4  C   UNL     1      62.121  10.197   4.016  1.00  0.00     0.096 A 
HETATM    5  C   UNL     1      61.778  10.984   1.881  1.00  0.00     0.087 A 
HETATM    6  C   UNL     1      62.462   8.721   2.178  1.00  0.00     0.011 A 
HETATM    7  C   UNL     1      62.104   9.760   1.323  1.00  0.00     0.018 A 
ENDROOT
BRANCH   3   8
HETATM    8  C   UNL     1      62.882   7.849   4.520  1.00  0.00     0.167 C 
BRANCH   8   9
HETATM    9  N   UNL     1      64.320   7.618   4.515  1.00  0.00    -0.362 N 
HETATM   10  C   UNL     1      65.238   8.326   5.249  1.00  0.00     0.090 A 
HETATM   11  C   UNL     1      66.484   7.796   4.996  1.00  0.00     0.019 A 
HETATM   12  C   UNL     1      66.309   6.716   4.097  1.00  0.00     0.019 A 
HETATM   13  C   UNL     1      64.960   6.617   3.830  1.00  0.00     0.090 A 
ENDBRANCH   8   9
ENDBRANCH   3   8
TORSDOF 2
ENDMDL
MODEL 2
REMARK VINA RESULT:      -4.3      2.345      4.647
REMARK  2 active torsions:
REMARK  status: ('A' for Active; 'I' for Inactive)
REMARK    1  A    between atoms: N_1  and  C_8 
REMARK    2  A    between atoms: C_8  and  C_9 
ROOT
HETATM    1  N   UNL     1      63.406   9.809   5.668  1.00  0.00    -0.375 N 
ATOM      2  HN  UNL     1      63.911   9.565   6.519  1.00  0.00     0.164 HD
HETATM    3  C   UNL     1      62.597   9.210   3.460  1.00  0.00    -0.025 A 
HETATM    4  C   UNL     1      63.257   8.927   4.653  1.00  0.00     0.096 A 
HETATM    5  C   UNL     1      62.852  11.028   5.499  1.00  0.00     0.087 A 
HETATM    6  C   UNL     1      62.027  10.480   3.331  1.00  0.00     0.011 A 
HETATM    7  C   UNL     1      62.155  11.406   4.363  1.00  0.00     0.018 A 
ENDROOT
BRANCH   3   8
HETATM    8  C   UNL     1      62.499   8.184   2.368  1.00  0.00     0.167 C 
BRANCH   8   9
HETATM    9  N   UNL     1      61.119   7.954   1.965  1.00  0.00    -0.362 N 
HETATM   10  C   UNL     1      60.142   7.408   2.759  1.00  0.00     0.090 A 
HETATM   11  C   UNL     1      58.971   7.379   2.032  1.00  0.00     0.019 A 
HETATM   12  C   UNL     1      59.245   7.949   0.766  1.00  0.00     0.019 A 
HETATM   13  C   UNL     1      60.575   8.312   0.757  1.00  0.00     0.090 A 
ENDBRANCH   8   9
ENDBRANCH   3   8
TORSDOF 2
ENDMDL
MODEL 3
REMARK VINA RESULT:      -4.3      1.581      4.981
REMARK  2 active torsions:
REMARK  status: ('A' for Active; 'I' for Inactive)
REMARK    1  A    between atoms: N_1  and  C_8 
REMARK    2  A    between atoms: C_8  and  C_9 
ROOT
HETATM    1  N   UNL     1      65.411   6.893   7.458  1.00  0.00    -0.375 N 
ATOM      2  HN  UNL     1      65.318   6.493   8.391  1.00  0.00     0.164 HD
HETATM    3  C   UNL     1      64.431   7.478   5.317  1.00  0.00    -0.025 A 
HETATM    4  C   UNL     1      64.361   6.963   6.608  1.00  0.00     0.096 A 
HETATM    5  C   UNL     1      66.588   7.379   7.010  1.00  0.00     0.087 A 
HETATM    6  C   UNL     1      65.666   7.983   4.897  1.00  0.00     0.011 A 
HETATM    7  C   UNL     1      66.763   7.932   5.753  1.00  0.00     0.018 A 
ENDROOT
BRANCH   3   8
HETATM    8  C   UNL     1      63.225   7.496   4.424  1.00  0.00     0.167 C 
BRANCH   8   9
HETATM    9  N   UNL     1      62.764   8.853   4.164  1.00  0.00    -0.362 N 
HETATM   10  C   UNL     1      62.816   9.892   5.058  1.00  0.00     0.090 A 
HETATM   11  C   UNL     1      62.314  11.014   4.435  1.00  0.00     0.019 A 
HETATM   12  C   UNL     1      61.970  10.644   3.112  1.00  0.00     0.019 A 
HETATM   13  C   UNL     1      62.274   9.308   2.966  1.00  0.00     0.090 A 
ENDBRANCH   8   9
ENDBRANCH   3   8
TORSDOF 2
ENDMDL
MODEL 4
REMARK VINA RESULT:      -4.2      1.051      4.612
REMARK  2 active torsions:
REMARK  status: ('A' for Active; 'I' for Inactive)
REMARK    1  A    between atoms: N_1  and  C_8 
REMARK    2  A    between atoms: C_8  and  C_9 
ROOT
HETATM    1  N   UNL     1      66.227   8.043   5.091  1.00  0.00    -0.375 N 
ATOM      2  HN  UNL     1      66.933   8.545   5.630  1.00  0.00     0.164 HD
HETATM    3  C   UNL     1      63.917   7.757   4.407  1.00  0.00    -0.025 A 
HETATM    4  C   UNL     1      64.927   8.415   5.103  1.00  0.00     0.096 A 
HETATM    5  C   UNL     1      66.545   6.973   4.331  1.00  0.00     0.087 A 
HETATM    6  C   UNL     1      64.291   6.662   3.622  1.00  0.00     0.011 A 
HETATM    7  C   UNL     1      65.624   6.261   3.583  1.00  0.00     0.018 A 
ENDROOT
BRANCH   3   8
HETATM    8  C   UNL     1      62.491   8.217   4.494  1.00  0.00     0.167 C 
BRANCH   8   9
HETATM    9  N   UNL     1      62.219   9.316   3.577  1.00  0.00    -0.362 N 
HETATM   10  C   UNL     1      62.045  10.627   3.942  1.00  0.00     0.090 A 
HETATM   11  C   UNL     1      61.836  11.363   2.795  1.00  0.00     0.019 A 
HETATM   12  C   UNL     1      61.913  10.469   1.700  1.00  0.00     0.019 A 
HETATM   13  C   UNL     1      62.167   9.214   2.210  1.00  0.00     0.090 A 
ENDBRANCH   8   9
ENDBRANCH   3   8
TORSDOF 2
ENDMDL
MODEL 5
REMARK VINA RESULT:      -4.1      2.875      6.337
REMARK  2 active torsions:
REMARK  status: ('A' for Active; 'I' for Inactive)
REMARK    1  A    between atoms: N_1  and  C_8 
REMARK    2  A    between atoms: C_8  and  C_9 
ROOT
HETATM    1  N   UNL     1      66.195   5.398   8.810  1.00  0.00    -0.375 N 
ATOM      2  HN  UNL     1      65.562   5.202   9.585  1.00  0.00     0.164 HD
HETATM    3  C   UNL     1      66.897   6.833   6.983  1.00  0.00    -0.025 A 
HETATM    4  C   UNL     1      66.078   6.522   8.065  1.00  0.00     0.096 A 
HETATM    5  C   UNL     1      67.190   4.550   8.477  1.00  0.00     0.087 A 
HETATM    6  C   UNL     1      67.924   5.933   6.680  1.00  0.00     0.011 A 
HETATM    7  C   UNL     1      68.075   4.773   7.435  1.00  0.00     0.018 A 
ENDROOT
BRANCH   3   8
HETATM    8  C   UNL     1      66.686   8.088   6.188  1.00  0.00     0.167 C 
BRANCH   8   9
HETATM    9  N   UNL     1      65.580   7.955   5.250  1.00  0.00    -0.362 N 
HETATM   10  C   UNL     1      65.425   6.933   4.347  1.00  0.00     0.090 A 
HETATM   11  C   UNL     1      64.249   7.146   3.662  1.00  0.00     0.019 A 
HETATM   12  C   UNL     1      63.661   8.322   4.187  1.00  0.00     0.019 A 
HETATM   13  C   UNL     1      64.496   8.792   5.178  1.00  0.00     0.090 A 
ENDBRANCH   8   9
ENDBRANCH   3   8
TORSDOF 2
ENDMDL
MODEL 6
REMARK VINA RESULT:      -4.0      1.036      1.556
REMARK  2 active torsions:
REMARK  status: ('A' for Active; 'I' for Inactive)
REMARK    1  A    between atoms: N_1  and  C_8 
REMARK    2  A    between atoms: C_8  and  C_9 
ROOT
HETATM    1  N   UNL     1      62.220   9.203   1.762  1.00  0.00    -0.375 N 
ATOM      2  HN  UNL     1      62.086   8.979   0.776  1.00  0.00     0.164 HD
HETATM    3  C   UNL     1      62.953   8.556   3.982  1.00  0.00    -0.025 A 
HETATM    4  C   UNL     1      62.766   8.316   2.624  1.00  0.00     0.096 A 
HETATM    5  C   UNL     1      61.860  10.401   2.270  1.00  0.00     0.087 A 
HETATM    6  C   UNL     1      62.578   9.813   4.466  1.00  0.00     0.011 A 
HETATM    7  C   UNL     1      62.022  10.751   3.600  1.00  0.00     0.018 A 
ENDROOT
BRANCH   3   8
HETATM    8  C   UNL     1      63.542   7.507   4.880  1.00  0.00     0.167 C 
BRANCH   8   9
HETATM    9  N   UNL     1      64.987   7.408   4.722  1.00  0.00    -0.362 N 
HETATM   10  C   UNL     1      65.912   8.146   5.415  1.00  0.00     0.090 A 
HETATM   11  C   UNL     1      67.166   7.748   5.007  1.00  0.00     0.019 A 
HETATM   12  C   UNL     1      66.992   6.717   4.052  1.00  0.00     0.019 A 
HETATM   13  C   UNL     1      65.636   6.515   3.908  1.00  0.00     0.090 A 
ENDBRANCH   8   9
ENDBRANCH   3   8
TORSDOF 2
ENDMDL
MODEL 7
REMARK VINA RESULT:      -4.0      1.864      3.239
REMARK  2 active torsions:
REMARK  status: ('A' for Active; 'I' for Inactive)
REMARK    1  A    between atoms: N_1  and  C_8 
REMARK    2  A    between atoms: C_8  and  C_9 
ROOT
HETATM    1  N   UNL     1      61.826  11.108   3.423  1.00  0.00    -0.375 N 
ATOM      2  HN  UNL     1      61.593  11.969   3.919  1.00  0.00     0.164 HD
HETATM    3  C   UNL     1      62.596   8.808   3.457  1.00  0.00    -0.025 A 
HETATM    4  C   UNL     1      62.245  10.002   4.080  1.00  0.00     0.096 A 
HETATM    5  C   UNL     1      61.730  11.017   2.080  1.00  0.00     0.087 A 
HETATM    6  C   UNL     1      62.471   8.752   2.065  1.00  0.00     0.011 A 
HETATM    7  C   UNL     1      62.032   9.872   1.363  1.00  0.00     0.018 A 
ENDROOT
BRANCH   3   8
HETATM    8  C   UNL     1      63.080   7.632   4.255  1.00  0.00     0.167 C 
BRANCH   8   9
HETATM    9  N   UNL     1      62.001   7.008   5.008  1.00  0.00    -0.362 N 
HETATM   10  C   UNL     1      60.806   6.587   4.479  1.00  0.00     0.090 A 
HETATM   11  C   UNL     1      60.064   6.029   5.497  1.00  0.00     0.019 A 
HETATM   12  C   UNL     1      60.847   6.093   6.675  1.00  0.00     0.019 A 
HETATM   13  C   UNL     1      62.046   6.687   6.341  1.00  0.00     0.090 A 
ENDBRANCH   8   9
ENDBRANCH   3   8
TORSDOF 2
ENDMDL
MODEL 8
REMARK VINA RESULT:      -4.0      1.303      4.972
REMARK  2 active torsions:
REMARK  status: ('A' for Active; 'I' for Inactive)
REMARK    1  A    between atoms: N_1  and  C_8 
REMARK    2  A    between atoms: C_8  and  C_9 
ROOT
HETATM    1  N   UNL     1      65.448   5.681   5.433  1.00  0.00    -0.375 N 
ATOM      2  HN  UNL     1      65.543   4.674   5.561  1.00  0.00     0.164 HD
HETATM    3  C   UNL     1      64.046   7.651   5.241  1.00  0.00    -0.025 A 
HETATM    4  C   UNL     1      64.238   6.286   5.432  1.00  0.00     0.096 A 
HETATM    5  C   UNL     1      66.525   6.476   5.255  1.00  0.00     0.087 A 
HETATM    6  C   UNL     1      65.188   8.441   5.074  1.00  0.00     0.011 A 
HETATM    7  C   UNL     1      66.447   7.847   5.079  1.00  0.00     0.018 A 
ENDROOT
BRANCH   3   8
HETATM    8  C   UNL     1      62.666   8.244   5.227  1.00  0.00     0.167 C 
BRANCH   8   9
HETATM    9  N   UNL     1      62.421   9.016   4.016  1.00  0.00    -0.362 N 
HETATM   10  C   UNL     1      62.427   8.511   2.740  1.00  0.00     0.090 A 
HETATM   11  C   UNL     1      62.129   9.541   1.875  1.00  0.00     0.019 A 
HETATM   12  C   UNL     1      61.911  10.701   2.657  1.00  0.00     0.019 A 
HETATM   13  C   UNL     1      62.081  10.344   3.978  1.00  0.00     0.090 A 
ENDBRANCH   8   9
ENDBRANCH   3   8
TORSDOF 2
ENDMDL
MODEL 9
REMARK VINA RESULT:      -3.9      1.487      4.733
REMARK  2 active torsions:
REMARK  status: ('A' for Active; 'I' for Inactive)
REMARK    1  A    between atoms: N_1  and  C_8 
REMARK    2  A    between atoms: C_8  and  C_9 
ROOT
HETATM    1  N   UNL     1      63.570   7.015   6.633  1.00  0.00    -0.375 N 
ATOM      2  HN  UNL     1      63.219   6.361   7.333  1.00  0.00     0.164 HD
HETATM    3  C   UNL     1      63.168   8.781   5.020  1.00  0.00    -0.025 A 
HETATM    4  C   UNL     1      62.750   7.882   5.997  1.00  0.00     0.096 A 
HETATM    5  C   UNL     1      64.877   7.056   6.297  1.00  0.00     0.087 A 
HETATM    6  C   UNL     1      64.531   8.800   4.710  1.00  0.00     0.011 A 
HETATM    7  C   UNL     1      65.401   7.925   5.355  1.00  0.00     0.018 A 
ENDROOT
BRANCH   3   8
HETATM    8  C   UNL     1      62.189   9.694   4.339  1.00  0.00     0.167 C 
BRANCH   8   9
HETATM    9  N   UNL     1      61.761   9.165   3.052  1.00  0.00    -0.362 N 
HETATM   10  C   UNL     1      62.238   9.570   1.830  1.00  0.00     0.090 A 
HETATM   11  C   UNL     1      61.611   8.820   0.859  1.00  0.00     0.019 A 
HETATM   12  C   UNL     1      60.744   7.916   1.518  1.00  0.00     0.019 A 
HETATM   13  C   UNL     1      60.869   8.138   2.873  1.00  0.00     0.090 A 
ENDBRANCH   8   9
ENDBRANCH   3   8
TORSDOF 2
ENDMDL
