MODEL 1
REMARK VINA RESULT:      -5.6      0.000      0.000
REMARK  4 active torsions:
REMARK  status: ('A' for Active; 'I' for Inactive)
REMARK    1  A    between atoms: C_1  and  C_4 
REMARK    2  A    between atoms: C_2  and  O_5 
REMARK    3  A    between atoms: C_3  and  O_6 
REMARK    4  A    between atoms: C_4  and  O_7 
ROOT
HETATM    1  C   UNL     1      63.021  10.109   4.976  1.00  0.00     0.032 A 
HETATM    2  C   UNL     1      62.263  10.307   3.797  1.00  0.00     0.079 A 
HETATM    3  C   UNL     1      63.718   8.888   5.115  1.00  0.00     0.079 A 
HETATM    4  C   UNL     1      62.959   8.150   2.927  1.00  0.00     0.005 A 
HETATM    5  C   UNL     1      63.689   7.931   4.088  1.00  0.00     0.037 A 
HETATM    6  C   UNL     1      62.251   9.338   2.783  1.00  0.00     0.037 A 
ENDROOT
BRANCH   1   7
HETATM    7  C   UNL     1      63.136  11.200   6.004  1.00  0.00     0.208 C 
BRANCH   7   8
HETATM    8  O   UNL     1      64.487  11.392   6.408  1.00  0.00    -0.396 OA
HETATM    9  H   UNL     1      64.509  11.906   7.231  1.00  0.00     0.209 HD
ENDBRANCH   7   8
ENDBRANCH   1   7
BRANCH   2  10
HETATM   10  O   UNL     1      61.641  11.474   3.428  1.00  0.00    -0.355 OA
HETATM   11  C   UNL     1      61.716  11.841   2.054  1.00  0.00     0.210 C 
ENDBRANCH   2  10
BRANCH   3  12
HETATM   12  O   UNL     1      64.599   8.546   6.111  1.00  0.00    -0.355 OA
HETATM   13  C   UNL     1      65.907   8.118   5.752  1.00  0.00     0.210 C 
ENDBRANCH   3  12
TORSDOF 4
ENDMDL
MODEL 2
REMARK VINA RESULT:      -5.3      0.310      3.715
REMARK  4 active torsions:
REMARK  status: ('A' for Active; 'I' for Inactive)
REMARK    1  A    between atoms: C_1  and  C_4 
REMARK    2  A    between atoms: C_2  and  O_5 
REMARK    3  A    between atoms: C_3  and  O_6 
REMARK    4  A    between atoms: C_4  and  O_7 
ROOT
HETATM    1  C   UNL     1      63.246   9.985   4.857  1.00  0.00     0.032 A 
HETATM    2  C   UNL     1      64.044   8.831   5.045  1.00  0.00     0.079 A 
HETATM    3  C   UNL     1      62.443  10.048   3.696  1.00  0.00     0.079 A 
HETATM    4  C   UNL     1      63.182   7.840   3.003  1.00  0.00     0.005 A 
HETATM    5  C   UNL     1      62.410   8.975   2.792  1.00  0.00     0.037 A 
HETATM    6  C   UNL     1      63.994   7.769   4.129  1.00  0.00     0.037 A 
ENDROOT
BRANCH   1   7
HETATM    7  C   UNL     1      63.205  11.064   5.902  1.00  0.00     0.208 C 
BRANCH   7   8
HETATM    8  O   UNL     1      64.505  11.353   6.402  1.00  0.00    -0.396 OA
HETATM    9  H   UNL     1      64.474  11.409   7.370  1.00  0.00     0.209 HD
ENDBRANCH   7   8
ENDBRANCH   1   7
BRANCH   2  10
HETATM   10  O   UNL     1      64.774   8.532   6.169  1.00  0.00    -0.355 OA
HETATM   11  C   UNL     1      66.095   8.041   5.971  1.00  0.00     0.210 C 
ENDBRANCH   2  10
BRANCH   3  12
HETATM   12  O   UNL     1      61.513  11.011   3.386  1.00  0.00    -0.355 OA
HETATM   13  C   UNL     1      61.694  11.783   2.206  1.00  0.00     0.210 C 
ENDBRANCH   3  12
TORSDOF 4
ENDMDL
MODEL 3
REMARK VINA RESULT:      -4.7      1.566      3.850
REMARK  4 active torsions:
REMARK  status: ('A' for Active; 'I' for Inactive)
REMARK    1  A    between atoms: C_1  and  C_4 
REMARK    2  A    between atoms: C_2  and  O_5 
REMARK    3  A    between atoms: C_3  and  O_6 
REMARK    4  A    between atoms: C_4  and  O_7 
ROOT
HETATM    1  C   UNL     1      63.648   9.345   4.899  1.00  0.00     0.032 A 
HETATM    2  C   UNL     1      64.873   8.711   5.217  1.00  0.00     0.079 A 
HETATM    3  C   UNL     1      62.854   8.771   3.881  1.00  0.00     0.079 A 
HETATM    4  C   UNL     1      64.449   6.960   3.589  1.00  0.00     0.005 A 
HETATM    5  C   UNL     1      63.255   7.584   3.249  1.00  0.00     0.037 A 
HETATM    6  C   UNL     1      65.252   7.524   4.573  1.00  0.00     0.037 A 
ENDROOT
BRANCH   1   7
HETATM    7  C   UNL     1      63.183  10.545   5.676  1.00  0.00     0.208 C 
BRANCH   7   8
HETATM    8  O   UNL     1      64.281  11.328   6.128  1.00  0.00    -0.396 OA
HETATM    9  H   UNL     1      63.950  12.089   6.630  1.00  0.00     0.209 HD
ENDBRANCH   7   8
ENDBRANCH   1   7
BRANCH   2  10
HETATM   10  O   UNL     1      65.701   9.040   6.262  1.00  0.00    -0.355 OA
HETATM   11  C   UNL     1      66.658   8.065   6.661  1.00  0.00     0.210 C 
ENDBRANCH   2  10
BRANCH   3  12
HETATM   12  O   UNL     1      61.589   9.152   3.505  1.00  0.00    -0.355 OA
HETATM   13  C   UNL     1      60.865   8.327   2.601  1.00  0.00     0.210 C 
ENDBRANCH   3  12
TORSDOF 4
ENDMDL
MODEL 4
REMARK VINA RESULT:      -4.4      1.398      1.736
REMARK  4 active torsions:
REMARK  status: ('A' for Active; 'I' for Inactive)
REMARK    1  A    between atoms: C_1  and  C_4 
REMARK    2  A    between atoms: C_2  and  O_5 
REMARK    3  A    between atoms: C_3  and  O_6 
REMARK    4  A    between atoms: C_4  and  O_7 
ROOT
HETATM    1  C   UNL     1      63.318   9.293   4.722  1.00  0.00     0.032 A 
HETATM    2  C   UNL     1      62.577   8.717   3.662  1.00  0.00     0.079 A 
HETATM    3  C   UNL     1      64.521   8.658   5.105  1.00  0.00     0.079 A 
HETATM    4  C   UNL     1      64.251   6.983   3.365  1.00  0.00     0.005 A 
HETATM    5  C   UNL     1      64.978   7.523   4.418  1.00  0.00     0.037 A 
HETATM    6  C   UNL     1      63.055   7.583   2.988  1.00  0.00     0.037 A 
ENDROOT
BRANCH   1   7
HETATM    7  C   UNL     1      62.871  10.579   5.358  1.00  0.00     0.208 C 
BRANCH   7   8
HETATM    8  O   UNL     1      62.245  11.436   4.411  1.00  0.00    -0.396 OA
HETATM    9  H   UNL     1      62.863  12.139   4.153  1.00  0.00     0.209 HD
ENDBRANCH   7   8
ENDBRANCH   1   7
BRANCH   2  10
HETATM   10  O   UNL     1      61.468   9.265   3.065  1.00  0.00    -0.355 OA
HETATM   11  C   UNL     1      61.485   9.374   1.646  1.00  0.00     0.210 C 
ENDBRANCH   2  10
BRANCH   3  12
HETATM   12  O   UNL     1      65.443   9.115   6.015  1.00  0.00    -0.355 OA
HETATM   13  C   UNL     1      66.499   8.250   6.413  1.00  0.00     0.210 C 
ENDBRANCH   3  12
TORSDOF 4
ENDMDL
MODEL 5
REMARK VINA RESULT:      -4.0      1.792      3.424
REMARK  4 active torsions:
REMARK  status: ('A' for Active; 'I' for Inactive)
REMARK    1  A    between atoms: C_1  and  C_4 
REMARK    2  A    between atoms: C_2  and  O_5 
REMARK    3  A    between atoms: C_3  and  O_6 
REMARK    4  A    between atoms: C_4  and  O_7 
ROOT
HETATM    1  C   UNL     1      61.973   9.950   2.646  1.00  0.00     0.032 A 
HETATM    2  C   UNL     1      62.321   8.744   1.991  1.00  0.00     0.079 A 
HETATM    3  C   UNL     1      62.285  10.068   4.019  1.00  0.00     0.079 A 
HETATM    4  C   UNL     1      63.316   7.867   4.024  1.00  0.00     0.005 A 
HETATM    5  C   UNL     1      62.960   9.035   4.687  1.00  0.00     0.037 A 
HETATM    6  C   UNL     1      62.998   7.726   2.679  1.00  0.00     0.037 A 
ENDROOT
BRANCH   1   7
HETATM    7  C   UNL     1      61.363  11.089   1.878  1.00  0.00     0.208 C 
BRANCH   7   8
HETATM    8  O   UNL     1      62.144  12.272   1.996  1.00  0.00    -0.396 OA
HETATM    9  H   UNL     1      62.762  12.179   2.739  1.00  0.00     0.209 HD
ENDBRANCH   7   8
ENDBRANCH   1   7
BRANCH   2  10
HETATM   10  O   UNL     1      62.225   8.505   0.642  1.00  0.00    -0.355 OA
HETATM   11  C   UNL     1      61.126   7.717   0.201  1.00  0.00     0.210 C 
ENDBRANCH   2  10
BRANCH   3  12
HETATM   12  O   UNL     1      62.147  11.186   4.805  1.00  0.00    -0.355 OA
HETATM   13  C   UNL     1      63.040  11.370   5.896  1.00  0.00     0.210 C 
ENDBRANCH   3  12
TORSDOF 4
ENDMDL
MODEL 6
REMARK VINA RESULT:      -4.0      1.462      4.159
REMARK  4 active torsions:
REMARK  status: ('A' for Active; 'I' for Inactive)
REMARK    1  A    between atoms: C_1  and  C_4 
REMARK    2  A    between atoms: C_2  and  O_5 
REMARK    3  A    between atoms: C_3  and  O_6 
REMARK    4  A    between atoms: C_4  and  O_7 
ROOT
HETATM    1  C   UNL     1      62.662   9.205   3.542  1.00  0.00     0.032 A 
HETATM    2  C   UNL     1      63.677   8.470   4.201  1.00  0.00     0.079 A 
HETATM    3  C   UNL     1      62.161   8.690   2.325  1.00  0.00     0.079 A 
HETATM    4  C   UNL     1      63.610   6.746   2.492  1.00  0.00     0.005 A 
HETATM    5  C   UNL     1      62.629   7.467   1.822  1.00  0.00     0.037 A 
HETATM    6  C   UNL     1      64.128   7.248   3.680  1.00  0.00     0.037 A 
ENDROOT
BRANCH   1   7
HETATM    7  C   UNL     1      62.091  10.447   4.165  1.00  0.00     0.208 C 
BRANCH   7   8
HETATM    8  O   UNL     1      61.546  11.318   3.180  1.00  0.00    -0.396 OA
HETATM    9  H   UNL     1      61.730  10.962   2.296  1.00  0.00     0.209 HD
ENDBRANCH   7   8
ENDBRANCH   1   7
BRANCH   2  10
HETATM   10  O   UNL     1      64.182   8.737   5.450  1.00  0.00    -0.355 OA
HETATM   11  C   UNL     1      65.493   8.262   5.733  1.00  0.00     0.210 C 
ENDBRANCH   2  10
BRANCH   3  12
HETATM   12  O   UNL     1      61.103   9.176   1.596  1.00  0.00    -0.355 OA
HETATM   13  C   UNL     1      60.258   8.254   0.919  1.00  0.00     0.210 C 
ENDBRANCH   3  12
TORSDOF 4
ENDMDL
MODEL 7
REMARK VINA RESULT:      -3.9      1.881      3.073
REMARK  4 active torsions:
REMARK  status: ('A' for Active; 'I' for Inactive)
REMARK    1  A    between atoms: C_1  and  C_4 
REMARK    2  A    between atoms: C_2  and  O_5 
REMARK    3  A    between atoms: C_3  and  O_6 
REMARK    4  A    between atoms: C_4  and  O_7 
ROOT
HETATM    1  C   UNL     1      64.890   7.662   5.188  1.00  0.00     0.032 A 
HETATM    2  C   UNL     1      64.062   8.788   4.966  1.00  0.00     0.079 A 
HETATM    3  C   UNL     1      64.815   6.597   4.263  1.00  0.00     0.079 A 
HETATM    4  C   UNL     1      63.189   7.808   2.923  1.00  0.00     0.005 A 
HETATM    5  C   UNL     1      63.979   6.686   3.140  1.00  0.00     0.037 A 
HETATM    6  C   UNL     1      63.235   8.856   3.835  1.00  0.00     0.037 A 
ENDROOT
BRANCH   1   7
HETATM    7  C   UNL     1      65.867   7.644   6.330  1.00  0.00     0.208 C 
BRANCH   7   8
HETATM    8  O   UNL     1      66.435   8.931   6.547  1.00  0.00    -0.396 OA
HETATM    9  H   UNL     1      65.745   9.543   6.845  1.00  0.00     0.209 HD
ENDBRANCH   7   8
ENDBRANCH   1   7
BRANCH   2  10
HETATM   10  O   UNL     1      64.099   9.966   5.672  1.00  0.00    -0.355 OA
HETATM   11  C   UNL     1      62.999  10.854   5.508  1.00  0.00     0.210 C 
ENDBRANCH   2  10
BRANCH   3  12
HETATM   12  O   UNL     1      65.611   5.478   4.224  1.00  0.00    -0.355 OA
HETATM   13  C   UNL     1      66.824   5.525   3.484  1.00  0.00     0.210 C 
ENDBRANCH   3  12
TORSDOF 4
ENDMDL
MODEL 8
REMARK VINA RESULT:      -3.9      1.578      4.079
REMARK  4 active torsions:
REMARK  status: ('A' for Active; 'I' for Inactive)
REMARK    1  A    between atoms: C_1  and  C_4 
REMARK    2  A    between atoms: C_2  and  O_5 
REMARK    3  A    between atoms: C_3  and  O_6 
REMARK    4  A    between atoms: C_4  and  O_7 
ROOT
HETATM    1  C   UNL     1      62.989   9.015   3.796  1.00  0.00     0.032 A 
HETATM    2  C   UNL     1      63.371   7.717   3.381  1.00  0.00     0.079 A 
HETATM    3  C   UNL     1      62.239   9.801   2.892  1.00  0.00     0.079 A 
HETATM    4  C   UNL     1      62.215   7.996   1.265  1.00  0.00     0.005 A 
HETATM    5  C   UNL     1      61.852   9.282   1.647  1.00  0.00     0.037 A 
HETATM    6  C   UNL     1      62.971   7.217   2.133  1.00  0.00     0.037 A 
ENDROOT
BRANCH   1   7
HETATM    7  C   UNL     1      63.310   9.501   5.181  1.00  0.00     0.208 C 
BRANCH   7   8
HETATM    8  O   UNL     1      62.912   8.556   6.168  1.00  0.00    -0.396 OA
HETATM    9  H   UNL     1      62.077   8.841   6.571  1.00  0.00     0.209 HD
ENDBRANCH   7   8
ENDBRANCH   1   7
BRANCH   2  10
HETATM   10  O   UNL     1      63.975   6.766   4.167  1.00  0.00    -0.355 OA
HETATM   11  C   UNL     1      63.822   5.408   3.773  1.00  0.00     0.210 C 
ENDBRANCH   2  10
BRANCH   3  12
HETATM   12  O   UNL     1      61.669  11.026   3.138  1.00  0.00    -0.355 OA
HETATM   13  C   UNL     1      61.668  12.001   2.104  1.00  0.00     0.210 C 
ENDBRANCH   3  12
TORSDOF 4
ENDMDL
MODEL 9
REMARK VINA RESULT:      -3.8      1.733      3.702
REMARK  4 active torsions:
REMARK  status: ('A' for Active; 'I' for Inactive)
REMARK    1  A    between atoms: C_1  and  C_4 
REMARK    2  A    between atoms: C_2  and  O_5 
REMARK    3  A    between atoms: C_3  and  O_6 
REMARK    4  A    between atoms: C_4  and  O_7 
ROOT
HETATM    1  C   UNL     1      64.161   8.080   4.504  1.00  0.00     0.032 A 
HETATM    2  C   UNL     1      63.979   7.242   3.378  1.00  0.00     0.079 A 
HETATM    3  C   UNL     1      63.314   9.203   4.634  1.00  0.00     0.079 A 
HETATM    4  C   UNL     1      62.116   8.596   2.609  1.00  0.00     0.005 A 
HETATM    5  C   UNL     1      62.297   9.442   3.696  1.00  0.00     0.037 A 
HETATM    6  C   UNL     1      62.954   7.499   2.454  1.00  0.00     0.037 A 
ENDROOT
BRANCH   1   7
HETATM    7  C   UNL     1      65.174   7.734   5.559  1.00  0.00     0.208 C 
BRANCH   7   8
HETATM    8  O   UNL     1      65.787   8.902   6.094  1.00  0.00    -0.396 OA
HETATM    9  H   UNL     1      65.150   9.634   6.085  1.00  0.00     0.209 HD
ENDBRANCH   7   8
ENDBRANCH   1   7
BRANCH   2  10
HETATM   10  O   UNL     1      64.607   6.041   3.159  1.00  0.00    -0.355 OA
HETATM   11  C   UNL     1      64.323   5.376   1.933  1.00  0.00     0.210 C 
ENDBRANCH   2  10
BRANCH   3  12
HETATM   12  O   UNL     1      63.242  10.066   5.701  1.00  0.00    -0.355 OA
HETATM   13  C   UNL     1      62.721  11.372   5.492  1.00  0.00     0.210 C 
ENDBRANCH   3  12
TORSDOF 4
ENDMDL
