MODEL 1
REMARK VINA RESULT:      -4.5      0.000      0.000
REMARK  2 active torsions:
REMARK  status: ('A' for Active; 'I' for Inactive)
REMARK    1  A    between atoms: N_1  and  C_8 
REMARK    2  A    between atoms: C_8  and  C_9 
ROOT
HETATM    1  N   UNL     1      63.218   9.961   5.780  1.00  0.00    -0.368 N 
ATOM      2  HN  UNL     1      63.628  10.001   6.713  1.00  0.00     0.165 HD
HETATM    3  C   UNL     1      63.188   8.802   5.071  1.00  0.00     0.027 A 
HETATM    4  C   UNL     1      62.684  11.059   5.201  1.00  0.00     0.088 A 
HETATM    5  C   UNL     1      62.606   8.720   3.806  1.00  0.00     0.027 A 
HETATM    6  C   UNL     1      62.099  11.063   3.947  1.00  0.00     0.017 A 
HETATM    7  C   UNL     1      62.054   9.867   3.242  1.00  0.00     0.003 A 
ENDROOT
BRANCH   3   8
HETATM    8  C   UNL     1      63.839   7.592   5.694  1.00  0.00     0.184 C 
BRANCH   8   9
HETATM    9  N   UNL     1      65.242   7.496   5.310  1.00  0.00    -0.361 N 
HETATM   10  C   UNL     1      66.288   8.055   5.999  1.00  0.00     0.091 A 
HETATM   11  C   UNL     1      67.452   7.755   5.327  1.00  0.00     0.019 A 
HETATM   12  C   UNL     1      67.099   6.962   4.209  1.00  0.00     0.019 A 
HETATM   13  C   UNL     1      65.731   6.798   4.234  1.00  0.00     0.091 A 
ENDBRANCH   8   9
ENDBRANCH   3   8
TORSDOF 2
ENDMDL
MODEL 2
REMARK VINA RESULT:      -4.4      1.551      2.056
REMARK  2 active torsions:
REMARK  status: ('A' for Active; 'I' for Inactive)
REMARK    1  A    between atoms: N_1  and  C_8 
REMARK    2  A    between atoms: C_8  and  C_9 
ROOT
HETATM    1  N   UNL     1      62.383   8.940   2.297  1.00  0.00    -0.368 N 
ATOM      2  HN  UNL     1      62.574   8.026   1.885  1.00  0.00     0.165 HD
HETATM    3  C   UNL     1      62.459   9.139   3.640  1.00  0.00     0.027 A 
HETATM    4  C   UNL     1      62.045   9.998   1.528  1.00  0.00     0.088 A 
HETATM    5  C   UNL     1      62.231  10.387   4.218  1.00  0.00     0.027 A 
HETATM    6  C   UNL     1      61.792  11.264   2.026  1.00  0.00     0.017 A 
HETATM    7  C   UNL     1      61.895  11.461   3.397  1.00  0.00     0.003 A 
ENDROOT
BRANCH   3   8
HETATM    8  C   UNL     1      62.777   7.943   4.500  1.00  0.00     0.184 C 
BRANCH   8   9
HETATM    9  N   UNL     1      64.208   7.662   4.499  1.00  0.00    -0.361 N 
HETATM   10  C   UNL     1      65.146   8.339   5.237  1.00  0.00     0.091 A 
HETATM   11  C   UNL     1      66.380   7.793   4.965  1.00  0.00     0.019 A 
HETATM   12  C   UNL     1      66.177   6.728   4.054  1.00  0.00     0.019 A 
HETATM   13  C   UNL     1      64.825   6.654   3.800  1.00  0.00     0.091 A 
ENDBRANCH   8   9
ENDBRANCH   3   8
TORSDOF 2
ENDMDL
MODEL 3
REMARK VINA RESULT:      -4.4      0.939      4.667
REMARK  2 active torsions:
REMARK  status: ('A' for Active; 'I' for Inactive)
REMARK    1  A    between atoms: N_1  and  C_8 
REMARK    2  A    between atoms: C_8  and  C_9 
ROOT
HETATM    1  N   UNL     1      65.289   8.389   6.159  1.00  0.00    -0.368 N 
ATOM      2  HN  UNL     1      64.791   8.952   6.849  1.00  0.00     0.165 HD
HETATM    3  C   UNL     1      64.625   7.747   5.161  1.00  0.00     0.027 A 
HETATM    4  C   UNL     1      66.632   8.252   6.203  1.00  0.00     0.088 A 
HETATM    5  C   UNL     1      65.290   6.996   4.192  1.00  0.00     0.027 A 
HETATM    6  C   UNL     1      67.363   7.518   5.286  1.00  0.00     0.017 A 
HETATM    7  C   UNL     1      66.677   6.885   4.258  1.00  0.00     0.003 A 
ENDROOT
BRANCH   3   8
HETATM    8  C   UNL     1      63.122   7.851   5.151  1.00  0.00     0.184 C 
BRANCH   8   9
HETATM    9  N   UNL     1      62.676   8.912   4.256  1.00  0.00    -0.361 N 
HETATM   10  C   UNL     1      62.359   8.747   2.931  1.00  0.00     0.091 A 
HETATM   11  C   UNL     1      61.990   9.973   2.424  1.00  0.00     0.019 A 
HETATM   12  C   UNL     1      62.059  10.906   3.487  1.00  0.00     0.019 A 
HETATM   13  C   UNL     1      62.463  10.221   4.612  1.00  0.00     0.091 A 
ENDBRANCH   8   9
ENDBRANCH   3   8
TORSDOF 2
ENDMDL
MODEL 4
REMARK VINA RESULT:      -4.2      2.134      3.156
REMARK  2 active torsions:
REMARK  status: ('A' for Active; 'I' for Inactive)
REMARK    1  A    between atoms: N_1  and  C_8 
REMARK    2  A    between atoms: C_8  and  C_9 
ROOT
HETATM    1  N   UNL     1      64.585   9.083   5.640  1.00  0.00    -0.368 N 
ATOM      2  HN  UNL     1      64.702   9.773   6.382  1.00  0.00     0.165 HD
HETATM    3  C   UNL     1      65.518   8.118   5.420  1.00  0.00     0.027 A 
HETATM    4  C   UNL     1      63.498   9.093   4.838  1.00  0.00     0.088 A 
HETATM    5  C   UNL     1      65.363   7.149   4.430  1.00  0.00     0.027 A 
HETATM    6  C   UNL     1      63.276   8.173   3.828  1.00  0.00     0.017 A 
HETATM    7  C   UNL     1      64.225   7.180   3.627  1.00  0.00     0.003 A 
ENDROOT
BRANCH   3   8
HETATM    8  C   UNL     1      66.759   8.147   6.276  1.00  0.00     0.184 C 
BRANCH   8   9
HETATM    9  N   UNL     1      66.877   6.928   7.068  1.00  0.00    -0.361 N 
HETATM   10  C   UNL     1      67.889   6.008   6.953  1.00  0.00     0.091 A 
HETATM   11  C   UNL     1      67.652   4.997   7.858  1.00  0.00     0.019 A 
HETATM   12  C   UNL     1      66.471   5.334   8.564  1.00  0.00     0.019 A 
HETATM   13  C   UNL     1      66.026   6.541   8.073  1.00  0.00     0.091 A 
ENDBRANCH   8   9
ENDBRANCH   3   8
TORSDOF 2
ENDMDL
MODEL 5
REMARK VINA RESULT:      -4.0      3.504      5.621
REMARK  2 active torsions:
REMARK  status: ('A' for Active; 'I' for Inactive)
REMARK    1  A    between atoms: N_1  and  C_8 
REMARK    2  A    between atoms: C_8  and  C_9 
ROOT
HETATM    1  N   UNL     1      62.558   8.781   3.002  1.00  0.00    -0.368 N 
ATOM      2  HN  UNL     1      62.792   7.790   2.935  1.00  0.00     0.165 HD
HETATM    3  C   UNL     1      62.182   9.492   1.906  1.00  0.00     0.027 A 
HETATM    4  C   UNL     1      62.607   9.435   4.183  1.00  0.00     0.088 A 
HETATM    5  C   UNL     1      61.829  10.839   1.981  1.00  0.00     0.027 A 
HETATM    6  C   UNL     1      62.283  10.771   4.338  1.00  0.00     0.017 A 
HETATM    7  C   UNL     1      61.880  11.482   3.215  1.00  0.00     0.003 A 
ENDROOT
BRANCH   3   8
HETATM    8  C   UNL     1      62.186   8.774   0.580  1.00  0.00     0.184 C 
BRANCH   8   9
HETATM    9  N   UNL     1      61.099   7.806   0.505  1.00  0.00    -0.361 N 
HETATM   10  C   UNL     1      61.258   6.446   0.414  1.00  0.00     0.091 A 
HETATM   11  C   UNL     1      60.008   5.872   0.356  1.00  0.00     0.019 A 
HETATM   12  C   UNL     1      59.060   6.920   0.445  1.00  0.00     0.019 A 
HETATM   13  C   UNL     1      59.759   8.101   0.559  1.00  0.00     0.091 A 
ENDBRANCH   8   9
ENDBRANCH   3   8
TORSDOF 2
ENDMDL
MODEL 6
REMARK VINA RESULT:      -4.0      3.027      5.471
REMARK  2 active torsions:
REMARK  status: ('A' for Active; 'I' for Inactive)
REMARK    1  A    between atoms: N_1  and  C_8 
REMARK    2  A    between atoms: C_8  and  C_9 
ROOT
HETATM    1  N   UNL     1      61.742  10.556   2.951  1.00  0.00    -0.368 N 
ATOM      2  HN  UNL     1      61.178  10.895   2.172  1.00  0.00     0.165 HD
HETATM    3  C   UNL     1      62.297   9.314   2.932  1.00  0.00     0.027 A 
HETATM    4  C   UNL     1      61.966  11.322   4.041  1.00  0.00     0.088 A 
HETATM    5  C   UNL     1      63.095   8.843   3.974  1.00  0.00     0.027 A 
HETATM    6  C   UNL     1      62.736  10.923   5.119  1.00  0.00     0.017 A 
HETATM    7  C   UNL     1      63.316   9.661   5.079  1.00  0.00     0.003 A 
ENDROOT
BRANCH   3   8
HETATM    8  C   UNL     1      61.995   8.439   1.742  1.00  0.00     0.184 C 
BRANCH   8   9
HETATM    9  N   UNL     1      60.601   8.015   1.744  1.00  0.00    -0.361 N 
HETATM   10  C   UNL     1      59.737   8.136   0.684  1.00  0.00     0.091 A 
HETATM   11  C   UNL     1      58.515   7.633   1.069  1.00  0.00     0.019 A 
HETATM   12  C   UNL     1      58.652   7.165   2.398  1.00  0.00     0.019 A 
HETATM   13  C   UNL     1      59.955   7.392   2.783  1.00  0.00     0.091 A 
ENDBRANCH   8   9
ENDBRANCH   3   8
TORSDOF 2
ENDMDL
MODEL 7
REMARK VINA RESULT:      -4.0      2.229      3.444
REMARK  2 active torsions:
REMARK  status: ('A' for Active; 'I' for Inactive)
REMARK    1  A    between atoms: N_1  and  C_8 
REMARK    2  A    between atoms: C_8  and  C_9 
ROOT
HETATM    1  N   UNL     1      60.473   8.405   3.040  1.00  0.00    -0.368 N 
ATOM      2  HN  UNL     1      59.978   8.287   3.924  1.00  0.00     0.165 HD
HETATM    3  C   UNL     1      61.664   9.058   2.981  1.00  0.00     0.027 A 
HETATM    4  C   UNL     1      59.971   7.918   1.884  1.00  0.00     0.088 A 
HETATM    5  C   UNL     1      62.372   9.203   1.788  1.00  0.00     0.027 A 
HETATM    6  C   UNL     1      60.606   8.031   0.660  1.00  0.00     0.017 A 
HETATM    7  C   UNL     1      61.833   8.680   0.615  1.00  0.00     0.003 A 
ENDROOT
BRANCH   3   8
HETATM    8  C   UNL     1      62.192   9.653   4.261  1.00  0.00     0.184 C 
BRANCH   8   9
HETATM    9  N   UNL     1      63.068   8.715   4.953  1.00  0.00    -0.361 N 
HETATM   10  C   UNL     1      64.439   8.722   4.892  1.00  0.00     0.091 A 
HETATM   11  C   UNL     1      64.907   7.685   5.668  1.00  0.00     0.019 A 
HETATM   12  C   UNL     1      63.781   7.047   6.241  1.00  0.00     0.019 A 
HETATM   13  C   UNL     1      62.659   7.716   5.802  1.00  0.00     0.091 A 
ENDBRANCH   8   9
ENDBRANCH   3   8
TORSDOF 2
ENDMDL
MODEL 8
REMARK VINA RESULT:      -4.0      4.017      5.566
REMARK  2 active torsions:
REMARK  status: ('A' for Active; 'I' for Inactive)
REMARK    1  A    between atoms: N_1  and  C_8 
REMARK    2  A    between atoms: C_8  and  C_9 
ROOT
HETATM    1  N   UNL     1      58.759   7.892   3.156  1.00  0.00    -0.368 N 
ATOM      2  HN  UNL     1      58.697   8.512   2.349  1.00  0.00     0.165 HD
HETATM    3  C   UNL     1      59.942   7.335   3.528  1.00  0.00     0.027 A 
HETATM    4  C   UNL     1      57.669   7.592   3.895  1.00  0.00     0.088 A 
HETATM    5  C   UNL     1      60.054   6.508   4.646  1.00  0.00     0.027 A 
HETATM    6  C   UNL     1      57.695   6.772   5.010  1.00  0.00     0.017 A 
HETATM    7  C   UNL     1      58.913   6.227   5.394  1.00  0.00     0.003 A 
ENDROOT
BRANCH   3   8
HETATM    8  C   UNL     1      61.145   7.623   2.666  1.00  0.00     0.184 C 
BRANCH   8   9
HETATM    9  N   UNL     1      61.471   9.044   2.678  1.00  0.00    -0.361 N 
HETATM   10  C   UNL     1      61.597   9.835   1.564  1.00  0.00     0.091 A 
HETATM   11  C   UNL     1      61.916  11.109   1.977  1.00  0.00     0.019 A 
HETATM   12  C   UNL     1      61.956  11.094   3.393  1.00  0.00     0.019 A 
HETATM   13  C   UNL     1      61.656   9.813   3.801  1.00  0.00     0.091 A 
ENDBRANCH   8   9
ENDBRANCH   3   8
TORSDOF 2
ENDMDL
MODEL 9
REMARK VINA RESULT:      -4.0      1.520      4.857
REMARK  2 active torsions:
REMARK  status: ('A' for Active; 'I' for Inactive)
REMARK    1  A    between atoms: N_1  and  C_8 
REMARK    2  A    between atoms: C_8  and  C_9 
ROOT
HETATM    1  N   UNL     1      64.885   6.493   3.641  1.00  0.00    -0.368 N 
ATOM      2  HN  UNL     1      64.345   5.875   3.035  1.00  0.00     0.165 HD
HETATM    3  C   UNL     1      64.280   7.454   4.388  1.00  0.00     0.027 A 
HETATM    4  C   UNL     1      66.229   6.387   3.731  1.00  0.00     0.088 A 
HETATM    5  C   UNL     1      64.998   8.289   5.243  1.00  0.00     0.027 A 
HETATM    6  C   UNL     1      67.012   7.183   4.547  1.00  0.00     0.017 A 
HETATM    7  C   UNL     1      66.380   8.147   5.322  1.00  0.00     0.003 A 
ENDROOT
BRANCH   3   8
HETATM    8  C   UNL     1      62.788   7.610   4.239  1.00  0.00     0.184 C 
BRANCH   8   9
HETATM    9  N   UNL     1      62.463   8.660   3.281  1.00  0.00    -0.361 N 
HETATM   10  C   UNL     1      62.151   9.956   3.606  1.00  0.00     0.091 A 
HETATM   11  C   UNL     1      61.899  10.641   2.438  1.00  0.00     0.019 A 
HETATM   12  C   UNL     1      62.095   9.734   1.369  1.00  0.00     0.019 A 
HETATM   13  C   UNL     1      62.464   8.524   1.915  1.00  0.00     0.091 A 
ENDBRANCH   8   9
ENDBRANCH   3   8
TORSDOF 2
ENDMDL
