MODEL 1
REMARK VINA RESULT:      -3.9      0.000      0.000
REMARK  2 active torsions:
REMARK  status: ('A' for Active; 'I' for Inactive)
REMARK    1  A    between atoms: C_1  and  N_6 
REMARK    2  A    between atoms: C_3  and  S_7 
ROOT
HETATM    1  C   UNL     1      62.638   9.194   4.395  1.00  0.00     0.044 A 
HETATM    2  C   UNL     1      62.303  10.455   3.885  1.00  0.00     0.054 A 
HETATM    3  C   UNL     1      62.781   8.110   3.500  1.00  0.00     0.026 A 
HETATM    4  C   UNL     1      62.497   8.288   2.139  1.00  0.00     0.022 A 
HETATM    5  C   UNL     1      62.012  10.617   2.530  1.00  0.00     0.036 A 
HETATM    6  C   UNL     1      62.107   9.539   1.655  1.00  0.00     0.025 A 
HETATM    7 CL   UNL     1      61.521  12.156   1.940  1.00  0.00    -0.084 Cl
ENDROOT
BRANCH   1   8
HETATM    8  N   UNL     1      63.011   9.086   5.750  1.00  0.00    -0.398 N 
HETATM    9  H   UNL     1      62.378   8.715   6.406  1.00  0.00     0.156 HD
HETATM   10  H   UNL     1      63.904   9.380   6.038  1.00  0.00     0.156 HD
ENDBRANCH   1   8
BRANCH   3  11
HETATM   11  S   UNL     1      63.175   6.448   4.057  1.00  0.00    -0.132 SA
HETATM   12  C   UNL     1      64.982   6.477   3.928  1.00  0.00     0.095 C 
ENDBRANCH   3  11
TORSDOF 2
ENDMDL
MODEL 2
REMARK VINA RESULT:      -3.8      1.598      2.238
REMARK  2 active torsions:
REMARK  status: ('A' for Active; 'I' for Inactive)
REMARK    1  A    between atoms: C_1  and  N_6 
REMARK    2  A    between atoms: C_3  and  S_7 
ROOT
HETATM    1  C   UNL     1      62.515   8.318   3.365  1.00  0.00     0.044 A 
HETATM    2  C   UNL     1      62.101   9.367   2.532  1.00  0.00     0.054 A 
HETATM    3  C   UNL     1      62.787   8.590   4.724  1.00  0.00     0.026 A 
HETATM    4  C   UNL     1      62.733   9.909   5.195  1.00  0.00     0.022 A 
HETATM    5  C   UNL     1      62.062  10.677   3.011  1.00  0.00     0.036 A 
HETATM    6  C   UNL     1      62.376  10.953   4.339  1.00  0.00     0.025 A 
HETATM    7 CL   UNL     1      61.633  11.961   1.951  1.00  0.00    -0.084 Cl
ENDROOT
BRANCH   1   8
HETATM    8  N   UNL     1      62.457   6.998   2.874  1.00  0.00    -0.398 N 
HETATM    9  H   UNL     1      63.128   6.337   3.161  1.00  0.00     0.156 HD
HETATM   10  H   UNL     1      61.746   6.739   2.245  1.00  0.00     0.156 HD
ENDBRANCH   1   8
BRANCH   3  11
HETATM   11  S   UNL     1      63.355   7.322   5.863  1.00  0.00    -0.132 SA
HETATM   12  C   UNL     1      65.142   7.615   5.818  1.00  0.00     0.095 C 
ENDBRANCH   3  11
TORSDOF 2
ENDMDL
MODEL 3
REMARK VINA RESULT:      -3.6      1.849      2.179
REMARK  2 active torsions:
REMARK  status: ('A' for Active; 'I' for Inactive)
REMARK    1  A    between atoms: C_1  and  N_6 
REMARK    2  A    between atoms: C_3  and  S_7 
ROOT
HETATM    1  C   UNL     1      63.153   9.055   4.720  1.00  0.00     0.044 A 
HETATM    2  C   UNL     1      62.528   9.465   3.534  1.00  0.00     0.054 A 
HETATM    3  C   UNL     1      63.873   7.840   4.729  1.00  0.00     0.026 A 
HETATM    4  C   UNL     1      63.872   7.021   3.591  1.00  0.00     0.022 A 
HETATM    5  C   UNL     1      62.525   8.635   2.412  1.00  0.00     0.036 A 
HETATM    6  C   UNL     1      63.194   7.415   2.436  1.00  0.00     0.025 A 
HETATM    7 CL   UNL     1      61.680   9.119   0.994  1.00  0.00    -0.084 Cl
ENDROOT
BRANCH   1   8
HETATM    8  N   UNL     1      63.212   9.955   5.803  1.00  0.00    -0.398 N 
HETATM    9  H   UNL     1      63.226  10.925   5.636  1.00  0.00     0.156 HD
HETATM   10  H   UNL     1      63.236   9.613   6.725  1.00  0.00     0.156 HD
ENDBRANCH   1   8
BRANCH   3  11
HETATM   11  S   UNL     1      64.681   7.212   6.206  1.00  0.00    -0.132 SA
HETATM   12  C   UNL     1      66.302   8.006   6.058  1.00  0.00     0.095 C 
ENDBRANCH   3  11
TORSDOF 2
ENDMDL
MODEL 4
REMARK VINA RESULT:      -3.5      3.094      4.200
REMARK  2 active torsions:
REMARK  status: ('A' for Active; 'I' for Inactive)
REMARK    1  A    between atoms: C_1  and  N_6 
REMARK    2  A    between atoms: C_3  and  S_7 
ROOT
HETATM    1  C   UNL     1      64.043   8.940   4.828  1.00  0.00     0.044 A 
HETATM    2  C   UNL     1      65.221   8.250   5.145  1.00  0.00     0.054 A 
HETATM    3  C   UNL     1      63.187   8.413   3.837  1.00  0.00     0.026 A 
HETATM    4  C   UNL     1      63.569   7.269   3.121  1.00  0.00     0.022 A 
HETATM    5  C   UNL     1      65.596   7.119   4.418  1.00  0.00     0.036 A 
HETATM    6  C   UNL     1      64.776   6.626   3.408  1.00  0.00     0.025 A 
HETATM    7 CL   UNL     1      67.087   6.336   4.767  1.00  0.00    -0.084 Cl
ENDROOT
BRANCH   1   8
HETATM    8  N   UNL     1      63.652  10.024   5.640  1.00  0.00    -0.398 N 
HETATM    9  H   UNL     1      63.889  10.034   6.595  1.00  0.00     0.156 HD
HETATM   10  H   UNL     1      63.144  10.771   5.250  1.00  0.00     0.156 HD
ENDBRANCH   1   8
BRANCH   3  11
HETATM   11  S   UNL     1      61.671   9.239   3.336  1.00  0.00    -0.132 SA
HETATM   12  C   UNL     1      62.035   9.565   1.592  1.00  0.00     0.095 C 
ENDBRANCH   3  11
TORSDOF 2
ENDMDL
MODEL 5
REMARK VINA RESULT:      -3.4      3.751      4.720
REMARK  2 active torsions:
REMARK  status: ('A' for Active; 'I' for Inactive)
REMARK    1  A    between atoms: C_1  and  N_6 
REMARK    2  A    between atoms: C_3  and  S_7 
ROOT
HETATM    1  C   UNL     1      66.298   7.765   6.173  1.00  0.00     0.044 A 
HETATM    2  C   UNL     1      65.557   8.324   5.124  1.00  0.00     0.054 A 
HETATM    3  C   UNL     1      65.687   6.803   7.007  1.00  0.00     0.026 A 
HETATM    4  C   UNL     1      64.330   6.494   6.836  1.00  0.00     0.022 A 
HETATM    5  C   UNL     1      64.205   8.016   4.970  1.00  0.00     0.036 A 
HETATM    6  C   UNL     1      63.588   7.103   5.821  1.00  0.00     0.025 A 
HETATM    7 CL   UNL     1      63.292   8.777   3.727  1.00  0.00    -0.084 Cl
ENDROOT
BRANCH   1   8
HETATM    8  N   UNL     1      67.681   8.029   6.244  1.00  0.00    -0.398 N 
HETATM    9  H   UNL     1      68.025   8.917   5.995  1.00  0.00     0.156 HD
HETATM   10  H   UNL     1      68.301   7.327   6.545  1.00  0.00     0.156 HD
ENDBRANCH   1   8
BRANCH   3  11
HETATM   11  S   UNL     1      66.541   6.053   8.399  1.00  0.00    -0.132 SA
HETATM   12  C   UNL     1      67.260   4.597   7.598  1.00  0.00     0.095 C 
ENDBRANCH   3  11
TORSDOF 2
ENDMDL
MODEL 6
REMARK VINA RESULT:      -3.3      2.165      2.749
REMARK  2 active torsions:
REMARK  status: ('A' for Active; 'I' for Inactive)
REMARK    1  A    between atoms: C_1  and  N_6 
REMARK    2  A    between atoms: C_3  and  S_7 
ROOT
HETATM    1  C   UNL     1      63.723   7.201   3.649  1.00  0.00     0.044 A 
HETATM    2  C   UNL     1      63.012   7.884   2.653  1.00  0.00     0.054 A 
HETATM    3  C   UNL     1      63.806   7.767   4.940  1.00  0.00     0.026 A 
HETATM    4  C   UNL     1      63.264   9.037   5.181  1.00  0.00     0.022 A 
HETATM    5  C   UNL     1      62.487   9.153   2.902  1.00  0.00     0.036 A 
HETATM    6  C   UNL     1      62.610   9.732   4.161  1.00  0.00     0.025 A 
HETATM    7 CL   UNL     1      61.691  10.010   1.641  1.00  0.00    -0.084 Cl
ENDROOT
BRANCH   1   8
HETATM    8  N   UNL     1      64.162   5.887   3.390  1.00  0.00    -0.398 N 
HETATM    9  H   UNL     1      64.084   5.512   2.483  1.00  0.00     0.156 HD
HETATM   10  H   UNL     1      64.548   5.346   4.115  1.00  0.00     0.156 HD
ENDBRANCH   1   8
BRANCH   3  11
HETATM   11  S   UNL     1      64.721   6.986   6.275  1.00  0.00    -0.132 SA
HETATM   12  C   UNL     1      66.260   7.940   6.221  1.00  0.00     0.095 C 
ENDBRANCH   3  11
TORSDOF 2
ENDMDL
MODEL 7
REMARK VINA RESULT:      -3.3      1.710      2.122
REMARK  2 active torsions:
REMARK  status: ('A' for Active; 'I' for Inactive)
REMARK    1  A    between atoms: C_1  and  N_6 
REMARK    2  A    between atoms: C_3  and  S_7 
ROOT
HETATM    1  C   UNL     1      64.399   7.997   5.045  1.00  0.00     0.044 A 
HETATM    2  C   UNL     1      63.671   9.163   4.774  1.00  0.00     0.054 A 
HETATM    3  C   UNL     1      64.326   6.917   4.137  1.00  0.00     0.026 A 
HETATM    4  C   UNL     1      63.460   6.989   3.038  1.00  0.00     0.022 A 
HETATM    5  C   UNL     1      62.803   9.217   3.681  1.00  0.00     0.036 A 
HETATM    6  C   UNL     1      62.695   8.135   2.812  1.00  0.00     0.025 A 
HETATM    7 CL   UNL     1      61.855  10.627   3.414  1.00  0.00    -0.084 Cl
ENDROOT
BRANCH   1   8
HETATM    8  N   UNL     1      65.330   8.009   6.103  1.00  0.00    -0.398 N 
HETATM    9  H   UNL     1      65.018   7.928   7.033  1.00  0.00     0.156 HD
HETATM   10  H   UNL     1      66.291   8.097   5.911  1.00  0.00     0.156 HD
ENDBRANCH   1   8
BRANCH   3  11
HETATM   11  S   UNL     1      65.196   5.369   4.412  1.00  0.00    -0.132 SA
HETATM   12  C   UNL     1      66.726   5.683   3.495  1.00  0.00     0.095 C 
ENDBRANCH   3  11
TORSDOF 2
ENDMDL
MODEL 8
REMARK VINA RESULT:      -3.2      4.079      5.396
REMARK  2 active torsions:
REMARK  status: ('A' for Active; 'I' for Inactive)
REMARK    1  A    between atoms: C_1  and  N_6 
REMARK    2  A    between atoms: C_3  and  S_7 
ROOT
HETATM    1  C   UNL     1      63.731   7.097   6.239  1.00  0.00     0.044 A 
HETATM    2  C   UNL     1      64.763   6.480   6.959  1.00  0.00     0.054 A 
HETATM    3  C   UNL     1      64.054   8.113   5.314  1.00  0.00     0.026 A 
HETATM    4  C   UNL     1      65.380   8.554   5.197  1.00  0.00     0.022 A 
HETATM    5  C   UNL     1      66.077   6.935   6.842  1.00  0.00     0.036 A 
HETATM    6  C   UNL     1      66.390   7.969   5.965  1.00  0.00     0.025 A 
HETATM    7 CL   UNL     1      67.317   6.220   7.797  1.00  0.00    -0.084 Cl
ENDROOT
BRANCH   1   8
HETATM    8  N   UNL     1      62.432   6.554   6.315  1.00  0.00    -0.398 N 
HETATM    9  H   UNL     1      61.978   6.251   5.496  1.00  0.00     0.156 HD
HETATM   10  H   UNL     1      61.982   6.477   7.186  1.00  0.00     0.156 HD
ENDBRANCH   1   8
BRANCH   3  11
HETATM   11  S   UNL     1      62.801   8.987   4.368  1.00  0.00    -0.132 SA
HETATM   12  C   UNL     1      62.827  10.597   5.197  1.00  0.00     0.095 C 
ENDBRANCH   3  11
TORSDOF 2
ENDMDL
MODEL 9
REMARK VINA RESULT:      -3.2      3.177      4.300
REMARK  2 active torsions:
REMARK  status: ('A' for Active; 'I' for Inactive)
REMARK    1  A    between atoms: C_1  and  N_6 
REMARK    2  A    between atoms: C_3  and  S_7 
ROOT
HETATM    1  C   UNL     1      64.052   6.939   3.252  1.00  0.00     0.044 A 
HETATM    2  C   UNL     1      65.106   7.064   4.167  1.00  0.00     0.054 A 
HETATM    3  C   UNL     1      63.064   7.947   3.205  1.00  0.00     0.026 A 
HETATM    4  C   UNL     1      63.097   9.000   4.130  1.00  0.00     0.022 A 
HETATM    5  C   UNL     1      65.122   8.111   5.090  1.00  0.00     0.036 A 
HETATM    6  C   UNL     1      64.122   9.079   5.076  1.00  0.00     0.025 A 
HETATM    7 CL   UNL     1      66.380   8.199   6.260  1.00  0.00    -0.084 Cl
ENDROOT
BRANCH   1   8
HETATM    8  N   UNL     1      64.115   5.922   2.279  1.00  0.00    -0.398 N 
HETATM    9  H   UNL     1      64.868   5.893   1.646  1.00  0.00     0.156 HD
HETATM   10  H   UNL     1      63.406   5.241   2.234  1.00  0.00     0.156 HD
ENDBRANCH   1   8
BRANCH   3  11
HETATM   11  S   UNL     1      61.656   7.863   2.091  1.00  0.00    -0.132 SA
HETATM   12  C   UNL     1      62.161   9.062   0.832  1.00  0.00     0.095 C 
ENDBRANCH   3  11
TORSDOF 2
ENDMDL
