MODEL 1
REMARK VINA RESULT:      -3.6      0.000      0.000
REMARK  0 active torsions:
REMARK  status: ('A' for Active; 'I' for Inactive)
ROOT
HETATM    1  N   UNL     1      62.704   8.651   3.399  1.00  0.00    -0.303 N 
ATOM      2  HN  UNL     1      63.010   8.059   4.170  1.00  0.00     0.186 HD
HETATM    3  N   UNL     1      62.391   9.960   3.436  1.00  0.00    -0.301 N 
HETATM    4  C   UNL     1      62.019  10.465   2.218  1.00  0.00     0.026 A 
HETATM    5  C   UNL     1      62.083   9.399   1.344  1.00  0.00     0.052 A 
HETATM    6  C   UNL     1      62.522   8.305   2.121  1.00  0.00     0.024 A 
HETATM    7  C   UNL     1      62.488  10.649   4.702  1.00  0.00     0.177 C 
HETATM    8  C   UNL     1      61.651  11.881   1.981  1.00  0.00     0.070 C 
HETATM    9  C   UNL     1      62.791   6.916   1.678  1.00  0.00     0.070 C 
ENDROOT
TORSDOF 0
ENDMDL
MODEL 2
REMARK VINA RESULT:      -3.5      1.385      2.313
REMARK  0 active torsions:
REMARK  status: ('A' for Active; 'I' for Inactive)
ROOT
HETATM    1  N   UNL     1      63.046   8.452   3.009  1.00  0.00    -0.303 N 
ATOM      2  HN  UNL     1      63.407   7.569   2.647  1.00  0.00     0.186 HD
HETATM    3  N   UNL     1      63.333   9.041   4.185  1.00  0.00    -0.301 N 
HETATM    4  C   UNL     1      62.683  10.233   4.368  1.00  0.00     0.026 A 
HETATM    5  C   UNL     1      61.913  10.409   3.237  1.00  0.00     0.052 A 
HETATM    6  C   UNL     1      62.182   9.286   2.423  1.00  0.00     0.024 A 
HETATM    7  C   UNL     1      64.260   8.378   5.071  1.00  0.00     0.177 C 
HETATM    8  C   UNL     1      62.843  11.093   5.565  1.00  0.00     0.070 C 
HETATM    9  C   UNL     1      61.645   8.980   1.076  1.00  0.00     0.070 C 
ENDROOT
TORSDOF 0
ENDMDL
MODEL 3
REMARK VINA RESULT:      -3.5      1.371      2.496
REMARK  0 active torsions:
REMARK  status: ('A' for Active; 'I' for Inactive)
ROOT
HETATM    1  N   UNL     1      62.448   8.257   3.002  1.00  0.00    -0.303 N 
ATOM      2  HN  UNL     1      62.596   7.273   2.779  1.00  0.00     0.186 HD
HETATM    3  N   UNL     1      62.192   9.268   2.151  1.00  0.00    -0.301 N 
HETATM    4  C   UNL     1      62.037  10.478   2.776  1.00  0.00     0.026 A 
HETATM    5  C   UNL     1      62.224  10.224   4.119  1.00  0.00     0.052 A 
HETATM    6  C   UNL     1      62.464   8.836   4.207  1.00  0.00     0.024 A 
HETATM    7  C   UNL     1      62.106   8.967   0.741  1.00  0.00     0.177 C 
HETATM    8  C   UNL     1      61.723  11.744   2.071  1.00  0.00     0.070 C 
HETATM    9  C   UNL     1      62.700   8.021   5.423  1.00  0.00     0.070 C 
ENDROOT
TORSDOF 0
ENDMDL
MODEL 4
REMARK VINA RESULT:      -3.4      1.110      3.077
REMARK  0 active torsions:
REMARK  status: ('A' for Active; 'I' for Inactive)
ROOT
HETATM    1  N   UNL     1      63.173   9.125   4.320  1.00  0.00    -0.303 N 
ATOM      2  HN  UNL     1      63.706   8.727   5.094  1.00  0.00     0.186 HD
HETATM    3  N   UNL     1      62.904   8.562   3.127  1.00  0.00    -0.301 N 
HETATM    4  C   UNL     1      62.153   9.361   2.306  1.00  0.00     0.026 A 
HETATM    5  C   UNL     1      61.942  10.524   3.018  1.00  0.00     0.052 A 
HETATM    6  C   UNL     1      62.583  10.323   4.260  1.00  0.00     0.024 A 
HETATM    7  C   UNL     1      63.410   7.234   2.870  1.00  0.00     0.177 C 
HETATM    8  C   UNL     1      61.699   8.969   0.951  1.00  0.00     0.070 C 
HETATM    9  C   UNL     1      62.645  11.244   5.420  1.00  0.00     0.070 C 
ENDROOT
TORSDOF 0
ENDMDL
MODEL 5
REMARK VINA RESULT:      -3.4      1.257      3.429
REMARK  0 active torsions:
REMARK  status: ('A' for Active; 'I' for Inactive)
ROOT
HETATM    1  N   UNL     1      62.276   9.517   2.018  1.00  0.00    -0.303 N 
ATOM      2  HN  UNL     1      62.232   9.376   1.009  1.00  0.00     0.186 HD
HETATM    3  N   UNL     1      62.606   8.618   2.964  1.00  0.00    -0.301 N 
HETATM    4  C   UNL     1      62.575   9.129   4.235  1.00  0.00     0.026 A 
HETATM    5  C   UNL     1      62.179  10.443   4.091  1.00  0.00     0.052 A 
HETATM    6  C   UNL     1      62.018  10.636   2.702  1.00  0.00     0.024 A 
HETATM    7  C   UNL     1      62.948   7.280   2.542  1.00  0.00     0.177 C 
HETATM    8  C   UNL     1      62.920   8.357   5.452  1.00  0.00     0.070 C 
HETATM    9  C   UNL     1      61.633  11.876   1.987  1.00  0.00     0.070 C 
ENDROOT
TORSDOF 0
ENDMDL
MODEL 6
REMARK VINA RESULT:      -3.3      1.566      2.720
REMARK  0 active torsions:
REMARK  status: ('A' for Active; 'I' for Inactive)
ROOT
HETATM    1  N   UNL     1      61.972  10.227   3.388  1.00  0.00    -0.303 N 
ATOM      2  HN  UNL     1      61.352  11.028   3.264  1.00  0.00     0.186 HD
HETATM    3  N   UNL     1      62.811   9.985   4.413  1.00  0.00    -0.301 N 
HETATM    4  C   UNL     1      63.504   8.810   4.280  1.00  0.00     0.026 A 
HETATM    5  C   UNL     1      63.090   8.274   3.078  1.00  0.00     0.052 A 
HETATM    6  C   UNL     1      62.135   9.182   2.572  1.00  0.00     0.024 A 
HETATM    7  C   UNL     1      62.872  10.947   5.488  1.00  0.00     0.177 C 
HETATM    8  C   UNL     1      64.471   8.296   5.279  1.00  0.00     0.070 C 
HETATM    9  C   UNL     1      61.348   9.082   1.320  1.00  0.00     0.070 C 
ENDROOT
TORSDOF 0
ENDMDL
MODEL 7
REMARK VINA RESULT:      -3.3      0.937      3.046
REMARK  0 active torsions:
REMARK  status: ('A' for Active; 'I' for Inactive)
ROOT
HETATM    1  N   UNL     1      62.327   9.911   3.380  1.00  0.00    -0.303 N 
ATOM      2  HN  UNL     1      62.352  10.415   4.267  1.00  0.00     0.186 HD
HETATM    3  N   UNL     1      62.579   8.606   3.164  1.00  0.00    -0.301 N 
HETATM    4  C   UNL     1      62.452   8.239   1.850  1.00  0.00     0.026 A 
HETATM    5  C   UNL     1      62.112   9.394   1.178  1.00  0.00     0.052 A 
HETATM    6  C   UNL     1      62.037  10.396   2.169  1.00  0.00     0.024 A 
HETATM    7  C   UNL     1      62.929   7.783   4.298  1.00  0.00     0.177 C 
HETATM    8  C   UNL     1      62.649   6.858   1.349  1.00  0.00     0.070 C 
HETATM    9  C   UNL     1      61.678  11.825   2.004  1.00  0.00     0.070 C 
ENDROOT
TORSDOF 0
ENDMDL
MODEL 8
REMARK VINA RESULT:      -3.2      2.612      4.203
REMARK  0 active torsions:
REMARK  status: ('A' for Active; 'I' for Inactive)
ROOT
HETATM    1  N   UNL     1      64.465   9.152   5.650  1.00  0.00    -0.303 N 
ATOM      2  HN  UNL     1      64.924   9.534   6.477  1.00  0.00     0.186 HD
HETATM    3  N   UNL     1      64.764   8.017   4.991  1.00  0.00    -0.301 N 
HETATM    4  C   UNL     1      63.948   7.783   3.915  1.00  0.00     0.026 A 
HETATM    5  C   UNL     1      63.078   8.853   3.875  1.00  0.00     0.052 A 
HETATM    6  C   UNL     1      63.432   9.665   4.974  1.00  0.00     0.024 A 
HETATM    7  C   UNL     1      65.857   7.211   5.481  1.00  0.00     0.177 C 
HETATM    8  C   UNL     1      64.047   6.592   3.039  1.00  0.00     0.070 C 
HETATM    9  C   UNL     1      62.802  10.930   5.421  1.00  0.00     0.070 C 
ENDROOT
TORSDOF 0
ENDMDL
MODEL 9
REMARK VINA RESULT:      -3.1      4.439      5.346
REMARK  0 active torsions:
REMARK  status: ('A' for Active; 'I' for Inactive)
ROOT
HETATM    1  N   UNL     1      63.977   7.302   6.558  1.00  0.00    -0.303 N 
ATOM      2  HN  UNL     1      63.236   6.996   7.188  1.00  0.00     0.186 HD
HETATM    3  N   UNL     1      65.305   7.127   6.699  1.00  0.00    -0.301 N 
HETATM    4  C   UNL     1      66.035   7.657   5.667  1.00  0.00     0.026 A 
HETATM    5  C   UNL     1      65.109   8.226   4.817  1.00  0.00     0.052 A 
HETATM    6  C   UNL     1      63.852   7.970   5.407  1.00  0.00     0.024 A 
HETATM    7  C   UNL     1      65.780   6.422   7.866  1.00  0.00     0.177 C 
HETATM    8  C   UNL     1      67.512   7.577   5.566  1.00  0.00     0.070 C 
HETATM    9  C   UNL     1      62.509   8.335   4.898  1.00  0.00     0.070 C 
ENDROOT
TORSDOF 0
ENDMDL
