MODEL 1
REMARK VINA RESULT:      -3.5      0.000      0.000
REMARK  3 active torsions:
REMARK  status: ('A' for Active; 'I' for Inactive)
REMARK    1  A    between atoms: N_1  and  C_4 
REMARK    2  A    between atoms: C_4  and  C_7 
REMARK    3  A    between atoms: N_5  and  C_7 
ROOT
HETATM    1  N   UNL     1      62.443   9.739   3.013  1.00  0.00    -0.059 N 
HETATM    2  S   UNL     1      62.427   7.060   1.211  1.00  0.00    -0.166 SA
HETATM    3  C   UNL     1      61.657   9.686   1.762  1.00  0.00     0.246 C 
HETATM    4  C   UNL     1      62.543   8.407   3.645  1.00  0.00     0.246 C 
HETATM    5  C   UNL     1      62.273   8.791   0.676  1.00  0.00     0.101 C 
HETATM    6  C   UNL     1      63.285   7.378   2.782  1.00  0.00     0.101 C 
HETATM    7  H   UNL     1      63.388  10.034   2.766  1.00  0.00     0.281 HD
ENDROOT
BRANCH   1   8
HETATM    8  C   UNL     1      61.899  10.747   3.956  1.00  0.00     0.338 C 
BRANCH   8   9
HETATM    9  C   UNL     1      62.776  11.053   5.159  1.00  0.00    -0.050 C 
BRANCH   9  10
HETATM   10  N   UNL     1      63.503  11.307   6.158  1.00  0.00    -0.368 N 
ATOM     11  HN2 UNL     1      62.908  11.076   5.362  1.00  0.00     0.165 HD
ATOM     12  HN1 UNL     1      64.091  11.513   6.965  1.00  0.00     0.165 HD
ENDBRANCH   9  10
ENDBRANCH   8   9
ENDBRANCH   1   8
TORSDOF 3
ENDMDL
MODEL 2
REMARK VINA RESULT:      -3.4      1.091      1.977
REMARK  3 active torsions:
REMARK  status: ('A' for Active; 'I' for Inactive)
REMARK    1  A    between atoms: N_1  and  C_4 
REMARK    2  A    between atoms: C_4  and  C_7 
REMARK    3  A    between atoms: N_5  and  C_7 
ROOT
HETATM    1  N   UNL     1      61.362   9.834   3.073  1.00  0.00    -0.059 N 
HETATM    2  S   UNL     1      61.597   6.821   1.937  1.00  0.00    -0.166 SA
HETATM    3  C   UNL     1      61.793   8.733   3.961  1.00  0.00     0.246 C 
HETATM    4  C   UNL     1      61.765   9.588   1.673  1.00  0.00     0.246 C 
HETATM    5  C   UNL     1      61.169   7.373   3.616  1.00  0.00     0.101 C 
HETATM    6  C   UNL     1      61.113   8.339   1.063  1.00  0.00     0.101 C 
HETATM    7  H   UNL     1      60.343   9.864   3.099  1.00  0.00     0.281 HD
ENDROOT
BRANCH   1   8
HETATM    8  C   UNL     1      61.855  11.148   3.556  1.00  0.00     0.338 C 
BRANCH   8   9
HETATM    9  C   UNL     1      62.613  11.114   4.873  1.00  0.00    -0.050 C 
BRANCH   9  10
HETATM   10  N   UNL     1      63.243  11.086   5.965  1.00  0.00    -0.368 N 
ATOM     11  HN2 UNL     1      62.742  11.081   5.076  1.00  0.00     0.165 HD
ATOM     12  HN1 UNL     1      63.752  11.063   6.848  1.00  0.00     0.165 HD
ENDBRANCH   9  10
ENDBRANCH   8   9
ENDBRANCH   1   8
TORSDOF 3
ENDMDL
MODEL 3
REMARK VINA RESULT:      -3.4      4.175      4.903
REMARK  3 active torsions:
REMARK  status: ('A' for Active; 'I' for Inactive)
REMARK    1  A    between atoms: N_1  and  C_4 
REMARK    2  A    between atoms: C_4  and  C_7 
REMARK    3  A    between atoms: N_5  and  C_7 
ROOT
HETATM    1  N   UNL     1      65.046   8.157   5.851  1.00  0.00    -0.059 N 
HETATM    2  S   UNL     1      67.216   5.916   6.684  1.00  0.00    -0.166 SA
HETATM    3  C   UNL     1      66.232   7.915   5.003  1.00  0.00     0.246 C 
HETATM    4  C   UNL     1      64.625   6.928   6.555  1.00  0.00     0.246 C 
HETATM    5  C   UNL     1      67.479   7.474   5.784  1.00  0.00     0.101 C 
HETATM    6  C   UNL     1      65.681   6.394   7.532  1.00  0.00     0.101 C 
HETATM    7  H   UNL     1      65.314   8.840   6.560  1.00  0.00     0.281 HD
ENDROOT
BRANCH   1   8
HETATM    8  C   UNL     1      63.929   8.745   5.071  1.00  0.00     0.338 C 
BRANCH   8   9
HETATM    9  C   UNL     1      63.506  10.142   5.493  1.00  0.00    -0.050 C 
BRANCH   9  10
HETATM   10  N   UNL     1      63.154  11.302   5.843  1.00  0.00    -0.368 N 
ATOM     11  HN2 UNL     1      63.445  10.358   5.588  1.00  0.00     0.165 HD
ATOM     12  HN1 UNL     1      62.870  12.239   6.126  1.00  0.00     0.165 HD
ENDBRANCH   9  10
ENDBRANCH   8   9
ENDBRANCH   1   8
TORSDOF 3
ENDMDL
MODEL 4
REMARK VINA RESULT:      -3.4      3.099      3.821
REMARK  3 active torsions:
REMARK  status: ('A' for Active; 'I' for Inactive)
REMARK    1  A    between atoms: N_1  and  C_4 
REMARK    2  A    between atoms: C_4  and  C_7 
REMARK    3  A    between atoms: N_5  and  C_7 
ROOT
HETATM    1  N   UNL     1      63.472   8.224   4.895  1.00  0.00    -0.059 N 
HETATM    2  S   UNL     1      65.114   6.063   6.645  1.00  0.00    -0.166 SA
HETATM    3  C   UNL     1      62.822   7.531   6.029  1.00  0.00     0.246 C 
HETATM    4  C   UNL     1      64.922   8.387   5.123  1.00  0.00     0.246 C 
HETATM    5  C   UNL     1      63.337   6.103   6.265  1.00  0.00     0.101 C 
HETATM    6  C   UNL     1      65.677   7.054   5.228  1.00  0.00     0.101 C 
HETATM    7  H   UNL     1      63.355   7.633   4.072  1.00  0.00     0.281 HD
ENDROOT
BRANCH   1   8
HETATM    8  C   UNL     1      62.819   9.524   4.605  1.00  0.00     0.338 C 
BRANCH   8   9
HETATM    9  C   UNL     1      63.200  10.665   5.533  1.00  0.00    -0.050 C 
BRANCH   9  10
HETATM   10  N   UNL     1      63.517  11.613   6.302  1.00  0.00    -0.368 N 
ATOM     11  HN2 UNL     1      63.233  10.850   5.687  1.00  0.00     0.165 HD
ATOM     12  HN1 UNL     1      63.773  12.379   6.924  1.00  0.00     0.165 HD
ENDBRANCH   9  10
ENDBRANCH   8   9
ENDBRANCH   1   8
TORSDOF 3
ENDMDL
MODEL 5
REMARK VINA RESULT:      -3.3      1.024      1.024
REMARK  3 active torsions:
REMARK  status: ('A' for Active; 'I' for Inactive)
REMARK    1  A    between atoms: N_1  and  C_4 
REMARK    2  A    between atoms: C_4  and  C_7 
REMARK    3  A    between atoms: N_5  and  C_7 
ROOT
HETATM    1  N   UNL     1      62.722   9.247   3.381  1.00  0.00    -0.059 N 
HETATM    2  S   UNL     1      63.168   6.207   2.391  1.00  0.00    -0.166 SA
HETATM    3  C   UNL     1      61.792   8.635   2.408  1.00  0.00     0.246 C 
HETATM    4  C   UNL     1      63.291   8.235   4.294  1.00  0.00     0.246 C 
HETATM    5  C   UNL     1      62.452   7.606   1.477  1.00  0.00     0.101 C 
HETATM    6  C   UNL     1      64.144   7.178   3.577  1.00  0.00     0.101 C 
HETATM    7  H   UNL     1      63.494   9.651   2.851  1.00  0.00     0.281 HD
ENDROOT
BRANCH   1   8
HETATM    8  C   UNL     1      62.076  10.352   4.132  1.00  0.00     0.338 C 
BRANCH   8   9
HETATM    9  C   UNL     1      62.893  10.926   5.277  1.00  0.00    -0.050 C 
BRANCH   9  10
HETATM   10  N   UNL     1      63.572  11.404   6.227  1.00  0.00    -0.368 N 
ATOM     11  HN2 UNL     1      63.009  11.001   5.477  1.00  0.00     0.165 HD
ATOM     12  HN1 UNL     1      64.120  11.790   6.994  1.00  0.00     0.165 HD
ENDBRANCH   9  10
ENDBRANCH   8   9
ENDBRANCH   1   8
TORSDOF 3
ENDMDL
MODEL 6
REMARK VINA RESULT:      -3.3      2.634      3.728
REMARK  3 active torsions:
REMARK  status: ('A' for Active; 'I' for Inactive)
REMARK    1  A    between atoms: N_1  and  C_4 
REMARK    2  A    between atoms: C_4  and  C_7 
REMARK    3  A    between atoms: N_5  and  C_7 
ROOT
HETATM    1  N   UNL     1      63.463   9.069   5.748  1.00  0.00    -0.059 N 
HETATM    2  S   UNL     1      64.385   5.996   5.382  1.00  0.00    -0.166 SA
HETATM    3  C   UNL     1      64.761   8.749   5.115  1.00  0.00     0.246 C 
HETATM    4  C   UNL     1      62.465   8.009   5.498  1.00  0.00     0.246 C 
HETATM    5  C   UNL     1      65.417   7.468   5.652  1.00  0.00     0.101 C 
HETATM    6  C   UNL     1      62.851   6.653   6.105  1.00  0.00     0.101 C 
HETATM    7  H   UNL     1      63.620   9.113   6.755  1.00  0.00     0.281 HD
ENDROOT
BRANCH   1   8
HETATM    8  C   UNL     1      62.961  10.398   5.320  1.00  0.00     0.338 C 
BRANCH   8   9
HETATM    9  C   UNL     1      62.134  10.402   4.045  1.00  0.00    -0.050 C 
BRANCH   9  10
HETATM   10  N   UNL     1      61.447  10.405   2.988  1.00  0.00    -0.368 N 
ATOM     11  HN2 UNL     1      62.019  10.381   3.832  1.00  0.00     0.165 HD
ATOM     12  HN1 UNL     1      60.891  10.408   2.132  1.00  0.00     0.165 HD
ENDBRANCH   9  10
ENDBRANCH   8   9
ENDBRANCH   1   8
TORSDOF 3
ENDMDL
MODEL 7
REMARK VINA RESULT:      -3.3      1.961      2.799
REMARK  3 active torsions:
REMARK  status: ('A' for Active; 'I' for Inactive)
REMARK    1  A    between atoms: N_1  and  C_4 
REMARK    2  A    between atoms: C_4  and  C_7 
REMARK    3  A    between atoms: N_5  and  C_7 
ROOT
HETATM    1  N   UNL     1      63.114   8.539   4.398  1.00  0.00    -0.059 N 
HETATM    2  S   UNL     1      65.196   6.238   3.505  1.00  0.00    -0.166 SA
HETATM    3  C   UNL     1      64.492   8.529   4.936  1.00  0.00     0.246 C 
HETATM    4  C   UNL     1      63.061   7.963   3.039  1.00  0.00     0.246 C 
HETATM    5  C   UNL     1      65.091   7.123   5.090  1.00  0.00     0.101 C 
HETATM    6  C   UNL     1      63.471   6.485   2.987  1.00  0.00     0.101 C 
HETATM    7  H   UNL     1      62.548   7.947   5.005  1.00  0.00     0.281 HD
ENDROOT
BRANCH   1   8
HETATM    8  C   UNL     1      62.525   9.900   4.434  1.00  0.00     0.338 C 
BRANCH   8   9
HETATM    9  C   UNL     1      63.088  10.825   5.501  1.00  0.00    -0.050 C 
BRANCH   9  10
HETATM   10  N   UNL     1      63.555  11.591   6.387  1.00  0.00    -0.368 N 
ATOM     11  HN2 UNL     1      63.174  10.994   5.653  1.00  0.00     0.165 HD
ATOM     12  HN1 UNL     1      63.933  12.211   7.104  1.00  0.00     0.165 HD
ENDBRANCH   9  10
ENDBRANCH   8   9
ENDBRANCH   1   8
TORSDOF 3
ENDMDL
MODEL 8
REMARK VINA RESULT:      -3.2      2.541      3.348
REMARK  3 active torsions:
REMARK  status: ('A' for Active; 'I' for Inactive)
REMARK    1  A    between atoms: N_1  and  C_4 
REMARK    2  A    between atoms: C_4  and  C_7 
REMARK    3  A    between atoms: N_5  and  C_7 
ROOT
HETATM    1  N   UNL     1      60.719   8.705   2.602  1.00  0.00    -0.059 N 
HETATM    2  S   UNL     1      59.478   6.105   1.144  1.00  0.00    -0.166 SA
HETATM    3  C   UNL     1      60.810   7.375   3.242  1.00  0.00     0.246 C 
HETATM    4  C   UNL     1      60.721   8.596   1.129  1.00  0.00     0.246 C 
HETATM    5  C   UNL     1      59.629   6.447   2.924  1.00  0.00     0.101 C 
HETATM    6  C   UNL     1      59.513   7.830   0.572  1.00  0.00     0.101 C 
HETATM    7  H   UNL     1      59.826   9.113   2.879  1.00  0.00     0.281 HD
ENDROOT
BRANCH   1   8
HETATM    8  C   UNL     1      61.789   9.614   3.080  1.00  0.00     0.338 C 
BRANCH   8   9
HETATM    9  C   UNL     1      61.823  10.983   2.420  1.00  0.00    -0.050 C 
BRANCH   9  10
HETATM   10  N   UNL     1      61.851  12.118   1.870  1.00  0.00    -0.368 N 
ATOM     11  HN2 UNL     1      61.838  11.188   2.290  1.00  0.00     0.165 HD
ATOM     12  HN1 UNL     1      61.874  13.035   1.427  1.00  0.00     0.165 HD
ENDBRANCH   9  10
ENDBRANCH   8   9
ENDBRANCH   1   8
TORSDOF 3
ENDMDL
MODEL 9
REMARK VINA RESULT:      -2.9      4.772      5.595
REMARK  3 active torsions:
REMARK  status: ('A' for Active; 'I' for Inactive)
REMARK    1  A    between atoms: N_1  and  C_4 
REMARK    2  A    between atoms: C_4  and  C_7 
REMARK    3  A    between atoms: N_5  and  C_7 
ROOT
HETATM    1  N   UNL     1      64.320   7.468   6.448  1.00  0.00    -0.059 N 
HETATM    2  S   UNL     1      67.367   6.434   6.719  1.00  0.00    -0.166 SA
HETATM    3  C   UNL     1      65.399   8.107   5.663  1.00  0.00     0.246 C 
HETATM    4  C   UNL     1      64.610   6.042   6.703  1.00  0.00     0.246 C 
HETATM    5  C   UNL     1      66.763   8.112   6.367  1.00  0.00     0.101 C 
HETATM    6  C   UNL     1      65.871   5.819   7.549  1.00  0.00     0.101 C 
HETATM    7  H   UNL     1      64.283   7.940   7.351  1.00  0.00     0.281 HD
ENDROOT
BRANCH   1   8
HETATM    8  C   UNL     1      62.997   7.645   5.801  1.00  0.00     0.338 C 
BRANCH   8   9
HETATM    9  C   UNL     1      61.898   6.723   6.304  1.00  0.00    -0.050 C 
BRANCH   9  10
HETATM   10  N   UNL     1      60.986   5.959   6.721  1.00  0.00    -0.368 N 
ATOM     11  HN2 UNL     1      61.704   6.598   6.380  1.00  0.00     0.165 HD
ATOM     12  HN1 UNL     1      60.249   5.340   7.058  1.00  0.00     0.165 HD
ENDBRANCH   9  10
ENDBRANCH   8   9
ENDBRANCH   1   8
TORSDOF 3
ENDMDL
