MODEL 1
REMARK VINA RESULT:      -4.4      0.000      0.000
REMARK  2 active torsions:
REMARK  status: ('A' for Active; 'I' for Inactive)
REMARK    1  A    between atoms: C_2  and  N_7 
REMARK    2  A    between atoms: C_3  and  N_6 
ROOT
HETATM    1  C   UNL     1      63.203   8.227   3.680  1.00  0.00     0.097 A 
HETATM    2  C   UNL     1      63.759   8.668   4.924  1.00  0.00     0.052 A 
HETATM    3  C   UNL     1      62.242   8.993   2.941  1.00  0.00     0.052 A 
HETATM    4  C   UNL     1      63.746   7.043   3.069  1.00  0.00     0.104 C 
HETATM    5  N   UNL     1      64.167   6.073   2.587  1.00  0.00    -0.191 NA
HETATM    6  C   UNL     1      63.376   9.950   5.358  1.00  0.00     0.031 A 
HETATM    7  C   UNL     1      61.924  10.263   3.462  1.00  0.00     0.031 A 
HETATM    8  C   UNL     1      62.484  10.740   4.641  1.00  0.00     0.005 A 
ENDROOT
BRANCH   2   9
HETATM    9  N   UNL     1      64.660   7.935   5.701  1.00  0.00    -0.388 N 
HETATM   10  C   UNL     1      66.109   8.106   5.626  1.00  0.00     0.149 C 
HETATM   11  C   UNL     1      64.199   6.830   6.538  1.00  0.00     0.149 C 
ENDBRANCH   2   9
BRANCH   3  12
HETATM   12  N   UNL     1      61.635   8.581   1.753  1.00  0.00    -0.388 N 
HETATM   13  C   UNL     1      60.336   7.912   1.704  1.00  0.00     0.149 C 
HETATM   14  C   UNL     1      62.225   8.912   0.459  1.00  0.00     0.149 C 
ENDBRANCH   3  12
TORSDOF 2
ENDMDL
MODEL 2
REMARK VINA RESULT:      -4.2      0.301      4.255
REMARK  2 active torsions:
REMARK  status: ('A' for Active; 'I' for Inactive)
REMARK    1  A    between atoms: C_2  and  N_7 
REMARK    2  A    between atoms: C_3  and  N_6 
ROOT
HETATM    1  C   UNL     1      63.221   8.116   3.531  1.00  0.00     0.097 A 
HETATM    2  C   UNL     1      62.283   8.914   2.800  1.00  0.00     0.052 A 
HETATM    3  C   UNL     1      63.832   8.554   4.752  1.00  0.00     0.052 A 
HETATM    4  C   UNL     1      63.440   6.758   3.109  1.00  0.00     0.104 C 
HETATM    5  N   UNL     1      63.637   5.669   2.753  1.00  0.00    -0.191 NA
HETATM    6  C   UNL     1      61.917  10.139   3.388  1.00  0.00     0.031 A 
HETATM    7  C   UNL     1      63.398   9.796   5.255  1.00  0.00     0.031 A 
HETATM    8  C   UNL     1      62.453  10.572   4.595  1.00  0.00     0.005 A 
ENDROOT
BRANCH   2   9
HETATM    9  N   UNL     1      61.701   8.548   1.584  1.00  0.00    -0.388 N 
HETATM   10  C   UNL     1      62.354   8.740   0.291  1.00  0.00     0.149 C 
HETATM   11  C   UNL     1      60.318   8.081   1.527  1.00  0.00     0.149 C 
ENDBRANCH   2   9
BRANCH   3  12
HETATM   12  N   UNL     1      64.789   7.833   5.470  1.00  0.00    -0.388 N 
HETATM   13  C   UNL     1      66.229   8.020   5.303  1.00  0.00     0.149 C 
HETATM   14  C   UNL     1      64.390   6.920   6.538  1.00  0.00     0.149 C 
ENDBRANCH   3  12
TORSDOF 2
ENDMDL
MODEL 3
REMARK VINA RESULT:      -4.1      1.526      5.022
REMARK  2 active torsions:
REMARK  status: ('A' for Active; 'I' for Inactive)
REMARK    1  A    between atoms: C_2  and  N_7 
REMARK    2  A    between atoms: C_3  and  N_6 
ROOT
HETATM    1  C   UNL     1      63.863   7.965   4.311  1.00  0.00     0.097 A 
HETATM    2  C   UNL     1      63.058   7.723   3.151  1.00  0.00     0.052 A 
HETATM    3  C   UNL     1      64.965   7.127   4.683  1.00  0.00     0.052 A 
HETATM    4  C   UNL     1      63.657   9.186   5.045  1.00  0.00     0.104 C 
HETATM    5  N   UNL     1      63.474  10.159   5.653  1.00  0.00    -0.191 NA
HETATM    6  C   UNL     1      63.456   6.653   2.329  1.00  0.00     0.031 A 
HETATM    7  C   UNL     1      65.280   6.081   3.793  1.00  0.00     0.031 A 
HETATM    8  C   UNL     1      64.549   5.850   2.634  1.00  0.00     0.005 A 
ENDROOT
BRANCH   2   9
HETATM    9  N   UNL     1      61.947   8.484   2.777  1.00  0.00    -0.388 N 
HETATM   10  C   UNL     1      62.031   9.651   1.902  1.00  0.00     0.149 C 
HETATM   11  C   UNL     1      60.636   8.238   3.373  1.00  0.00     0.149 C 
ENDBRANCH   2   9
BRANCH   3  12
HETATM   12  N   UNL     1      65.744   7.293   5.830  1.00  0.00    -0.388 N 
HETATM   13  C   UNL     1      65.393   6.722   7.129  1.00  0.00     0.149 C 
HETATM   14  C   UNL     1      67.040   7.962   5.763  1.00  0.00     0.149 C 
ENDBRANCH   3  12
TORSDOF 2
ENDMDL
MODEL 4
REMARK VINA RESULT:      -3.9      1.592      3.005
REMARK  2 active torsions:
REMARK  status: ('A' for Active; 'I' for Inactive)
REMARK    1  A    between atoms: C_2  and  N_7 
REMARK    2  A    between atoms: C_3  and  N_6 
ROOT
HETATM    1  C   UNL     1      63.958   7.938   4.032  1.00  0.00     0.097 A 
HETATM    2  C   UNL     1      65.111   7.136   4.309  1.00  0.00     0.052 A 
HETATM    3  C   UNL     1      63.054   7.658   2.954  1.00  0.00     0.052 A 
HETATM    4  C   UNL     1      63.604   8.974   4.965  1.00  0.00     0.104 C 
HETATM    5  N   UNL     1      63.332   9.828   5.705  1.00  0.00    -0.191 NA
HETATM    6  C   UNL     1      65.277   5.988   3.514  1.00  0.00     0.031 A 
HETATM    7  C   UNL     1      63.310   6.485   2.217  1.00  0.00     0.031 A 
HETATM    8  C   UNL     1      64.394   5.659   2.492  1.00  0.00     0.005 A 
ENDROOT
BRANCH   2   9
HETATM    9  N   UNL     1      66.043   7.399   5.317  1.00  0.00    -0.388 N 
HETATM   10  C   UNL     1      67.372   7.948   5.058  1.00  0.00     0.149 C 
HETATM   11  C   UNL     1      65.788   6.992   6.697  1.00  0.00     0.149 C 
ENDBRANCH   2   9
BRANCH   3  12
HETATM   12  N   UNL     1      61.949   8.440   2.614  1.00  0.00    -0.388 N 
HETATM   13  C   UNL     1      60.621   8.249   3.194  1.00  0.00     0.149 C 
HETATM   14  C   UNL     1      62.093   9.593   1.730  1.00  0.00     0.149 C 
ENDBRANCH   3  12
TORSDOF 2
ENDMDL
MODEL 5
REMARK VINA RESULT:      -3.8      2.091      3.324
REMARK  2 active torsions:
REMARK  status: ('A' for Active; 'I' for Inactive)
REMARK    1  A    between atoms: C_2  and  N_7 
REMARK    2  A    between atoms: C_3  and  N_6 
ROOT
HETATM    1  C   UNL     1      61.118   7.875   3.367  1.00  0.00     0.097 A 
HETATM    2  C   UNL     1      62.202   8.810   3.296  1.00  0.00     0.052 A 
HETATM    3  C   UNL     1      60.247   7.607   2.260  1.00  0.00     0.052 A 
HETATM    4  C   UNL     1      60.995   7.057   4.544  1.00  0.00     0.104 C 
HETATM    5  N   UNL     1      60.880   6.415   5.505  1.00  0.00    -0.191 NA
HETATM    6  C   UNL     1      62.431   9.404   2.042  1.00  0.00     0.031 A 
HETATM    7  C   UNL     1      60.562   8.254   1.049  1.00  0.00     0.031 A 
HETATM    8  C   UNL     1      61.636   9.129   0.935  1.00  0.00     0.005 A 
ENDROOT
BRANCH   2   9
HETATM    9  N   UNL     1      63.044   9.137   4.362  1.00  0.00    -0.388 N 
HETATM   10  C   UNL     1      62.852  10.315   5.204  1.00  0.00     0.149 C 
HETATM   11  C   UNL     1      64.273   8.385   4.603  1.00  0.00     0.149 C 
ENDBRANCH   2   9
BRANCH   3  12
HETATM   12  N   UNL     1      59.150   6.745   2.298  1.00  0.00    -0.388 N 
HETATM   13  C   UNL     1      57.818   7.159   2.736  1.00  0.00     0.149 C 
HETATM   14  C   UNL     1      59.249   5.385   1.775  1.00  0.00     0.149 C 
ENDBRANCH   3  12
TORSDOF 2
ENDMDL
MODEL 6
REMARK VINA RESULT:      -3.8      2.375      4.498
REMARK  2 active torsions:
REMARK  status: ('A' for Active; 'I' for Inactive)
REMARK    1  A    between atoms: C_2  and  N_7 
REMARK    2  A    between atoms: C_3  and  N_6 
ROOT
HETATM    1  C   UNL     1      61.578   7.697   4.215  1.00  0.00     0.097 A 
HETATM    2  C   UNL     1      62.437   8.721   3.700  1.00  0.00     0.052 A 
HETATM    3  C   UNL     1      61.962   6.822   5.284  1.00  0.00     0.052 A 
HETATM    4  C   UNL     1      60.217   7.647   3.749  1.00  0.00     0.104 C 
HETATM    5  N   UNL     1      59.126   7.590   3.354  1.00  0.00    -0.191 NA
HETATM    6  C   UNL     1      63.670   8.888   4.357  1.00  0.00     0.031 A 
HETATM    7  C   UNL     1      63.216   7.073   5.873  1.00  0.00     0.031 A 
HETATM    8  C   UNL     1      64.053   8.090   5.429  1.00  0.00     0.005 A 
ENDROOT
BRANCH   2   9
HETATM    9  N   UNL     1      62.123   9.563   2.630  1.00  0.00    -0.388 N 
HETATM   10  C   UNL     1      62.192   9.145   1.232  1.00  0.00     0.149 C 
HETATM   11  C   UNL     1      61.847  10.981   2.850  1.00  0.00     0.149 C 
ENDBRANCH   2   9
BRANCH   3  12
HETATM   12  N   UNL     1      61.179   5.779   5.783  1.00  0.00    -0.388 N 
HETATM   13  C   UNL     1      61.134   4.449   5.179  1.00  0.00     0.149 C 
HETATM   14  C   UNL     1      60.440   5.931   7.033  1.00  0.00     0.149 C 
ENDBRANCH   3  12
TORSDOF 2
ENDMDL
MODEL 7
REMARK VINA RESULT:      -3.7      2.397      4.450
REMARK  2 active torsions:
REMARK  status: ('A' for Active; 'I' for Inactive)
REMARK    1  A    between atoms: C_2  and  N_7 
REMARK    2  A    between atoms: C_3  and  N_6 
ROOT
HETATM    1  C   UNL     1      64.846   6.443   5.968  1.00  0.00     0.097 A 
HETATM    2  C   UNL     1      65.485   5.595   6.929  1.00  0.00     0.052 A 
HETATM    3  C   UNL     1      63.726   6.020   5.178  1.00  0.00     0.052 A 
HETATM    4  C   UNL     1      65.241   7.825   5.902  1.00  0.00     0.104 C 
HETATM    5  N   UNL     1      65.578   8.935   5.831  1.00  0.00    -0.191 NA
HETATM    6  C   UNL     1      64.903   4.331   7.129  1.00  0.00     0.031 A 
HETATM    7  C   UNL     1      63.219   4.735   5.456  1.00  0.00     0.031 A 
HETATM    8  C   UNL     1      63.787   3.907   6.417  1.00  0.00     0.005 A 
ENDROOT
BRANCH   2   9
HETATM    9  N   UNL     1      66.607   5.950   7.684  1.00  0.00    -0.388 N 
HETATM   10  C   UNL     1      67.978   5.801   7.203  1.00  0.00     0.149 C 
HETATM   11  C   UNL     1      66.470   6.356   9.081  1.00  0.00     0.149 C 
ENDBRANCH   2   9
BRANCH   3  12
HETATM   12  N   UNL     1      63.104   6.791   4.195  1.00  0.00    -0.388 N 
HETATM   13  C   UNL     1      63.573   6.860   2.812  1.00  0.00     0.149 C 
HETATM   14  C   UNL     1      61.854   7.491   4.474  1.00  0.00     0.149 C 
ENDBRANCH   3  12
TORSDOF 2
ENDMDL
MODEL 8
REMARK VINA RESULT:      -3.6      3.206      4.355
REMARK  2 active torsions:
REMARK  status: ('A' for Active; 'I' for Inactive)
REMARK    1  A    between atoms: C_2  and  N_7 
REMARK    2  A    between atoms: C_3  and  N_6 
ROOT
HETATM    1  C   UNL     1      61.181   6.848   5.264  1.00  0.00     0.097 A 
HETATM    2  C   UNL     1      60.180   5.961   5.775  1.00  0.00     0.052 A 
HETATM    3  C   UNL     1      61.045   7.541   4.016  1.00  0.00     0.052 A 
HETATM    4  C   UNL     1      62.297   7.181   6.110  1.00  0.00     0.104 C 
HETATM    5  N   UNL     1      63.212   7.430   6.782  1.00  0.00    -0.191 NA
HETATM    6  C   UNL     1      58.995   5.860   5.023  1.00  0.00     0.031 A 
HETATM    7  C   UNL     1      59.821   7.371   3.340  1.00  0.00     0.031 A 
HETATM    8  C   UNL     1      58.810   6.555   3.834  1.00  0.00     0.005 A 
ENDROOT
BRANCH   2   9
HETATM    9  N   UNL     1      60.291   5.230   6.961  1.00  0.00    -0.388 N 
HETATM   10  C   UNL     1      61.053   3.989   7.071  1.00  0.00     0.149 C 
HETATM   11  C   UNL     1      59.512   5.597   8.142  1.00  0.00     0.149 C 
ENDBRANCH   2   9
BRANCH   3  12
HETATM   12  N   UNL     1      62.015   8.373   3.455  1.00  0.00    -0.388 N 
HETATM   13  C   UNL     1      62.062   9.817   3.677  1.00  0.00     0.149 C 
HETATM   14  C   UNL     1      63.131   7.815   2.695  1.00  0.00     0.149 C 
ENDBRANCH   3  12
TORSDOF 2
ENDMDL
MODEL 9
REMARK VINA RESULT:      -3.6      2.206      4.970
REMARK  2 active torsions:
REMARK  status: ('A' for Active; 'I' for Inactive)
REMARK    1  A    between atoms: C_2  and  N_7 
REMARK    2  A    between atoms: C_3  and  N_6 
ROOT
HETATM    1  C   UNL     1      61.119   7.519   3.161  1.00  0.00     0.097 A 
HETATM    2  C   UNL     1      60.197   7.420   2.069  1.00  0.00     0.052 A 
HETATM    3  C   UNL     1      62.292   8.343   3.118  1.00  0.00     0.052 A 
HETATM    4  C   UNL     1      60.774   6.891   4.409  1.00  0.00     0.104 C 
HETATM    5  N   UNL     1      60.508   6.361   5.408  1.00  0.00    -0.191 NA
HETATM    6  C   UNL     1      60.453   8.247   0.961  1.00  0.00     0.031 A 
HETATM    7  C   UNL     1      62.457   9.132   1.963  1.00  0.00     0.031 A 
HETATM    8  C   UNL     1      61.554   9.095   0.906  1.00  0.00     0.005 A 
ENDROOT
BRANCH   2   9
HETATM    9  N   UNL     1      59.070   6.594   2.049  1.00  0.00    -0.388 N 
HETATM   10  C   UNL     1      59.108   5.194   1.635  1.00  0.00     0.149 C 
HETATM   11  C   UNL     1      57.739   7.139   2.304  1.00  0.00     0.149 C 
ENDBRANCH   2   9
BRANCH   3  12
HETATM   12  N   UNL     1      63.244   8.431   4.136  1.00  0.00    -0.388 N 
HETATM   13  C   UNL     1      64.383   7.523   4.251  1.00  0.00     0.149 C 
HETATM   14  C   UNL     1      63.217   9.536   5.090  1.00  0.00     0.149 C 
ENDBRANCH   3  12
TORSDOF 2
ENDMDL
