MODEL 1
REMARK VINA RESULT:      -4.6      0.000      0.000
REMARK  4 active torsions:
REMARK  status: ('A' for Active; 'I' for Inactive)
REMARK    1  A    between atoms: C_3  and  C_6 
REMARK    2  A    between atoms: C_6  and  C_8 
REMARK    3  A    between atoms: C_8  and  O_10 
REMARK    4  A    between atoms: O_10  and  C_12 
ROOT
HETATM    1  N   UNL     1      65.147   8.524   4.966  1.00  0.00    -0.357 N 
ATOM      2  HN  UNL     1      65.346   9.323   4.364  1.00  0.00     0.166 HD
HETATM    3  C   UNL     1      63.887   8.180   5.440  1.00  0.00     0.025 A 
HETATM    4  C   UNL     1      66.046   7.669   5.406  1.00  0.00     0.047 A 
HETATM    5  S   UNL     1      65.446   6.420   6.419  1.00  0.00    -0.087 SA
HETATM    6  C   UNL     1      63.871   7.068   6.263  1.00  0.00     0.077 A 
HETATM    7  C   UNL     1      67.497   7.731   5.086  1.00  0.00     0.076 C 
ENDROOT
BRANCH   3   8
HETATM    8  C   UNL     1      62.719   9.034   5.061  1.00  0.00     0.168 C 
BRANCH   8   9
HETATM    9  C   UNL     1      62.989  10.507   5.272  1.00  0.00     0.264 C 
HETATM   10  O   UNL     1      63.860  10.974   5.996  1.00  0.00    -0.265 OA
BRANCH   9  11
HETATM   11  O   UNL     1      62.176  11.256   4.468  1.00  0.00    -0.322 OA
BRANCH  11  12
HETATM   12  C   UNL     1      61.870  10.679   3.188  1.00  0.00     0.174 C 
HETATM   13  C   UNL     1      61.788  11.753   2.116  1.00  0.00     0.034 C 
ENDBRANCH  11  12
ENDBRANCH   9  11
ENDBRANCH   8   9
ENDBRANCH   3   8
TORSDOF 4
ENDMDL
MODEL 2
REMARK VINA RESULT:      -4.3      1.606      1.987
REMARK  4 active torsions:
REMARK  status: ('A' for Active; 'I' for Inactive)
REMARK    1  A    between atoms: C_3  and  C_6 
REMARK    2  A    between atoms: C_6  and  C_8 
REMARK    3  A    between atoms: C_8  and  O_10 
REMARK    4  A    between atoms: O_10  and  C_12 
ROOT
HETATM    1  N   UNL     1      65.259   7.531   6.621  1.00  0.00    -0.357 N 
ATOM      2  HN  UNL     1      64.437   7.752   7.183  1.00  0.00     0.166 HD
HETATM    3  C   UNL     1      65.357   7.715   5.248  1.00  0.00     0.025 A 
HETATM    4  C   UNL     1      66.381   7.031   7.094  1.00  0.00     0.047 A 
HETATM    5  S   UNL     1      67.608   6.738   5.929  1.00  0.00    -0.087 SA
HETATM    6  C   UNL     1      66.565   7.317   4.704  1.00  0.00     0.077 A 
HETATM    7  C   UNL     1      66.629   6.716   8.526  1.00  0.00     0.076 C 
ENDROOT
BRANCH   3   8
HETATM    8  C   UNL     1      64.179   8.270   4.512  1.00  0.00     0.168 C 
BRANCH   8   9
HETATM    9  C   UNL     1      63.649   9.538   5.144  1.00  0.00     0.264 C 
HETATM   10  O   UNL     1      64.294  10.303   5.851  1.00  0.00    -0.265 OA
BRANCH   9  11
HETATM   11  O   UNL     1      62.364   9.764   4.740  1.00  0.00    -0.322 OA
BRANCH  11  12
HETATM   12  C   UNL     1      62.130  11.026   4.094  1.00  0.00     0.174 C 
HETATM   13  C   UNL     1      61.890  10.836   2.605  1.00  0.00     0.034 C 
ENDBRANCH  11  12
ENDBRANCH   9  11
ENDBRANCH   8   9
ENDBRANCH   3   8
TORSDOF 4
ENDMDL
MODEL 3
REMARK VINA RESULT:      -4.2      2.963      5.207
REMARK  4 active torsions:
REMARK  status: ('A' for Active; 'I' for Inactive)
REMARK    1  A    between atoms: C_3  and  C_6 
REMARK    2  A    between atoms: C_6  and  C_8 
REMARK    3  A    between atoms: C_8  and  O_10 
REMARK    4  A    between atoms: O_10  and  C_12 
ROOT
HETATM    1  N   UNL     1      64.236   9.242   5.444  1.00  0.00    -0.357 N 
ATOM      2  HN  UNL     1      64.837   9.496   6.228  1.00  0.00     0.166 HD
HETATM    3  C   UNL     1      64.376   8.093   4.675  1.00  0.00     0.025 A 
HETATM    4  C   UNL     1      63.216   9.954   5.014  1.00  0.00     0.047 A 
HETATM    5  S   UNL     1      62.377   9.304   3.664  1.00  0.00    -0.087 SA
HETATM    6  C   UNL     1      63.457   7.977   3.649  1.00  0.00     0.077 A 
HETATM    7  C   UNL     1      62.773  11.242   5.612  1.00  0.00     0.076 C 
ENDROOT
BRANCH   3   8
HETATM    8  C   UNL     1      65.489   7.146   4.996  1.00  0.00     0.168 C 
BRANCH   8   9
HETATM    9  C   UNL     1      66.627   7.820   5.729  1.00  0.00     0.264 C 
HETATM   10  O   UNL     1      67.637   8.277   5.208  1.00  0.00    -0.265 OA
BRANCH   9  11
HETATM   11  O   UNL     1      66.331   7.932   7.059  1.00  0.00    -0.322 OA
BRANCH  11  12
HETATM   12  C   UNL     1      65.956   6.710   7.715  1.00  0.00     0.174 C 
HETATM   13  C   UNL     1      66.759   6.510   8.989  1.00  0.00     0.034 C 
ENDBRANCH  11  12
ENDBRANCH   9  11
ENDBRANCH   8   9
ENDBRANCH   3   8
TORSDOF 4
ENDMDL
MODEL 4
REMARK VINA RESULT:      -4.0      2.976      4.996
REMARK  4 active torsions:
REMARK  status: ('A' for Active; 'I' for Inactive)
REMARK    1  A    between atoms: C_3  and  C_6 
REMARK    2  A    between atoms: C_6  and  C_8 
REMARK    3  A    between atoms: C_8  and  O_10 
REMARK    4  A    between atoms: O_10  and  C_12 
ROOT
HETATM    1  N   UNL     1      62.659   8.667   2.878  1.00  0.00    -0.357 N 
ATOM      2  HN  UNL     1      62.972   7.697   2.870  1.00  0.00     0.166 HD
HETATM    3  C   UNL     1      62.620   9.481   4.004  1.00  0.00     0.025 A 
HETATM    4  C   UNL     1      62.232   9.331   1.824  1.00  0.00     0.047 A 
HETATM    5  S   UNL     1      61.748  10.952   2.116  1.00  0.00    -0.087 SA
HETATM    6  C   UNL     1      62.132  10.754   3.771  1.00  0.00     0.077 A 
HETATM    7  C   UNL     1      62.149   8.769   0.449  1.00  0.00     0.076 C 
ENDROOT
BRANCH   3   8
HETATM    8  C   UNL     1      63.058   8.912   5.315  1.00  0.00     0.168 C 
BRANCH   8   9
HETATM    9  C   UNL     1      64.531   8.568   5.332  1.00  0.00     0.264 C 
HETATM   10  O   UNL     1      65.408   9.226   5.880  1.00  0.00    -0.265 OA
BRANCH   9  11
HETATM   11  O   UNL     1      64.741   7.363   4.723  1.00  0.00    -0.322 OA
BRANCH  11  12
HETATM   12  C   UNL     1      65.943   6.676   5.106  1.00  0.00     0.174 C 
HETATM   13  C   UNL     1      66.848   6.457   3.906  1.00  0.00     0.034 C 
ENDBRANCH  11  12
ENDBRANCH   9  11
ENDBRANCH   8   9
ENDBRANCH   3   8
TORSDOF 4
ENDMDL
MODEL 5
REMARK VINA RESULT:      -4.0      2.912      5.293
REMARK  4 active torsions:
REMARK  status: ('A' for Active; 'I' for Inactive)
REMARK    1  A    between atoms: C_3  and  C_6 
REMARK    2  A    between atoms: C_6  and  C_8 
REMARK    3  A    between atoms: C_8  and  O_10 
REMARK    4  A    between atoms: O_10  and  C_12 
ROOT
HETATM    1  N   UNL     1      63.246   8.156   2.927  1.00  0.00    -0.357 N 
ATOM      2  HN  UNL     1      63.594   7.413   2.321  1.00  0.00     0.166 HD
HETATM    3  C   UNL     1      63.563   8.299   4.272  1.00  0.00     0.025 A 
HETATM    4  C   UNL     1      62.431   9.118   2.548  1.00  0.00     0.047 A 
HETATM    5  S   UNL     1      61.986  10.236   3.773  1.00  0.00    -0.087 SA
HETATM    6  C   UNL     1      62.947   9.371   4.892  1.00  0.00     0.077 A 
HETATM    7  C   UNL     1      61.896   9.278   1.169  1.00  0.00     0.076 C 
ENDROOT
BRANCH   3   8
HETATM    8  C   UNL     1      64.474   7.296   4.904  1.00  0.00     0.168 C 
BRANCH   8   9
HETATM    9  C   UNL     1      65.244   7.872   6.072  1.00  0.00     0.264 C 
HETATM   10  O   UNL     1      65.971   8.857   6.028  1.00  0.00    -0.265 OA
BRANCH   9  11
HETATM   11  O   UNL     1      64.945   7.189   7.217  1.00  0.00    -0.322 OA
BRANCH  11  12
HETATM   12  C   UNL     1      65.881   6.166   7.591  1.00  0.00     0.174 C 
HETATM   13  C   UNL     1      66.389   6.387   9.006  1.00  0.00     0.034 C 
ENDBRANCH  11  12
ENDBRANCH   9  11
ENDBRANCH   8   9
ENDBRANCH   3   8
TORSDOF 4
ENDMDL
MODEL 6
REMARK VINA RESULT:      -3.7      4.021      5.776
REMARK  4 active torsions:
REMARK  status: ('A' for Active; 'I' for Inactive)
REMARK    1  A    between atoms: C_3  and  C_6 
REMARK    2  A    between atoms: C_6  and  C_8 
REMARK    3  A    between atoms: C_8  and  O_10 
REMARK    4  A    between atoms: O_10  and  C_12 
ROOT
HETATM    1  N   UNL     1      59.837   8.253   2.990  1.00  0.00    -0.357 N 
ATOM      2  HN  UNL     1      59.976   8.542   3.958  1.00  0.00     0.166 HD
HETATM    3  C   UNL     1      60.712   8.524   1.945  1.00  0.00     0.025 A 
HETATM    4  C   UNL     1      58.802   7.569   2.549  1.00  0.00     0.047 A 
HETATM    5  S   UNL     1      58.805   7.224   0.867  1.00  0.00    -0.087 SA
HETATM    6  C   UNL     1      60.295   8.051   0.714  1.00  0.00     0.077 A 
HETATM    7  C   UNL     1      57.674   7.102   3.399  1.00  0.00     0.076 C 
ENDROOT
BRANCH   3   8
HETATM    8  C   UNL     1      61.955   9.303   2.234  1.00  0.00     0.168 C 
BRANCH   8   9
HETATM    9  C   UNL     1      62.001   9.809   3.659  1.00  0.00     0.264 C 
HETATM   10  O   UNL     1      61.639  10.918   4.032  1.00  0.00    -0.265 OA
BRANCH   9  11
HETATM   11  O   UNL     1      62.425   8.817   4.498  1.00  0.00    -0.322 OA
BRANCH  11  12
HETATM   12  C   UNL     1      63.674   8.200   4.148  1.00  0.00     0.174 C 
HETATM   13  C   UNL     1      64.781   8.646   5.088  1.00  0.00     0.034 C 
ENDBRANCH  11  12
ENDBRANCH   9  11
ENDBRANCH   8   9
ENDBRANCH   3   8
TORSDOF 4
ENDMDL
MODEL 7
REMARK VINA RESULT:      -3.7      3.314      5.154
REMARK  4 active torsions:
REMARK  status: ('A' for Active; 'I' for Inactive)
REMARK    1  A    between atoms: C_3  and  C_6 
REMARK    2  A    between atoms: C_6  and  C_8 
REMARK    3  A    between atoms: C_8  and  O_10 
REMARK    4  A    between atoms: O_10  and  C_12 
ROOT
HETATM    1  N   UNL     1      60.643   8.608   3.450  1.00  0.00    -0.357 N 
ATOM      2  HN  UNL     1      60.235   8.482   4.377  1.00  0.00     0.166 HD
HETATM    3  C   UNL     1      61.714   9.444   3.160  1.00  0.00     0.025 A 
HETATM    4  C   UNL     1      60.231   8.001   2.357  1.00  0.00     0.047 A 
HETATM    5  S   UNL     1      61.085   8.403   0.922  1.00  0.00    -0.087 SA
HETATM    6  C   UNL     1      62.074   9.467   1.825  1.00  0.00     0.077 A 
HETATM    7  C   UNL     1      59.108   7.028   2.302  1.00  0.00     0.076 C 
ENDROOT
BRANCH   3   8
HETATM    8  C   UNL     1      62.327  10.236   4.270  1.00  0.00     0.168 C 
BRANCH   8   9
HETATM    9  C   UNL     1      63.382   9.455   5.022  1.00  0.00     0.264 C 
HETATM   10  O   UNL     1      64.299   9.942   5.673  1.00  0.00    -0.265 OA
BRANCH   9  11
HETATM   11  O   UNL     1      63.118   8.116   4.950  1.00  0.00    -0.322 OA
BRANCH  11  12
HETATM   12  C   UNL     1      63.010   7.437   6.212  1.00  0.00     0.174 C 
HETATM   13  C   UNL     1      61.778   6.549   6.245  1.00  0.00     0.034 C 
ENDBRANCH  11  12
ENDBRANCH   9  11
ENDBRANCH   8   9
ENDBRANCH   3   8
TORSDOF 4
ENDMDL
MODEL 8
REMARK VINA RESULT:      -3.5      2.125      2.535
REMARK  4 active torsions:
REMARK  status: ('A' for Active; 'I' for Inactive)
REMARK    1  A    between atoms: C_3  and  C_6 
REMARK    2  A    between atoms: C_6  and  C_8 
REMARK    3  A    between atoms: C_8  and  O_10 
REMARK    4  A    between atoms: O_10  and  C_12 
ROOT
HETATM    1  N   UNL     1      65.367   6.621   5.341  1.00  0.00    -0.357 N 
ATOM      2  HN  UNL     1      65.203   7.058   6.248  1.00  0.00     0.166 HD
HETATM    3  C   UNL     1      64.467   6.625   4.283  1.00  0.00     0.025 A 
HETATM    4  C   UNL     1      66.462   5.973   5.004  1.00  0.00     0.047 A 
HETATM    5  S   UNL     1      66.476   5.319   3.417  1.00  0.00    -0.087 SA
HETATM    6  C   UNL     1      64.904   5.944   3.161  1.00  0.00     0.077 A 
HETATM    7  C   UNL     1      67.639   5.783   5.894  1.00  0.00     0.076 C 
ENDROOT
BRANCH   3   8
HETATM    8  C   UNL     1      63.149   7.306   4.464  1.00  0.00     0.168 C 
BRANCH   8   9
HETATM    9  C   UNL     1      63.130   8.216   5.672  1.00  0.00     0.264 C 
HETATM   10  O   UNL     1      62.688   7.922   6.777  1.00  0.00    -0.265 OA
BRANCH   9  11
HETATM   11  O   UNL     1      63.762   9.393   5.386  1.00  0.00    -0.322 OA
BRANCH  11  12
HETATM   12  C   UNL     1      62.930  10.564   5.406  1.00  0.00     0.174 C 
HETATM   13  C   UNL     1      62.166  10.708   4.100  1.00  0.00     0.034 C 
ENDBRANCH  11  12
ENDBRANCH   9  11
ENDBRANCH   8   9
ENDBRANCH   3   8
TORSDOF 4
ENDMDL
MODEL 9
REMARK VINA RESULT:      -3.5      2.376      3.322
REMARK  4 active torsions:
REMARK  status: ('A' for Active; 'I' for Inactive)
REMARK    1  A    between atoms: C_3  and  C_6 
REMARK    2  A    between atoms: C_6  and  C_8 
REMARK    3  A    between atoms: C_8  and  O_10 
REMARK    4  A    between atoms: O_10  and  C_12 
ROOT
HETATM    1  N   UNL     1      62.010   8.046   4.554  1.00  0.00    -0.357 N 
ATOM      2  HN  UNL     1      61.026   7.973   4.296  1.00  0.00     0.166 HD
HETATM    3  C   UNL     1      62.749   9.223   4.545  1.00  0.00     0.025 A 
HETATM    4  C   UNL     1      62.765   7.039   4.943  1.00  0.00     0.047 A 
HETATM    5  S   UNL     1      64.396   7.434   5.305  1.00  0.00    -0.087 SA
HETATM    6  C   UNL     1      64.075   9.067   4.910  1.00  0.00     0.077 A 
HETATM    7  C   UNL     1      62.295   5.635   5.076  1.00  0.00     0.076 C 
ENDROOT
BRANCH   3   8
HETATM    8  C   UNL     1      62.077  10.490   4.123  1.00  0.00     0.168 C 
BRANCH   8   9
HETATM    9  C   UNL     1      62.066  10.664   2.621  1.00  0.00     0.264 C 
HETATM   10  O   UNL     1      61.961  11.733   2.030  1.00  0.00    -0.265 OA
BRANCH   9  11
HETATM   11  O   UNL     1      62.280   9.464   2.005  1.00  0.00    -0.322 OA
BRANCH  11  12
HETATM   12  C   UNL     1      61.300   9.086   1.026  1.00  0.00     0.174 C 
HETATM   13  C   UNL     1      60.985   7.602   1.119  1.00  0.00     0.034 C 
ENDBRANCH  11  12
ENDBRANCH   9  11
ENDBRANCH   8   9
ENDBRANCH   3   8
TORSDOF 4
ENDMDL
