MODEL 1
REMARK VINA RESULT:      -3.8      0.000      0.000
REMARK  1 active torsions:
REMARK  status: ('A' for Active; 'I' for Inactive)
REMARK    1  A    between atoms: C_3  and  C_7 
ROOT
HETATM    1  N   UNL     1      64.079   8.773   4.667  1.00  0.00    -0.357 N 
ATOM      2  HN  UNL     1      63.912   9.638   5.181  1.00  0.00     0.166 HD
HETATM    3  C   UNL     1      63.289   8.311   3.622  1.00  0.00     0.024 A 
HETATM    4  C   UNL     1      65.071   7.942   4.902  1.00  0.00     0.047 A 
HETATM    5  S   UNL     1      65.122   6.554   3.895  1.00  0.00    -0.087 SA
HETATM    6  C   UNL     1      63.717   7.108   3.087  1.00  0.00     0.077 A 
HETATM    7  C   UNL     1      66.107   8.144   5.949  1.00  0.00     0.076 C 
ENDROOT
BRANCH   3   8
HETATM    8  C   UNL     1      62.089   9.132   3.169  1.00  0.00    -0.008 C 
HETATM    9  C   UNL     1      62.139   9.406   1.652  1.00  0.00     0.021 C 
HETATM   10  C   UNL     1      60.783   8.372   3.477  1.00  0.00     0.021 C 
HETATM   11  C   UNL     1      62.061  10.489   3.897  1.00  0.00     0.021 C 
ENDBRANCH   3   8
TORSDOF 1
ENDMDL
MODEL 2
REMARK VINA RESULT:      -3.7      2.114      4.299
REMARK  1 active torsions:
REMARK  status: ('A' for Active; 'I' for Inactive)
REMARK    1  A    between atoms: C_3  and  C_7 
ROOT
HETATM    1  N   UNL     1      64.438   9.230   5.518  1.00  0.00    -0.357 N 
ATOM      2  HN  UNL     1      64.959   9.647   6.289  1.00  0.00     0.166 HD
HETATM    3  C   UNL     1      64.763   8.026   4.905  1.00  0.00     0.024 A 
HETATM    4  C   UNL     1      63.366   9.756   4.967  1.00  0.00     0.047 A 
HETATM    5  S   UNL     1      62.680   8.851   3.680  1.00  0.00    -0.087 SA
HETATM    6  C   UNL     1      63.905   7.671   3.878  1.00  0.00     0.077 A 
HETATM    7  C   UNL     1      62.745  11.038   5.393  1.00  0.00     0.076 C 
ENDROOT
BRANCH   3   8
HETATM    8  C   UNL     1      65.965   7.233   5.401  1.00  0.00    -0.008 C 
HETATM    9  C   UNL     1      65.530   5.912   6.066  1.00  0.00     0.021 C 
HETATM   10  C   UNL     1      66.896   6.892   4.218  1.00  0.00     0.021 C 
HETATM   11  C   UNL     1      66.757   8.051   6.439  1.00  0.00     0.021 C 
ENDBRANCH   3   8
TORSDOF 1
ENDMDL
MODEL 3
REMARK VINA RESULT:      -3.7      2.174      2.886
REMARK  1 active torsions:
REMARK  status: ('A' for Active; 'I' for Inactive)
REMARK    1  A    between atoms: C_3  and  C_7 
ROOT
HETATM    1  N   UNL     1      65.049   7.273   6.956  1.00  0.00    -0.357 N 
ATOM      2  HN  UNL     1      64.253   7.257   7.593  1.00  0.00     0.166 HD
HETATM    3  C   UNL     1      64.978   7.622   5.613  1.00  0.00     0.024 A 
HETATM    4  C   UNL     1      66.283   6.968   7.291  1.00  0.00     0.047 A 
HETATM    5  S   UNL     1      67.438   7.072   6.026  1.00  0.00    -0.087 SA
HETATM    6  C   UNL     1      66.195   7.563   4.954  1.00  0.00     0.077 A 
HETATM    7  C   UNL     1      66.708   6.561   8.657  1.00  0.00     0.076 C 
ENDROOT
BRANCH   3   8
HETATM    8  C   UNL     1      63.639   8.031   5.014  1.00  0.00    -0.008 C 
HETATM    9  C   UNL     1      63.537   7.613   3.533  1.00  0.00     0.021 C 
HETATM   10  C   UNL     1      62.487   7.354   5.785  1.00  0.00     0.021 C 
HETATM   11  C   UNL     1      63.461   9.560   5.091  1.00  0.00     0.021 C 
ENDBRANCH   3   8
TORSDOF 1
ENDMDL
MODEL 4
REMARK VINA RESULT:      -3.7      2.018      4.262
REMARK  1 active torsions:
REMARK  status: ('A' for Active; 'I' for Inactive)
REMARK    1  A    between atoms: C_3  and  C_7 
ROOT
HETATM    1  N   UNL     1      63.156   8.263   3.023  1.00  0.00    -0.357 N 
ATOM      2  HN  UNL     1      63.454   7.475   2.447  1.00  0.00     0.166 HD
HETATM    3  C   UNL     1      63.565   8.482   4.332  1.00  0.00     0.024 A 
HETATM    4  C   UNL     1      62.334   9.209   2.628  1.00  0.00     0.047 A 
HETATM    5  S   UNL     1      61.990  10.420   3.795  1.00  0.00    -0.087 SA
HETATM    6  C   UNL     1      63.019   9.619   4.906  1.00  0.00     0.077 A 
HETATM    7  C   UNL     1      61.719   9.281   1.276  1.00  0.00     0.076 C 
ENDROOT
BRANCH   3   8
HETATM    8  C   UNL     1      64.539   7.512   4.986  1.00  0.00    -0.008 C 
HETATM    9  C   UNL     1      65.722   8.259   5.636  1.00  0.00     0.021 C 
HETATM   10  C   UNL     1      63.820   6.703   6.085  1.00  0.00     0.021 C 
HETATM   11  C   UNL     1      65.110   6.536   3.940  1.00  0.00     0.021 C 
ENDBRANCH   3   8
TORSDOF 1
ENDMDL
MODEL 5
REMARK VINA RESULT:      -3.6      1.382      2.191
REMARK  1 active torsions:
REMARK  status: ('A' for Active; 'I' for Inactive)
REMARK    1  A    between atoms: C_3  and  C_7 
ROOT
HETATM    1  N   UNL     1      63.889   7.342   3.211  1.00  0.00    -0.357 N 
ATOM      2  HN  UNL     1      63.551   6.857   2.380  1.00  0.00     0.166 HD
HETATM    3  C   UNL     1      63.319   8.494   3.739  1.00  0.00     0.024 A 
HETATM    4  C   UNL     1      64.922   6.964   3.931  1.00  0.00     0.047 A 
HETATM    5  S   UNL     1      65.284   7.961   5.280  1.00  0.00    -0.087 SA
HETATM    6  C   UNL     1      63.960   8.968   4.871  1.00  0.00     0.077 A 
HETATM    7  C   UNL     1      65.752   5.763   3.646  1.00  0.00     0.076 C 
ENDROOT
BRANCH   3   8
HETATM    8  C   UNL     1      62.092   9.098   3.069  1.00  0.00    -0.008 C 
HETATM    9  C   UNL     1      60.808   8.341   3.465  1.00  0.00     0.021 C 
HETATM   10  C   UNL     1      61.930  10.572   3.495  1.00  0.00     0.021 C 
HETATM   11  C   UNL     1      62.229   9.034   1.536  1.00  0.00     0.021 C 
ENDBRANCH   3   8
TORSDOF 1
ENDMDL
MODEL 6
REMARK VINA RESULT:      -3.6      3.436      4.986
REMARK  1 active torsions:
REMARK  status: ('A' for Active; 'I' for Inactive)
REMARK    1  A    between atoms: C_3  and  C_7 
ROOT
HETATM    1  N   UNL     1      59.936   8.142   3.094  1.00  0.00    -0.357 N 
ATOM      2  HN  UNL     1      60.404   8.414   3.958  1.00  0.00     0.166 HD
HETATM    3  C   UNL     1      60.477   8.285   1.823  1.00  0.00     0.024 A 
HETATM    4  C   UNL     1      58.736   7.606   3.030  1.00  0.00     0.047 A 
HETATM    5  S   UNL     1      58.176   7.244   1.449  1.00  0.00    -0.087 SA
HETATM    6  C   UNL     1      59.646   7.845   0.807  1.00  0.00     0.077 A 
HETATM    7  C   UNL     1      57.883   7.308   4.211  1.00  0.00     0.076 C 
ENDROOT
BRANCH   3   8
HETATM    8  C   UNL     1      61.875   8.870   1.665  1.00  0.00    -0.008 C 
HETATM    9  C   UNL     1      61.862  10.403   1.833  1.00  0.00     0.021 C 
HETATM   10  C   UNL     1      62.819   8.278   2.732  1.00  0.00     0.021 C 
HETATM   11  C   UNL     1      62.437   8.549   0.267  1.00  0.00     0.021 C 
ENDBRANCH   3   8
TORSDOF 1
ENDMDL
MODEL 7
REMARK VINA RESULT:      -3.6      2.690      4.535
REMARK  1 active torsions:
REMARK  status: ('A' for Active; 'I' for Inactive)
REMARK    1  A    between atoms: C_3  and  C_7 
ROOT
HETATM    1  N   UNL     1      59.738   8.274   3.342  1.00  0.00    -0.357 N 
ATOM      2  HN  UNL     1      59.450   9.032   2.724  1.00  0.00     0.166 HD
HETATM    3  C   UNL     1      61.044   8.047   3.758  1.00  0.00     0.024 A 
HETATM    4  C   UNL     1      58.925   7.378   3.856  1.00  0.00     0.047 A 
HETATM    5  S   UNL     1      59.667   6.204   4.865  1.00  0.00    -0.087 SA
HETATM    6  C   UNL     1      61.184   6.952   4.594  1.00  0.00     0.077 A 
HETATM    7  C   UNL     1      57.457   7.339   3.621  1.00  0.00     0.076 C 
ENDROOT
BRANCH   3   8
HETATM    8  C   UNL     1      62.152   8.984   3.293  1.00  0.00    -0.008 C 
HETATM    9  C   UNL     1      61.955  10.406   3.856  1.00  0.00     0.021 C 
HETATM   10  C   UNL     1      63.521   8.461   3.776  1.00  0.00     0.021 C 
HETATM   11  C   UNL     1      62.167   9.077   1.755  1.00  0.00     0.021 C 
ENDBRANCH   3   8
TORSDOF 1
ENDMDL
MODEL 8
REMARK VINA RESULT:      -3.4      2.827      5.738
REMARK  1 active torsions:
REMARK  status: ('A' for Active; 'I' for Inactive)
REMARK    1  A    between atoms: C_3  and  C_7 
ROOT
HETATM    1  N   UNL     1      64.331   6.505   6.696  1.00  0.00    -0.357 N 
ATOM      2  HN  UNL     1      63.864   5.746   7.192  1.00  0.00     0.166 HD
HETATM    3  C   UNL     1      65.684   6.801   6.797  1.00  0.00     0.024 A 
HETATM    4  C   UNL     1      63.735   7.339   5.872  1.00  0.00     0.047 A 
HETATM    5  S   UNL     1      64.750   8.531   5.169  1.00  0.00    -0.087 SA
HETATM    6  C   UNL     1      66.081   7.882   6.029  1.00  0.00     0.077 A 
HETATM    7  C   UNL     1      62.288   7.295   5.530  1.00  0.00     0.076 C 
ENDROOT
BRANCH   3   8
HETATM    8  C   UNL     1      66.573   5.944   7.689  1.00  0.00    -0.008 C 
HETATM    9  C   UNL     1      66.557   6.449   9.147  1.00  0.00     0.021 C 
HETATM   10  C   UNL     1      66.078   4.483   7.681  1.00  0.00     0.021 C 
HETATM   11  C   UNL     1      68.030   5.980   7.189  1.00  0.00     0.021 C 
ENDBRANCH   3   8
TORSDOF 1
ENDMDL
MODEL 9
REMARK VINA RESULT:      -3.3      1.676      2.580
REMARK  1 active torsions:
REMARK  status: ('A' for Active; 'I' for Inactive)
REMARK    1  A    between atoms: C_3  and  C_7 
ROOT
HETATM    1  N   UNL     1      65.427   7.935   4.732  1.00  0.00    -0.357 N 
ATOM      2  HN  UNL     1      65.646   8.427   3.866  1.00  0.00     0.166 HD
HETATM    3  C   UNL     1      64.143   7.621   5.159  1.00  0.00     0.024 A 
HETATM    4  C   UNL     1      66.321   7.510   5.598  1.00  0.00     0.047 A 
HETATM    5  S   UNL     1      65.686   6.713   6.979  1.00  0.00    -0.087 SA
HETATM    6  C   UNL     1      64.103   6.953   6.371  1.00  0.00     0.077 A 
HETATM    7  C   UNL     1      67.790   7.675   5.441  1.00  0.00     0.076 C 
ENDROOT
BRANCH   3   8
HETATM    8  C   UNL     1      62.950   8.006   4.293  1.00  0.00    -0.008 C 
HETATM    9  C   UNL     1      61.668   7.285   4.755  1.00  0.00     0.021 C 
HETATM   10  C   UNL     1      62.704   9.526   4.380  1.00  0.00     0.021 C 
HETATM   11  C   UNL     1      63.208   7.626   2.823  1.00  0.00     0.021 C 
ENDBRANCH   3   8
TORSDOF 1
ENDMDL
