MODEL 1
REMARK VINA RESULT:      -4.1      0.000      0.000
REMARK  1 active torsions:
REMARK  status: ('A' for Active; 'I' for Inactive)
REMARK    1  A    between atoms: C_1  and  C_7 
ROOT
HETATM    1  C   UNL     1      63.219   8.887   4.184  1.00  0.00     0.074 A 
HETATM    2  N   UNL     1      61.668  10.076   2.893  1.00  0.00    -0.357 N 
ATOM      3  HN  UNL     1      61.058  10.850   2.633  1.00  0.00     0.166 HD
HETATM    4  C   UNL     1      62.467  10.045   4.030  1.00  0.00     0.026 A 
HETATM    5  S   UNL     1      62.896   7.830   2.866  1.00  0.00    -0.072 SA
HETATM    6  C   UNL     1      61.809   8.970   2.200  1.00  0.00     0.048 A 
HETATM    7  C   UNL     1      62.405  11.246   4.910  1.00  0.00     0.070 C 
HETATM    8  C   UNL     1      61.093   8.698   0.924  1.00  0.00     0.076 C 
ENDROOT
BRANCH   1   9
HETATM    9  C   UNL     1      64.153   8.533   5.247  1.00  0.00     0.164 C 
HETATM   10  O   UNL     1      65.119   9.237   5.551  1.00  0.00    -0.292 OA
HETATM   11  C   UNL     1      63.937   7.248   6.017  1.00  0.00     0.097 C 
ENDBRANCH   1   9
TORSDOF 1
ENDMDL
MODEL 2
REMARK VINA RESULT:      -4.0      4.158      6.122
REMARK  1 active torsions:
REMARK  status: ('A' for Active; 'I' for Inactive)
REMARK    1  A    between atoms: C_1  and  C_7 
ROOT
HETATM    1  C   UNL     1      65.959   7.509   6.100  1.00  0.00     0.074 A 
HETATM    2  N   UNL     1      68.061   6.671   6.703  1.00  0.00    -0.357 N 
ATOM      3  HN  UNL     1      69.067   6.520   6.637  1.00  0.00     0.166 HD
HETATM    4  C   UNL     1      67.317   7.442   5.817  1.00  0.00     0.026 A 
HETATM    5  S   UNL     1      65.633   6.574   7.507  1.00  0.00    -0.072 SA
HETATM    6  C   UNL     1      67.289   6.165   7.635  1.00  0.00     0.048 A 
HETATM    7  C   UNL     1      68.075   8.081   4.705  1.00  0.00     0.070 C 
HETATM    8  C   UNL     1      67.786   5.298   8.739  1.00  0.00     0.076 C 
ENDROOT
BRANCH   1   9
HETATM    9  C   UNL     1      64.906   8.223   5.388  1.00  0.00     0.164 C 
HETATM   10  O   UNL     1      64.689   9.427   5.547  1.00  0.00    -0.292 OA
HETATM   11  C   UNL     1      64.037   7.465   4.408  1.00  0.00     0.097 C 
ENDBRANCH   1   9
TORSDOF 1
ENDMDL
MODEL 3
REMARK VINA RESULT:      -3.9      2.023      2.585
REMARK  1 active torsions:
REMARK  status: ('A' for Active; 'I' for Inactive)
REMARK    1  A    between atoms: C_1  and  C_7 
ROOT
HETATM    1  C   UNL     1      62.393   8.460   4.797  1.00  0.00     0.074 A 
HETATM    2  N   UNL     1      61.158   9.212   2.955  1.00  0.00    -0.357 N 
ATOM      3  HN  UNL     1      60.488   9.163   2.188  1.00  0.00     0.166 HD
HETATM    4  C   UNL     1      61.445   8.166   3.825  1.00  0.00     0.026 A 
HETATM    5  S   UNL     1      62.924  10.083   4.591  1.00  0.00    -0.072 SA
HETATM    6  C   UNL     1      61.869  10.273   3.258  1.00  0.00     0.048 A 
HETATM    7  C   UNL     1      60.701   6.897   3.594  1.00  0.00     0.070 C 
HETATM    8  C   UNL     1      61.787  11.562   2.518  1.00  0.00     0.076 C 
ENDROOT
BRANCH   1   9
HETATM    9  C   UNL     1      62.917   7.605   5.857  1.00  0.00     0.164 C 
HETATM   10  O   UNL     1      62.617   7.753   7.044  1.00  0.00    -0.292 OA
HETATM   11  C   UNL     1      63.868   6.485   5.495  1.00  0.00     0.097 C 
ENDBRANCH   1   9
TORSDOF 1
ENDMDL
MODEL 4
REMARK VINA RESULT:      -3.9      2.534      3.499
REMARK  1 active torsions:
REMARK  status: ('A' for Active; 'I' for Inactive)
REMARK    1  A    between atoms: C_1  and  C_7 
ROOT
HETATM    1  C   UNL     1      61.966   9.306   3.800  1.00  0.00     0.074 A 
HETATM    2  N   UNL     1      62.680   7.221   4.591  1.00  0.00    -0.357 N 
ATOM      3  HN  UNL     1      63.295   6.550   5.050  1.00  0.00     0.166 HD
HETATM    4  C   UNL     1      62.947   8.579   4.463  1.00  0.00     0.026 A 
HETATM    5  S   UNL     1      60.699   8.242   3.333  1.00  0.00    -0.072 SA
HETATM    6  C   UNL     1      61.527   6.923   4.040  1.00  0.00     0.048 A 
HETATM    7  C   UNL     1      64.230   9.056   5.051  1.00  0.00     0.070 C 
HETATM    8  C   UNL     1      60.953   5.550   4.016  1.00  0.00     0.076 C 
ENDROOT
BRANCH   1   9
HETATM    9  C   UNL     1      61.925  10.734   3.500  1.00  0.00     0.164 C 
HETATM   10  O   UNL     1      61.936  11.601   4.377  1.00  0.00    -0.292 OA
HETATM   11  C   UNL     1      61.869  11.180   2.056  1.00  0.00     0.097 C 
ENDBRANCH   1   9
TORSDOF 1
ENDMDL
MODEL 5
REMARK VINA RESULT:      -3.9      2.243      3.912
REMARK  1 active torsions:
REMARK  status: ('A' for Active; 'I' for Inactive)
REMARK    1  A    between atoms: C_1  and  C_7 
ROOT
HETATM    1  C   UNL     1      62.803   8.830   3.702  1.00  0.00     0.074 A 
HETATM    2  N   UNL     1      64.198   9.463   5.472  1.00  0.00    -0.357 N 
ATOM      3  HN  UNL     1      64.560  10.055   6.219  1.00  0.00     0.166 HD
HETATM    4  C   UNL     1      63.122   9.789   4.655  1.00  0.00     0.026 A 
HETATM    5  S   UNL     1      63.892   7.507   3.850  1.00  0.00    -0.072 SA
HETATM    6  C   UNL     1      64.685   8.288   5.148  1.00  0.00     0.048 A 
HETATM    7  C   UNL     1      62.471  11.102   4.917  1.00  0.00     0.070 C 
HETATM    8  C   UNL     1      65.839   7.652   5.841  1.00  0.00     0.076 C 
ENDROOT
BRANCH   1   9
HETATM    9  C   UNL     1      61.742   8.848   2.700  1.00  0.00     0.164 C 
HETATM   10  O   UNL     1      60.647   8.308   2.875  1.00  0.00    -0.292 OA
HETATM   11  C   UNL     1      61.985   9.558   1.386  1.00  0.00     0.097 C 
ENDBRANCH   1   9
TORSDOF 1
ENDMDL
MODEL 6
REMARK VINA RESULT:      -3.8      1.607      2.087
REMARK  1 active torsions:
REMARK  status: ('A' for Active; 'I' for Inactive)
REMARK    1  A    between atoms: C_1  and  C_7 
ROOT
HETATM    1  C   UNL     1      62.373   9.403   4.140  1.00  0.00     0.074 A 
HETATM    2  N   UNL     1      60.944   9.101   2.310  1.00  0.00    -0.357 N 
ATOM      3  HN  UNL     1      60.422   9.356   1.472  1.00  0.00     0.166 HD
HETATM    4  C   UNL     1      61.758   9.968   3.030  1.00  0.00     0.026 A 
HETATM    5  S   UNL     1      61.899   7.754   4.266  1.00  0.00    -0.072 SA
HETATM    6  C   UNL     1      60.939   7.909   2.859  1.00  0.00     0.048 A 
HETATM    7  C   UNL     1      61.857  11.361   2.512  1.00  0.00     0.070 C 
HETATM    8  C   UNL     1      60.168   6.755   2.321  1.00  0.00     0.076 C 
ENDROOT
BRANCH   1   9
HETATM    9  C   UNL     1      63.283  10.019   5.100  1.00  0.00     0.164 C 
HETATM   10  O   UNL     1      64.380   9.535   5.388  1.00  0.00    -0.292 OA
HETATM   11  C   UNL     1      62.874  11.310   5.775  1.00  0.00     0.097 C 
ENDBRANCH   1   9
TORSDOF 1
ENDMDL
MODEL 7
REMARK VINA RESULT:      -3.6      1.542      2.401
REMARK  1 active torsions:
REMARK  status: ('A' for Active; 'I' for Inactive)
REMARK    1  A    between atoms: C_1  and  C_7 
ROOT
HETATM    1  C   UNL     1      62.490   9.168   4.164  1.00  0.00     0.074 A 
HETATM    2  N   UNL     1      61.146   7.508   3.203  1.00  0.00    -0.357 N 
ATOM      3  HN  UNL     1      60.660   6.615   3.134  1.00  0.00     0.166 HD
HETATM    4  C   UNL     1      61.919   7.907   4.287  1.00  0.00     0.026 A 
HETATM    5  S   UNL     1      62.037   9.843   2.649  1.00  0.00    -0.072 SA
HETATM    6  C   UNL     1      61.129   8.441   2.280  1.00  0.00     0.048 A 
HETATM    7  C   UNL     1      62.022   6.937   5.413  1.00  0.00     0.070 C 
HETATM    8  C   UNL     1      60.383   8.321   0.997  1.00  0.00     0.076 C 
ENDROOT
BRANCH   1   9
HETATM    9  C   UNL     1      63.342   9.886   5.105  1.00  0.00     0.164 C 
HETATM   10  O   UNL     1      64.446   9.467   5.461  1.00  0.00    -0.292 OA
HETATM   11  C   UNL     1      62.862  11.203   5.674  1.00  0.00     0.097 C 
ENDBRANCH   1   9
TORSDOF 1
ENDMDL
MODEL 8
REMARK VINA RESULT:      -3.5      3.548      4.834
REMARK  1 active torsions:
REMARK  status: ('A' for Active; 'I' for Inactive)
REMARK    1  A    between atoms: C_1  and  C_7 
ROOT
HETATM    1  C   UNL     1      65.659   6.595   6.842  1.00  0.00     0.074 A 
HETATM    2  N   UNL     1      65.804   7.841   4.865  1.00  0.00    -0.357 N 
ATOM      3  HN  UNL     1      66.255   8.316   4.083  1.00  0.00     0.166 HD
HETATM    4  C   UNL     1      66.478   7.170   5.878  1.00  0.00     0.026 A 
HETATM    5  S   UNL     1      64.017   6.923   6.450  1.00  0.00    -0.072 SA
HETATM    6  C   UNL     1      64.507   7.779   5.053  1.00  0.00     0.048 A 
HETATM    7  C   UNL     1      67.965   7.160   5.786  1.00  0.00     0.070 C 
HETATM    8  C   UNL     1      63.509   8.395   4.136  1.00  0.00     0.076 C 
ENDROOT
BRANCH   1   9
HETATM    9  C   UNL     1      66.031   5.825   8.024  1.00  0.00     0.164 C 
HETATM   10  O   UNL     1      65.830   4.613   8.123  1.00  0.00    -0.292 OA
HETATM   11  C   UNL     1      66.695   6.535   9.184  1.00  0.00     0.097 C 
ENDBRANCH   1   9
TORSDOF 1
ENDMDL
MODEL 9
REMARK VINA RESULT:      -3.4      2.626      3.019
REMARK  1 active torsions:
REMARK  status: ('A' for Active; 'I' for Inactive)
REMARK    1  A    between atoms: C_1  and  C_7 
ROOT
HETATM    1  C   UNL     1      62.413   8.094   2.771  1.00  0.00     0.074 A 
HETATM    2  N   UNL     1      62.253  10.217   3.746  1.00  0.00    -0.357 N 
ATOM      3  HN  UNL     1      62.283  10.916   4.487  1.00  0.00     0.166 HD
HETATM    4  C   UNL     1      62.512   8.863   3.924  1.00  0.00     0.026 A 
HETATM    5  S   UNL     1      61.981   9.111   1.453  1.00  0.00    -0.072 SA
HETATM    6  C   UNL     1      61.966  10.471   2.490  1.00  0.00     0.048 A 
HETATM    7  C   UNL     1      62.856   8.436   5.309  1.00  0.00     0.070 C 
HETATM    8  C   UNL     1      61.648  11.830   1.974  1.00  0.00     0.076 C 
ENDROOT
BRANCH   1   9
HETATM    9  C   UNL     1      62.621   6.660   2.604  1.00  0.00     0.164 C 
HETATM   10  O   UNL     1      61.700   5.840   2.648  1.00  0.00    -0.292 OA
HETATM   11  C   UNL     1      64.023   6.144   2.363  1.00  0.00     0.097 C 
ENDBRANCH   1   9
TORSDOF 1
ENDMDL
