MODEL 1
REMARK VINA RESULT:      -6.1      0.000      0.000
REMARK  2 active torsions:
REMARK  status: ('A' for Active; 'I' for Inactive)
REMARK    1  A    between atoms: C_1  and  C_2 
REMARK    2  A    between atoms: C_1  and  C_5 
ROOT
HETATM    1  C   UNL     1      63.570   7.872   5.809  1.00  0.00     0.163 C 
HETATM    2  O   UNL     1      62.885   7.660   6.800  1.00  0.00    -0.292 OA
ENDROOT
BRANCH   1   3
HETATM    3  C   UNL     1      63.045   8.866   4.820  1.00  0.00     0.010 A 
HETATM    4  C   UNL     1      62.698   8.550   3.492  1.00  0.00     0.018 A 
HETATM    5  C   UNL     1      62.184   9.527   2.631  1.00  0.00     0.043 A 
HETATM    6  C   UNL     1      61.981  10.831   3.084  1.00  0.00     0.116 A 
HETATM    7  C   UNL     1      62.314  11.166   4.397  1.00  0.00     0.043 A 
HETATM    8  F   UNL     1      61.458  11.767   2.255  1.00  0.00    -0.206 F 
HETATM    9  C   UNL     1      62.856  10.201   5.250  1.00  0.00     0.018 A 
ENDBRANCH   1   3
BRANCH   1  10
HETATM   10  C   UNL     1      64.688   6.871   5.461  1.00  0.00     0.064 C 
HETATM   11  C   UNL     1      65.058   5.993   6.682  1.00  0.00     0.040 C 
HETATM   12  C   UNL     1      65.923   6.767   7.692  1.00  0.00     0.233 C 
HETATM   13  N   UNL     1      67.160   7.210   7.045  1.00  0.00    -0.075 N 
HETATM   14  C   UNL     1      66.883   8.112   5.920  1.00  0.00     0.233 C 
HETATM   15  H   UNL     1      67.664   6.393   6.699  1.00  0.00     0.277 HD
HETATM   16  H   UNL     1      67.719   7.715   7.731  1.00  0.00     0.277 HD
HETATM   17  C   UNL     1      66.015   7.413   4.868  1.00  0.00     0.040 C 
ENDBRANCH   1  10
TORSDOF 2
ENDMDL
MODEL 2
REMARK VINA RESULT:      -5.5      0.849      1.509
REMARK  2 active torsions:
REMARK  status: ('A' for Active; 'I' for Inactive)
REMARK    1  A    between atoms: C_1  and  C_2 
REMARK    2  A    between atoms: C_1  and  C_5 
ROOT
HETATM    1  C   UNL     1      64.258   7.552   5.790  1.00  0.00     0.163 C 
HETATM    2  O   UNL     1      63.804   7.413   6.916  1.00  0.00    -0.292 OA
ENDROOT
BRANCH   1   3
HETATM    3  C   UNL     1      63.499   8.441   4.855  1.00  0.00     0.010 A 
HETATM    4  C   UNL     1      63.086   9.750   5.172  1.00  0.00     0.018 A 
HETATM    5  C   UNL     1      62.405  10.536   4.234  1.00  0.00     0.043 A 
HETATM    6  C   UNL     1      62.145  10.043   2.956  1.00  0.00     0.116 A 
HETATM    7  C   UNL     1      62.548   8.751   2.618  1.00  0.00     0.043 A 
HETATM    8  F   UNL     1      61.508  10.818   2.043  1.00  0.00    -0.206 F 
HETATM    9  C   UNL     1      63.202   7.952   3.560  1.00  0.00     0.018 A 
ENDBRANCH   1   3
BRANCH   1  10
HETATM   10  C   UNL     1      65.320   6.550   5.298  1.00  0.00     0.064 C 
HETATM   11  C   UNL     1      65.954   5.775   6.480  1.00  0.00     0.040 C 
HETATM   12  C   UNL     1      66.974   6.641   7.240  1.00  0.00     0.233 C 
HETATM   13  N   UNL     1      68.042   7.058   6.330  1.00  0.00    -0.075 N 
HETATM   14  C   UNL     1      67.518   7.867   5.221  1.00  0.00     0.233 C 
HETATM   15  H   UNL     1      68.497   6.228   5.949  1.00  0.00     0.277 HD
HETATM   16  H   UNL     1      68.708   7.626   6.854  1.00  0.00     0.277 HD
HETATM   17  C   UNL     1      66.484   7.071   4.416  1.00  0.00     0.040 C 
ENDBRANCH   1  10
TORSDOF 2
ENDMDL
MODEL 3
REMARK VINA RESULT:      -5.5      1.474      2.439
REMARK  2 active torsions:
REMARK  status: ('A' for Active; 'I' for Inactive)
REMARK    1  A    between atoms: C_1  and  C_2 
REMARK    2  A    between atoms: C_1  and  C_5 
ROOT
HETATM    1  C   UNL     1      62.770   7.874   4.596  1.00  0.00     0.163 C 
HETATM    2  O   UNL     1      62.351   6.814   4.154  1.00  0.00    -0.292 OA
ENDROOT
BRANCH   1   3
HETATM    3  C   UNL     1      62.407   9.116   3.843  1.00  0.00     0.010 A 
HETATM    4  C   UNL     1      62.256  10.384   4.438  1.00  0.00     0.018 A 
HETATM    5  C   UNL     1      61.945  11.509   3.664  1.00  0.00     0.043 A 
HETATM    6  C   UNL     1      61.805  11.397   2.281  1.00  0.00     0.116 A 
HETATM    7  C   UNL     1      61.954  10.151   1.670  1.00  0.00     0.043 A 
HETATM    8  F   UNL     1      61.530  12.494   1.533  1.00  0.00    -0.206 F 
HETATM    9  C   UNL     1      62.235   9.021   2.441  1.00  0.00     0.018 A 
ENDBRANCH   1   3
BRANCH   1  10
HETATM   10  C   UNL     1      63.910   7.838   5.632  1.00  0.00     0.064 C 
HETATM   11  C   UNL     1      65.277   8.152   4.974  1.00  0.00     0.040 C 
HETATM   12  C   UNL     1      65.815   6.944   4.187  1.00  0.00     0.233 C 
HETATM   13  N   UNL     1      65.982   5.802   5.089  1.00  0.00    -0.075 N 
HETATM   14  C   UNL     1      64.704   5.402   5.691  1.00  0.00     0.233 C 
HETATM   15  H   UNL     1      66.633   6.059   5.832  1.00  0.00     0.277 HD
HETATM   16  H   UNL     1      66.343   5.016   4.549  1.00  0.00     0.277 HD
HETATM   17  C   UNL     1      64.098   6.561   6.490  1.00  0.00     0.040 C 
ENDBRANCH   1  10
TORSDOF 2
ENDMDL
MODEL 4
REMARK VINA RESULT:      -5.1      1.105      1.792
REMARK  2 active torsions:
REMARK  status: ('A' for Active; 'I' for Inactive)
REMARK    1  A    between atoms: C_1  and  C_2 
REMARK    2  A    between atoms: C_1  and  C_5 
ROOT
HETATM    1  C   UNL     1      64.327   7.716   5.730  1.00  0.00     0.163 C 
HETATM    2  O   UNL     1      63.816   6.632   5.971  1.00  0.00    -0.292 OA
ENDROOT
BRANCH   1   3
HETATM    3  C   UNL     1      63.572   8.639   4.825  1.00  0.00     0.010 A 
HETATM    4  C   UNL     1      63.168   8.307   3.517  1.00  0.00     0.018 A 
HETATM    5  C   UNL     1      62.435   9.211   2.738  1.00  0.00     0.043 A 
HETATM    6  C   UNL     1      62.070  10.453   3.256  1.00  0.00     0.116 A 
HETATM    7  C   UNL     1      62.455  10.803   4.551  1.00  0.00     0.043 A 
HETATM    8  F   UNL     1      61.338  11.315   2.508  1.00  0.00    -0.206 F 
HETATM    9  C   UNL     1      63.212   9.915   5.321  1.00  0.00     0.018 A 
ENDBRANCH   1   3
BRANCH   1  10
HETATM   10  C   UNL     1      65.823   7.908   6.043  1.00  0.00     0.064 C 
HETATM   11  C   UNL     1      66.680   7.856   4.752  1.00  0.00     0.040 C 
HETATM   12  C   UNL     1      66.863   6.412   4.255  1.00  0.00     0.233 C 
HETATM   13  N   UNL     1      67.527   5.614   5.287  1.00  0.00    -0.075 N 
HETATM   14  C   UNL     1      66.728   5.557   6.518  1.00  0.00     0.233 C 
HETATM   15  H   UNL     1      68.433   6.033   5.498  1.00  0.00     0.277 HD
HETATM   16  H   UNL     1      67.642   4.664   4.935  1.00  0.00     0.277 HD
HETATM   17  C   UNL     1      66.495   6.966   7.075  1.00  0.00     0.040 C 
ENDBRANCH   1  10
TORSDOF 2
ENDMDL
MODEL 5
REMARK VINA RESULT:      -4.8      3.536      5.695
REMARK  2 active torsions:
REMARK  status: ('A' for Active; 'I' for Inactive)
REMARK    1  A    between atoms: C_1  and  C_2 
REMARK    2  A    between atoms: C_1  and  C_5 
ROOT
HETATM    1  C   UNL     1      63.118   7.573   3.045  1.00  0.00     0.163 C 
HETATM    2  O   UNL     1      63.475   6.922   2.073  1.00  0.00    -0.292 OA
ENDROOT
BRANCH   1   3
HETATM    3  C   UNL     1      63.902   7.395   4.308  1.00  0.00     0.010 A 
HETATM    4  C   UNL     1      64.971   8.226   4.696  1.00  0.00     0.018 A 
HETATM    5  C   UNL     1      65.640   8.018   5.908  1.00  0.00     0.043 A 
HETATM    6  C   UNL     1      65.240   6.996   6.768  1.00  0.00     0.116 A 
HETATM    7  C   UNL     1      64.180   6.164   6.407  1.00  0.00     0.043 A 
HETATM    8  F   UNL     1      65.873   6.816   7.954  1.00  0.00    -0.206 F 
HETATM    9  C   UNL     1      63.530   6.348   5.184  1.00  0.00     0.018 A 
ENDBRANCH   1   3
BRANCH   1  10
HETATM   10  C   UNL     1      61.716   8.212   3.025  1.00  0.00     0.064 C 
HETATM   11  C   UNL     1      61.364   8.753   1.616  1.00  0.00     0.040 C 
HETATM   12  C   UNL     1      62.087  10.080   1.325  1.00  0.00     0.233 C 
HETATM   13  N   UNL     1      61.699  11.082   2.320  1.00  0.00    -0.075 N 
HETATM   14  C   UNL     1      62.075  10.665   3.677  1.00  0.00     0.233 C 
HETATM   15  H   UNL     1      60.688  11.213   2.281  1.00  0.00     0.277 HD
HETATM   16  H   UNL     1      62.184  11.953   2.106  1.00  0.00     0.277 HD
HETATM   17  C   UNL     1      61.397   9.339   4.040  1.00  0.00     0.040 C 
ENDBRANCH   1  10
TORSDOF 2
ENDMDL
MODEL 6
REMARK VINA RESULT:      -4.8      3.292      4.213
REMARK  2 active torsions:
REMARK  status: ('A' for Active; 'I' for Inactive)
REMARK    1  A    between atoms: C_1  and  C_2 
REMARK    2  A    between atoms: C_1  and  C_5 
ROOT
HETATM    1  C   UNL     1      63.005   7.448   4.006  1.00  0.00     0.163 C 
HETATM    2  O   UNL     1      64.146   7.362   4.438  1.00  0.00    -0.292 OA
ENDROOT
BRANCH   1   3
HETATM    3  C   UNL     1      62.626   8.733   3.339  1.00  0.00     0.010 A 
HETATM    4  C   UNL     1      62.436   8.876   1.950  1.00  0.00     0.018 A 
HETATM    5  C   UNL     1      62.051  10.103   1.398  1.00  0.00     0.043 A 
HETATM    6  C   UNL     1      61.822  11.206   2.222  1.00  0.00     0.116 A 
HETATM    7  C   UNL     1      62.000  11.087   3.601  1.00  0.00     0.043 A 
HETATM    8  F   UNL     1      61.424  12.386   1.686  1.00  0.00    -0.206 F 
HETATM    9  C   UNL     1      62.413   9.872   4.152  1.00  0.00     0.018 A 
ENDBRANCH   1   3
BRANCH   1  10
HETATM   10  C   UNL     1      61.958   6.428   4.491  1.00  0.00     0.064 C 
HETATM   11  C   UNL     1      62.039   5.110   3.682  1.00  0.00     0.040 C 
HETATM   12  C   UNL     1      61.398   5.262   2.291  1.00  0.00     0.233 C 
HETATM   13  N   UNL     1      59.989   5.634   2.435  1.00  0.00    -0.075 N 
HETATM   14  C   UNL     1      59.843   6.920   3.129  1.00  0.00     0.233 C 
HETATM   15  H   UNL     1      59.508   4.912   2.969  1.00  0.00     0.277 HD
HETATM   16  H   UNL     1      59.584   5.725   1.503  1.00  0.00     0.277 HD
HETATM   17  C   UNL     1      60.467   6.851   4.528  1.00  0.00     0.040 C 
ENDBRANCH   1  10
TORSDOF 2
ENDMDL
MODEL 7
REMARK VINA RESULT:      -4.7      1.843      2.608
REMARK  2 active torsions:
REMARK  status: ('A' for Active; 'I' for Inactive)
REMARK    1  A    between atoms: C_1  and  C_2 
REMARK    2  A    between atoms: C_1  and  C_5 
ROOT
HETATM    1  C   UNL     1      63.397   8.581   4.859  1.00  0.00     0.163 C 
HETATM    2  O   UNL     1      62.916   8.648   5.981  1.00  0.00    -0.292 OA
ENDROOT
BRANCH   1   3
HETATM    3  C   UNL     1      62.440   8.576   3.708  1.00  0.00     0.010 A 
HETATM    4  C   UNL     1      62.557   9.414   2.581  1.00  0.00     0.018 A 
HETATM    5  C   UNL     1      61.640   9.333   1.526  1.00  0.00     0.043 A 
HETATM    6  C   UNL     1      60.605   8.399   1.562  1.00  0.00     0.116 A 
HETATM    7  C   UNL     1      60.471   7.557   2.666  1.00  0.00     0.043 A 
HETATM    8  F   UNL     1      59.734   8.307   0.526  1.00  0.00    -0.206 F 
HETATM    9  C   UNL     1      61.366   7.655   3.734  1.00  0.00     0.018 A 
ENDBRANCH   1   3
BRANCH   1  10
HETATM   10  C   UNL     1      64.865   8.135   4.715  1.00  0.00     0.064 C 
HETATM   11  C   UNL     1      64.976   6.809   3.921  1.00  0.00     0.040 C 
HETATM   12  C   UNL     1      64.586   5.599   4.788  1.00  0.00     0.233 C 
HETATM   13  N   UNL     1      65.471   5.521   5.953  1.00  0.00    -0.075 N 
HETATM   14  C   UNL     1      65.357   6.720   6.794  1.00  0.00     0.233 C 
HETATM   15  H   UNL     1      66.434   5.431   5.632  1.00  0.00     0.277 HD
HETATM   16  H   UNL     1      65.198   4.712   6.510  1.00  0.00     0.277 HD
HETATM   17  C   UNL     1      65.724   7.975   5.996  1.00  0.00     0.040 C 
ENDBRANCH   1  10
TORSDOF 2
ENDMDL
MODEL 8
REMARK VINA RESULT:      -4.6      3.852      4.834
REMARK  2 active torsions:
REMARK  status: ('A' for Active; 'I' for Inactive)
REMARK    1  A    between atoms: C_1  and  C_2 
REMARK    2  A    between atoms: C_1  and  C_5 
ROOT
HETATM    1  C   UNL     1      61.723   7.196   3.898  1.00  0.00     0.163 C 
HETATM    2  O   UNL     1      62.298   7.050   4.967  1.00  0.00    -0.292 OA
ENDROOT
BRANCH   1   3
HETATM    3  C   UNL     1      61.811   8.545   3.256  1.00  0.00     0.010 A 
HETATM    4  C   UNL     1      61.885   8.755   1.866  1.00  0.00     0.018 A 
HETATM    5  C   UNL     1      61.934  10.050   1.335  1.00  0.00     0.043 A 
HETATM    6  C   UNL     1      61.885  11.160   2.177  1.00  0.00     0.116 A 
HETATM    7  C   UNL     1      61.808  10.976   3.559  1.00  0.00     0.043 A 
HETATM    8  F   UNL     1      61.906  12.412   1.658  1.00  0.00    -0.206 F 
HETATM    9  C   UNL     1      61.789   9.686   4.094  1.00  0.00     0.018 A 
ENDBRANCH   1   3
BRANCH   1  10
HETATM   10  C   UNL     1      60.673   6.149   3.480  1.00  0.00     0.064 C 
HETATM   11  C   UNL     1      59.382   6.826   2.953  1.00  0.00     0.040 C 
HETATM   12  C   UNL     1      58.525   7.379   4.105  1.00  0.00     0.233 C 
HETATM   13  N   UNL     1      58.145   6.289   5.005  1.00  0.00    -0.075 N 
HETATM   14  C   UNL     1      59.325   5.650   5.602  1.00  0.00     0.233 C 
HETATM   15  H   UNL     1      57.621   5.590   4.477  1.00  0.00     0.277 HD
HETATM   16  H   UNL     1      57.575   6.676   5.756  1.00  0.00     0.277 HD
HETATM   17  C   UNL     1      60.238   5.077   4.513  1.00  0.00     0.040 C 
ENDBRANCH   1  10
TORSDOF 2
ENDMDL
MODEL 9
REMARK VINA RESULT:      -4.6      3.498      5.553
REMARK  2 active torsions:
REMARK  status: ('A' for Active; 'I' for Inactive)
REMARK    1  A    between atoms: C_1  and  C_2 
REMARK    2  A    between atoms: C_1  and  C_5 
ROOT
HETATM    1  C   UNL     1      63.564   8.601   5.037  1.00  0.00     0.163 C 
HETATM    2  O   UNL     1      63.109   9.489   5.744  1.00  0.00    -0.292 OA
ENDROOT
BRANCH   1   3
HETATM    3  C   UNL     1      64.762   7.867   5.553  1.00  0.00     0.010 A 
HETATM    4  C   UNL     1      66.084   8.129   5.145  1.00  0.00     0.018 A 
HETATM    5  C   UNL     1      67.161   7.422   5.694  1.00  0.00     0.043 A 
HETATM    6  C   UNL     1      66.943   6.460   6.680  1.00  0.00     0.116 A 
HETATM    7  C   UNL     1      65.641   6.187   7.104  1.00  0.00     0.043 A 
HETATM    8  F   UNL     1      67.990   5.796   7.229  1.00  0.00    -0.206 F 
HETATM    9  C   UNL     1      64.562   6.868   6.536  1.00  0.00     0.018 A 
ENDBRANCH   1   3
BRANCH   1  10
HETATM   10  C   UNL     1      63.136   8.549   3.558  1.00  0.00     0.064 C 
HETATM   11  C   UNL     1      61.640   8.913   3.391  1.00  0.00     0.040 C 
HETATM   12  C   UNL     1      60.726   7.745   3.803  1.00  0.00     0.233 C 
HETATM   13  N   UNL     1      61.017   6.575   2.972  1.00  0.00    -0.075 N 
HETATM   14  C   UNL     1      62.406   6.128   3.142  1.00  0.00     0.233 C 
HETATM   15  H   UNL     1      60.863   6.816   1.994  1.00  0.00     0.277 HD
HETATM   16  H   UNL     1      60.399   5.816   3.259  1.00  0.00     0.277 HD
HETATM   17  C   UNL     1      63.382   7.245   2.757  1.00  0.00     0.040 C 
ENDBRANCH   1  10
TORSDOF 2
ENDMDL
