MODEL 1
REMARK VINA RESULT:      -5.0      0.000      0.000
REMARK  2 active torsions:
REMARK  status: ('A' for Active; 'I' for Inactive)
REMARK    1  A    between atoms: C_3  and  C_7 
REMARK    2  A    between atoms: C_7  and  O_8 
ROOT
HETATM    1  N   UNL     1      64.678   7.576   4.364  1.00  0.00    -0.342 N 
ATOM      2  HN  UNL     1      65.018   6.725   3.917  1.00  0.00     0.167 HD
HETATM    3  C   UNL     1      65.114   8.116   5.485  1.00  0.00     0.111 A 
HETATM    4  N   UNL     1      64.421   9.270   5.772  1.00  0.00    -0.342 N 
HETATM    5  C   UNL     1      63.670   8.400   3.926  1.00  0.00     0.060 A 
HETATM    6  C   UNL     1      63.492   9.472   4.790  1.00  0.00     0.060 A 
HETATM    7  C   UNL     1      62.862   8.303   2.783  1.00  0.00     0.032 A 
HETATM    8  C   UNL     1      62.544  10.479   4.587  1.00  0.00     0.032 A 
HETATM    9  C   UNL     1      61.903   9.297   2.553  1.00  0.00     0.002 A 
HETATM   10  C   UNL     1      61.750  10.365   3.441  1.00  0.00     0.002 A 
HETATM   11  H   UNL     1      64.569   9.851   6.552  1.00  0.00     0.167 HD
ENDROOT
BRANCH   3  12
HETATM   12  C   UNL     1      66.248   7.653   6.334  1.00  0.00     0.181 C 
HETATM   13  C   UNL     1      65.795   6.720   7.446  1.00  0.00     0.047 C 
BRANCH  12  14
HETATM   14  O   UNL     1      66.818   8.822   6.925  1.00  0.00    -0.388 OA
HETATM   15  H   UNL     1      67.758   8.876   6.692  1.00  0.00     0.210 HD
ENDBRANCH  12  14
ENDBRANCH   3  12
TORSDOF 2
ENDMDL
MODEL 2
REMARK VINA RESULT:      -5.0      1.746      2.520
REMARK  2 active torsions:
REMARK  status: ('A' for Active; 'I' for Inactive)
REMARK    1  A    between atoms: C_3  and  C_7 
REMARK    2  A    between atoms: C_7  and  O_8 
ROOT
HETATM    1  N   UNL     1      63.122   9.038   5.514  1.00  0.00    -0.342 N 
ATOM      2  HN  UNL     1      63.202   9.409   6.460  1.00  0.00     0.167 HD
HETATM    3  C   UNL     1      63.419   7.820   5.107  1.00  0.00     0.111 A 
HETATM    4  N   UNL     1      63.173   7.681   3.760  1.00  0.00    -0.342 N 
HETATM    5  C   UNL     1      62.683   9.703   4.394  1.00  0.00     0.060 A 
HETATM    6  C   UNL     1      62.702   8.872   3.282  1.00  0.00     0.060 A 
HETATM    7  C   UNL     1      62.237  11.025   4.250  1.00  0.00     0.032 A 
HETATM    8  C   UNL     1      62.295   9.277   2.008  1.00  0.00     0.032 A 
HETATM    9  C   UNL     1      61.823  11.460   2.985  1.00  0.00     0.002 A 
HETATM   10  C   UNL     1      61.852  10.598   1.886  1.00  0.00     0.002 A 
HETATM   11  H   UNL     1      63.313   6.863   3.231  1.00  0.00     0.167 HD
ENDROOT
BRANCH   3  12
HETATM   12  C   UNL     1      63.881   6.674   5.940  1.00  0.00     0.181 C 
HETATM   13  C   UNL     1      62.774   5.665   6.203  1.00  0.00     0.047 C 
BRANCH  12  14
HETATM   14  O   UNL     1      64.302   7.222   7.190  1.00  0.00    -0.388 OA
HETATM   15  H   UNL     1      65.146   6.821   7.452  1.00  0.00     0.210 HD
ENDBRANCH  12  14
ENDBRANCH   3  12
TORSDOF 2
ENDMDL
MODEL 3
REMARK VINA RESULT:      -4.7      1.933      4.312
REMARK  2 active torsions:
REMARK  status: ('A' for Active; 'I' for Inactive)
REMARK    1  A    between atoms: C_3  and  C_7 
REMARK    2  A    between atoms: C_7  and  O_8 
ROOT
HETATM    1  N   UNL     1      63.897   8.181   4.141  1.00  0.00    -0.342 N 
ATOM      2  HN  UNL     1      63.167   8.023   3.446  1.00  0.00     0.167 HD
HETATM    3  C   UNL     1      63.933   9.126   5.058  1.00  0.00     0.111 A 
HETATM    4  N   UNL     1      65.071   9.020   5.825  1.00  0.00    -0.342 N 
HETATM    5  C   UNL     1      65.049   7.452   4.317  1.00  0.00     0.060 A 
HETATM    6  C   UNL     1      65.801   7.957   5.370  1.00  0.00     0.060 A 
HETATM    7  C   UNL     1      65.520   6.332   3.617  1.00  0.00     0.032 A 
HETATM    8  C   UNL     1      67.017   7.406   5.784  1.00  0.00     0.032 A 
HETATM    9  C   UNL     1      66.735   5.757   4.010  1.00  0.00     0.002 A 
HETATM   10  C   UNL     1      67.468   6.287   5.076  1.00  0.00     0.002 A 
HETATM   11  H   UNL     1      65.319   9.608   6.574  1.00  0.00     0.167 HD
ENDROOT
BRANCH   3  12
HETATM   12  C   UNL     1      62.891  10.152   5.345  1.00  0.00     0.181 C 
HETATM   13  C   UNL     1      62.202  10.647   4.084  1.00  0.00     0.047 C 
BRANCH  12  14
HETATM   14  O   UNL     1      63.561  11.253   5.961  1.00  0.00    -0.388 OA
HETATM   15  H   UNL     1      62.983  12.032   5.946  1.00  0.00     0.210 HD
ENDBRANCH  12  14
ENDBRANCH   3  12
TORSDOF 2
ENDMDL
MODEL 4
REMARK VINA RESULT:      -4.5      2.597      5.952
REMARK  2 active torsions:
REMARK  status: ('A' for Active; 'I' for Inactive)
REMARK    1  A    between atoms: C_3  and  C_7 
REMARK    2  A    between atoms: C_7  and  O_8 
ROOT
HETATM    1  N   UNL     1      64.927   5.342   6.496  1.00  0.00    -0.342 N 
ATOM      2  HN  UNL     1      64.493   4.623   5.917  1.00  0.00     0.167 HD
HETATM    3  C   UNL     1      64.582   6.612   6.583  1.00  0.00     0.111 A 
HETATM    4  N   UNL     1      65.391   7.277   7.475  1.00  0.00    -0.342 N 
HETATM    5  C   UNL     1      65.994   5.191   7.349  1.00  0.00     0.060 A 
HETATM    6  C   UNL     1      66.301   6.390   7.978  1.00  0.00     0.060 A 
HETATM    7  C   UNL     1      66.751   4.049   7.649  1.00  0.00     0.032 A 
HETATM    8  C   UNL     1      67.334   6.531   8.909  1.00  0.00     0.032 A 
HETATM    9  C   UNL     1      67.792   4.159   8.579  1.00  0.00     0.002 A 
HETATM   10  C   UNL     1      68.075   5.380   9.197  1.00  0.00     0.002 A 
HETATM   11  H   UNL     1      65.325   8.230   7.712  1.00  0.00     0.167 HD
ENDROOT
BRANCH   3  12
HETATM   12  C   UNL     1      63.438   7.289   5.909  1.00  0.00     0.181 C 
HETATM   13  C   UNL     1      63.886   8.445   5.029  1.00  0.00     0.047 C 
BRANCH  12  14
HETATM   14  O   UNL     1      62.601   7.803   6.945  1.00  0.00    -0.388 OA
HETATM   15  H   UNL     1      62.132   8.589   6.622  1.00  0.00     0.210 HD
ENDBRANCH  12  14
ENDBRANCH   3  12
TORSDOF 2
ENDMDL
MODEL 5
REMARK VINA RESULT:      -4.3      1.182      2.111
REMARK  2 active torsions:
REMARK  status: ('A' for Active; 'I' for Inactive)
REMARK    1  A    between atoms: C_3  and  C_7 
REMARK    2  A    between atoms: C_7  and  O_8 
ROOT
HETATM    1  N   UNL     1      65.372   8.761   5.958  1.00  0.00    -0.342 N 
ATOM      2  HN  UNL     1      65.553   9.426   6.710  1.00  0.00     0.167 HD
HETATM    3  C   UNL     1      66.100   7.712   5.630  1.00  0.00     0.111 A 
HETATM    4  N   UNL     1      65.539   7.042   4.568  1.00  0.00    -0.342 N 
HETATM    5  C   UNL     1      64.320   8.770   5.075  1.00  0.00     0.060 A 
HETATM    6  C   UNL     1      64.400   7.699   4.195  1.00  0.00     0.060 A 
HETATM    7  C   UNL     1      63.242   9.662   4.969  1.00  0.00     0.032 A 
HETATM    8  C   UNL     1      63.456   7.449   3.195  1.00  0.00     0.032 A 
HETATM    9  C   UNL     1      62.280   9.436   3.977  1.00  0.00     0.002 A 
HETATM   10  C   UNL     1      62.387   8.348   3.108  1.00  0.00     0.002 A 
HETATM   11  H   UNL     1      65.896   6.227   4.147  1.00  0.00     0.167 HD
ENDROOT
BRANCH   3  12
HETATM   12  C   UNL     1      67.324   7.208   6.315  1.00  0.00     0.181 C 
HETATM   13  C   UNL     1      67.418   5.691   6.291  1.00  0.00     0.047 C 
BRANCH  12  14
HETATM   14  O   UNL     1      67.235   7.636   7.675  1.00  0.00    -0.388 OA
HETATM   15  H   UNL     1      66.335   7.485   8.004  1.00  0.00     0.210 HD
ENDBRANCH  12  14
ENDBRANCH   3  12
TORSDOF 2
ENDMDL
MODEL 6
REMARK VINA RESULT:      -4.1     10.326     11.830
REMARK  2 active torsions:
REMARK  status: ('A' for Active; 'I' for Inactive)
REMARK    1  A    between atoms: C_3  and  C_7 
REMARK    2  A    between atoms: C_7  and  O_8 
ROOT
HETATM    1  N   UNL     1      57.954   1.510  10.504  1.00  0.00    -0.342 N 
ATOM      2  HN  UNL     1      57.628   1.006   9.680  1.00  0.00     0.167 HD
HETATM    3  C   UNL     1      58.360   2.763  10.564  1.00  0.00     0.111 A 
HETATM    4  N   UNL     1      58.716   3.100  11.850  1.00  0.00    -0.342 N 
HETATM    5  C   UNL     1      58.062   1.027  11.786  1.00  0.00     0.060 A 
HETATM    6  C   UNL     1      58.535   2.006  12.649  1.00  0.00     0.060 A 
HETATM    7  C   UNL     1      57.764  -0.246  12.295  1.00  0.00     0.032 A 
HETATM    8  C   UNL     1      58.732   1.800  14.018  1.00  0.00     0.032 A 
HETATM    9  C   UNL     1      57.950  -0.482  13.663  1.00  0.00     0.002 A 
HETATM   10  C   UNL     1      58.425   0.526  14.506  1.00  0.00     0.002 A 
HETATM   11  H   UNL     1      59.045   3.980  12.145  1.00  0.00     0.167 HD
ENDROOT
BRANCH   3  12
HETATM   12  C   UNL     1      58.380   3.763   9.459  1.00  0.00     0.181 C 
HETATM   13  C   UNL     1      59.445   3.455   8.419  1.00  0.00     0.047 C 
BRANCH  12  14
HETATM   14  O   UNL     1      58.680   5.025  10.058  1.00  0.00    -0.388 OA
HETATM   15  H   UNL     1      57.855   5.468  10.310  1.00  0.00     0.210 HD
ENDBRANCH  12  14
ENDBRANCH   3  12
TORSDOF 2
ENDMDL
MODEL 7
REMARK VINA RESULT:      -4.1      3.594      5.280
REMARK  2 active torsions:
REMARK  status: ('A' for Active; 'I' for Inactive)
REMARK    1  A    between atoms: C_3  and  C_7 
REMARK    2  A    between atoms: C_7  and  O_8 
ROOT
HETATM    1  N   UNL     1      62.014   7.794   2.488  1.00  0.00    -0.342 N 
ATOM      2  HN  UNL     1      62.275   6.812   2.568  1.00  0.00     0.167 HD
HETATM    3  C   UNL     1      61.329   8.361   1.514  1.00  0.00     0.111 A 
HETATM    4  N   UNL     1      61.159   9.705   1.754  1.00  0.00    -0.342 N 
HETATM    5  C   UNL     1      62.301   8.806   3.373  1.00  0.00     0.060 A 
HETATM    6  C   UNL     1      61.772  10.013   2.936  1.00  0.00     0.060 A 
HETATM    7  C   UNL     1      63.005   8.767   4.585  1.00  0.00     0.032 A 
HETATM    8  C   UNL     1      61.898  11.212   3.644  1.00  0.00     0.032 A 
HETATM    9  C   UNL     1      63.147   9.953   5.317  1.00  0.00     0.002 A 
HETATM   10  C   UNL     1      62.601  11.152   4.852  1.00  0.00     0.002 A 
HETATM   11  H   UNL     1      60.679  10.338   1.174  1.00  0.00     0.167 HD
ENDROOT
BRANCH   3  12
HETATM   12  C   UNL     1      60.717   7.694   0.330  1.00  0.00     0.181 C 
HETATM   13  C   UNL     1      59.224   7.467   0.499  1.00  0.00     0.047 C 
BRANCH  12  14
HETATM   14  O   UNL     1      61.359   6.424   0.200  1.00  0.00    -0.388 OA
HETATM   15  H   UNL     1      61.492   6.039   1.080  1.00  0.00     0.210 HD
ENDBRANCH  12  14
ENDBRANCH   3  12
TORSDOF 2
ENDMDL
MODEL 8
REMARK VINA RESULT:      -4.0      2.073      5.277
REMARK  2 active torsions:
REMARK  status: ('A' for Active; 'I' for Inactive)
REMARK    1  A    between atoms: C_3  and  C_7 
REMARK    2  A    between atoms: C_7  and  O_8 
ROOT
HETATM    1  N   UNL     1      64.279   7.465   6.552  1.00  0.00    -0.342 N 
ATOM      2  HN  UNL     1      63.438   7.516   7.127  1.00  0.00     0.167 HD
HETATM    3  C   UNL     1      64.443   7.941   5.334  1.00  0.00     0.111 A 
HETATM    4  N   UNL     1      65.718   7.692   4.880  1.00  0.00    -0.342 N 
HETATM    5  C   UNL     1      65.479   6.885   6.885  1.00  0.00     0.060 A 
HETATM    6  C   UNL     1      66.399   7.018   5.854  1.00  0.00     0.060 A 
HETATM    7  C   UNL     1      65.865   6.229   8.064  1.00  0.00     0.032 A 
HETATM    8  C   UNL     1      67.709   6.533   5.920  1.00  0.00     0.032 A 
HETATM    9  C   UNL     1      67.171   5.734   8.160  1.00  0.00     0.002 A 
HETATM   10  C   UNL     1      68.075   5.886   7.105  1.00  0.00     0.002 A 
HETATM   11  H   UNL     1      66.079   7.955   4.003  1.00  0.00     0.167 HD
ENDROOT
BRANCH   3  12
HETATM   12  C   UNL     1      63.464   8.724   4.527  1.00  0.00     0.181 C 
HETATM   13  C   UNL     1      63.120  10.058   5.169  1.00  0.00     0.047 C 
BRANCH  12  14
HETATM   14  O   UNL     1      62.276   7.935   4.452  1.00  0.00    -0.388 OA
HETATM   15  H   UNL     1      62.474   7.092   4.015  1.00  0.00     0.210 HD
ENDBRANCH  12  14
ENDBRANCH   3  12
TORSDOF 2
ENDMDL
MODEL 9
REMARK VINA RESULT:      -4.0     12.210     13.532
REMARK  2 active torsions:
REMARK  status: ('A' for Active; 'I' for Inactive)
REMARK    1  A    between atoms: C_3  and  C_7 
REMARK    2  A    between atoms: C_7  and  O_8 
ROOT
HETATM    1  N   UNL     1      56.162   2.349  14.387  1.00  0.00    -0.342 N 
ATOM      2  HN  UNL     1      55.985   2.285  15.389  1.00  0.00     0.167 HD
HETATM    3  C   UNL     1      55.356   2.839  13.465  1.00  0.00     0.111 A 
HETATM    4  N   UNL     1      55.939   2.769  12.221  1.00  0.00    -0.342 N 
HETATM    5  C   UNL     1      57.288   1.943  13.713  1.00  0.00     0.060 A 
HETATM    6  C   UNL     1      57.174   2.199  12.353  1.00  0.00     0.060 A 
HETATM    7  C   UNL     1      58.463   1.352  14.200  1.00  0.00     0.032 A 
HETATM    8  C   UNL     1      58.176   1.902  11.425  1.00  0.00     0.032 A 
HETATM    9  C   UNL     1      59.485   1.044  13.294  1.00  0.00     0.002 A 
HETATM   10  C   UNL     1      59.341   1.316  11.931  1.00  0.00     0.002 A 
HETATM   11  H   UNL     1      55.535   3.076  11.377  1.00  0.00     0.167 HD
ENDROOT
BRANCH   3  12
HETATM   12  C   UNL     1      54.024   3.475  13.671  1.00  0.00     0.181 C 
HETATM   13  C   UNL     1      53.397   3.940  12.367  1.00  0.00     0.047 C 
BRANCH  12  14
HETATM   14  O   UNL     1      54.242   4.616  14.503  1.00  0.00    -0.388 OA
HETATM   15  H   UNL     1      54.779   5.267  14.025  1.00  0.00     0.210 HD
ENDBRANCH  12  14
ENDBRANCH   3  12
TORSDOF 2
ENDMDL
