MODEL 1
REMARK VINA RESULT:      -4.2      0.000      0.000
REMARK  0 active torsions:
REMARK  status: ('A' for Active; 'I' for Inactive)
ROOT
HETATM    1  C   UNL     1      62.165  10.568   3.954  1.00  0.00     0.251 A 
HETATM    2  C   UNL     1      61.942  10.681   2.477  1.00  0.00     0.006 A 
HETATM    3  N   UNL     1      62.445   9.305   4.427  1.00  0.00    -0.333 N 
HETATM    4  C   UNL     1      62.038   9.566   1.727  1.00  0.00     0.013 A 
HETATM    5  C   UNL     1      62.531   8.189   3.639  1.00  0.00     0.091 A 
HETATM    6  O   UNL     1      62.105  11.534   4.706  1.00  0.00    -0.268 OA
HETATM    7  C   UNL     1      62.339   8.284   2.318  1.00  0.00     0.018 A 
HETATM    8  C   UNL     1      61.615  12.020   1.903  1.00  0.00     0.054 C 
HETATM    9  H   UNL     1      62.594   9.199   5.394  1.00  0.00     0.168 HD
ENDROOT
TORSDOF 0
ENDMDL
MODEL 2
REMARK VINA RESULT:      -4.2      1.393      2.387
REMARK  0 active torsions:
REMARK  status: ('A' for Active; 'I' for Inactive)
ROOT
HETATM    1  C   UNL     1      61.980  10.757   3.400  1.00  0.00     0.251 A 
HETATM    2  C   UNL     1      62.687   9.542   3.919  1.00  0.00     0.006 A 
HETATM    3  N   UNL     1      61.549  10.692   2.095  1.00  0.00    -0.333 N 
HETATM    4  C   UNL     1      62.840   8.488   3.094  1.00  0.00     0.013 A 
HETATM    5  C   UNL     1      61.725   9.607   1.278  1.00  0.00     0.091 A 
HETATM    6  O   UNL     1      61.793  11.754   4.088  1.00  0.00    -0.268 OA
HETATM    7  C   UNL     1      62.348   8.517   1.737  1.00  0.00     0.018 A 
HETATM    8  C   UNL     1      63.197   9.555   5.322  1.00  0.00     0.054 C 
HETATM    9  H   UNL     1      61.084  11.477   1.724  1.00  0.00     0.168 HD
ENDROOT
TORSDOF 0
ENDMDL
MODEL 3
REMARK VINA RESULT:      -4.1      1.541      2.310
REMARK  0 active torsions:
REMARK  status: ('A' for Active; 'I' for Inactive)
ROOT
HETATM    1  C   UNL     1      62.046  11.188   3.132  1.00  0.00     0.251 A 
HETATM    2  C   UNL     1      62.199   9.748   2.747  1.00  0.00     0.006 A 
HETATM    3  N   UNL     1      62.365  11.501   4.433  1.00  0.00    -0.333 N 
HETATM    4  C   UNL     1      62.639   8.879   3.677  1.00  0.00     0.013 A 
HETATM    5  C   UNL     1      62.804  10.593   5.359  1.00  0.00     0.091 A 
HETATM    6  O   UNL     1      61.660  12.043   2.343  1.00  0.00    -0.268 OA
HETATM    7  C   UNL     1      62.951   9.307   5.020  1.00  0.00     0.018 A 
HETATM    8  C   UNL     1      61.851   9.338   1.353  1.00  0.00     0.054 C 
HETATM    9  H   UNL     1      62.271  12.439   4.717  1.00  0.00     0.168 HD
ENDROOT
TORSDOF 0
ENDMDL
MODEL 4
REMARK VINA RESULT:      -4.0      1.503      2.825
REMARK  0 active torsions:
REMARK  status: ('A' for Active; 'I' for Inactive)
ROOT
HETATM    1  C   UNL     1      62.782  10.585   5.030  1.00  0.00     0.251 A 
HETATM    2  C   UNL     1      63.057   9.229   4.456  1.00  0.00     0.006 A 
HETATM    3  N   UNL     1      62.147  11.476   4.195  1.00  0.00    -0.333 N 
HETATM    4  C   UNL     1      62.664   8.975   3.193  1.00  0.00     0.013 A 
HETATM    5  C   UNL     1      61.765  11.190   2.911  1.00  0.00     0.091 A 
HETATM    6  O   UNL     1      63.098  10.893   6.174  1.00  0.00    -0.268 OA
HETATM    7  C   UNL     1      62.001   9.979   2.395  1.00  0.00     0.018 A 
HETATM    8  C   UNL     1      63.760   8.221   5.305  1.00  0.00     0.054 C 
HETATM    9  H   UNL     1      61.956  12.377   4.543  1.00  0.00     0.168 HD
ENDROOT
TORSDOF 0
ENDMDL
MODEL 5
REMARK VINA RESULT:      -4.0      2.101      3.309
REMARK  0 active torsions:
REMARK  status: ('A' for Active; 'I' for Inactive)
ROOT
HETATM    1  C   UNL     1      63.970   9.095   5.209  1.00  0.00     0.251 A 
HETATM    2  C   UNL     1      63.377   8.579   3.933  1.00  0.00     0.006 A 
HETATM    3  N   UNL     1      63.503  10.317   5.639  1.00  0.00    -0.333 N 
HETATM    4  C   UNL     1      62.441   9.322   3.314  1.00  0.00     0.013 A 
HETATM    5  C   UNL     1      62.554  11.053   4.983  1.00  0.00     0.091 A 
HETATM    6  O   UNL     1      64.820   8.476   5.839  1.00  0.00    -0.268 OA
HETATM    7  C   UNL     1      62.015  10.594   3.848  1.00  0.00     0.018 A 
HETATM    8  C   UNL     1      63.855   7.267   3.402  1.00  0.00     0.054 C 
HETATM    9  H   UNL     1      63.876  10.684   6.473  1.00  0.00     0.168 HD
ENDROOT
TORSDOF 0
ENDMDL
MODEL 6
REMARK VINA RESULT:      -3.9      1.700      2.700
REMARK  0 active torsions:
REMARK  status: ('A' for Active; 'I' for Inactive)
ROOT
HETATM    1  C   UNL     1      62.469   8.757   3.118  1.00  0.00     0.251 A 
HETATM    2  C   UNL     1      62.106   9.467   1.849  1.00  0.00     0.006 A 
HETATM    3  N   UNL     1      62.488   9.529   4.257  1.00  0.00    -0.333 N 
HETATM    4  C   UNL     1      61.818  10.781   1.910  1.00  0.00     0.013 A 
HETATM    5  C   UNL     1      62.196  10.867   4.286  1.00  0.00     0.091 A 
HETATM    6  O   UNL     1      62.736   7.561   3.150  1.00  0.00    -0.268 OA
HETATM    7  C   UNL     1      61.864  11.505   3.158  1.00  0.00     0.018 A 
HETATM    8  C   UNL     1      62.086   8.690   0.574  1.00  0.00     0.054 C 
HETATM    9  H   UNL     1      62.726   9.092   5.106  1.00  0.00     0.168 HD
ENDROOT
TORSDOF 0
ENDMDL
MODEL 7
REMARK VINA RESULT:      -3.7      6.032      7.130
REMARK  0 active torsions:
REMARK  status: ('A' for Active; 'I' for Inactive)
ROOT
HETATM    1  C   UNL     1      66.798   7.717   6.786  1.00  0.00     0.251 A 
HETATM    2  C   UNL     1      67.164   6.696   5.753  1.00  0.00     0.006 A 
HETATM    3  N   UNL     1      67.058   7.372   8.093  1.00  0.00    -0.333 N 
HETATM    4  C   UNL     1      67.721   5.540   6.162  1.00  0.00     0.013 A 
HETATM    5  C   UNL     1      67.620   6.185   8.480  1.00  0.00     0.091 A 
HETATM    6  O   UNL     1      66.295   8.797   6.496  1.00  0.00    -0.268 OA
HETATM    7  C   UNL     1      67.956   5.272   7.562  1.00  0.00     0.018 A 
HETATM    8  C   UNL     1      66.890   7.000   4.317  1.00  0.00     0.054 C 
HETATM    9  H   UNL     1      66.825   8.021   8.795  1.00  0.00     0.168 HD
ENDROOT
TORSDOF 0
ENDMDL
MODEL 8
REMARK VINA RESULT:      -3.6      1.496      2.339
REMARK  0 active torsions:
REMARK  status: ('A' for Active; 'I' for Inactive)
ROOT
HETATM    1  C   UNL     1      62.628   9.137   4.062  1.00  0.00     0.251 A 
HETATM    2  C   UNL     1      62.343  10.608   4.023  1.00  0.00     0.006 A 
HETATM    3  N   UNL     1      62.429   8.453   2.884  1.00  0.00    -0.333 N 
HETATM    4  C   UNL     1      61.931  11.150   2.862  1.00  0.00     0.013 A 
HETATM    5  C   UNL     1      62.004   9.033   1.719  1.00  0.00     0.091 A 
HETATM    6  O   UNL     1      63.014   8.567   5.077  1.00  0.00    -0.268 OA
HETATM    7  C   UNL     1      61.755  10.346   1.676  1.00  0.00     0.018 A 
HETATM    8  C   UNL     1      62.519  11.404   5.274  1.00  0.00     0.054 C 
HETATM    9  H   UNL     1      62.605   7.485   2.879  1.00  0.00     0.168 HD
ENDROOT
TORSDOF 0
ENDMDL
MODEL 9
REMARK VINA RESULT:      -3.5      1.790      2.296
REMARK  0 active torsions:
REMARK  status: ('A' for Active; 'I' for Inactive)
ROOT
HETATM    1  C   UNL     1      63.470   9.622   5.033  1.00  0.00     0.251 A 
HETATM    2  C   UNL     1      62.753   9.178   3.795  1.00  0.00     0.006 A 
HETATM    3  N   UNL     1      64.478   8.796   5.476  1.00  0.00    -0.333 N 
HETATM    4  C   UNL     1      63.142   8.031   3.205  1.00  0.00     0.013 A 
HETATM    5  C   UNL     1      64.847   7.631   4.857  1.00  0.00     0.091 A 
HETATM    6  O   UNL     1      63.184  10.657   5.625  1.00  0.00    -0.268 OA
HETATM    7  C   UNL     1      64.216   7.232   3.747  1.00  0.00     0.018 A 
HETATM    8  C   UNL     1      61.635  10.020   3.274  1.00  0.00     0.054 C 
HETATM    9  H   UNL     1      64.966   9.060   6.289  1.00  0.00     0.168 HD
ENDROOT
TORSDOF 0
ENDMDL
