MODEL 1
REMARK VINA RESULT:      -5.4      0.000      0.000
REMARK  2 active torsions:
REMARK  status: ('A' for Active; 'I' for Inactive)
REMARK    1  A    between atoms: S_1  and  C_2 
REMARK    2  A    between atoms: S_1  and  N_8 
ROOT
HETATM    1  C   UNL     1      62.949   9.248   4.330  1.00  0.00     0.113 A 
HETATM    2  C   UNL     1      62.637  10.525   4.785  1.00  0.00     0.142 A 
HETATM    3  C   UNL     1      62.695   8.885   3.002  1.00  0.00     0.031 A 
HETATM    4  C   UNL     1      62.053  11.453   3.929  1.00  0.00     0.086 A 
HETATM    5  C   UNL     1      61.788  11.085   2.616  1.00  0.00     0.119 A 
HETATM    6  F   UNL     1      62.853  10.879   6.059  1.00  0.00    -0.204 F 
HETATM    7  C   UNL     1      62.108   9.815   2.143  1.00  0.00     0.044 A 
HETATM    8  F   UNL     1      61.203  11.964   1.792  1.00  0.00    -0.206 F 
ENDROOT
BRANCH   1   9
HETATM    9  S   UNL     1      63.622   8.078   5.460  1.00  0.00     0.242 S 
HETATM   10  O   UNL     1      63.878   6.847   4.749  1.00  0.00    -0.206 OA
HETATM   11  O   UNL     1      62.835   8.126   6.670  1.00  0.00    -0.206 OA
BRANCH   9  12
HETATM   12  N   UNL     1      65.087   8.777   5.835  1.00  0.00    -0.225 NA
HETATM   13  H   UNL     1      65.567   9.042   4.975  1.00  0.00     0.136 HD
HETATM   14  H   UNL     1      65.660   8.111   6.352  1.00  0.00     0.136 HD
ENDBRANCH   9  12
ENDBRANCH   1   9
TORSDOF 2
ENDMDL
MODEL 2
REMARK VINA RESULT:      -5.1      1.853      2.378
REMARK  2 active torsions:
REMARK  status: ('A' for Active; 'I' for Inactive)
REMARK    1  A    between atoms: S_1  and  C_2 
REMARK    2  A    between atoms: S_1  and  N_8 
ROOT
HETATM    1  C   UNL     1      62.517   9.124   3.726  1.00  0.00     0.113 A 
HETATM    2  C   UNL     1      62.363   9.044   2.346  1.00  0.00     0.142 A 
HETATM    3  C   UNL     1      62.294  10.332   4.397  1.00  0.00     0.031 A 
HETATM    4  C   UNL     1      62.001  10.168   1.612  1.00  0.00     0.086 A 
HETATM    5  C   UNL     1      61.795  11.370   2.278  1.00  0.00     0.119 A 
HETATM    6  F   UNL     1      62.596   7.900   1.688  1.00  0.00    -0.204 F 
HETATM    7  C   UNL     1      61.931  11.462   3.661  1.00  0.00     0.044 A 
HETATM    8  F   UNL     1      61.471  12.464   1.577  1.00  0.00    -0.206 F 
ENDROOT
BRANCH   1   9
HETATM    9  S   UNL     1      63.045   7.698   4.613  1.00  0.00     0.242 S 
HETATM   10  O   UNL     1      64.420   7.425   4.267  1.00  0.00    -0.206 OA
HETATM   11  O   UNL     1      62.005   6.700   4.511  1.00  0.00    -0.206 OA
BRANCH   9  12
HETATM   12  N   UNL     1      63.004   8.246   6.186  1.00  0.00    -0.225 NA
HETATM   13  H   UNL     1      62.378   9.048   6.250  1.00  0.00     0.136 HD
HETATM   14  H   UNL     1      63.942   8.523   6.475  1.00  0.00     0.136 HD
ENDBRANCH   9  12
ENDBRANCH   1   9
TORSDOF 2
ENDMDL
MODEL 3
REMARK VINA RESULT:      -5.0      1.437      2.005
REMARK  2 active torsions:
REMARK  status: ('A' for Active; 'I' for Inactive)
REMARK    1  A    between atoms: S_1  and  C_2 
REMARK    2  A    between atoms: S_1  and  N_8 
ROOT
HETATM    1  C   UNL     1      63.213   9.077   4.590  1.00  0.00     0.113 A 
HETATM    2  C   UNL     1      62.846   8.780   3.281  1.00  0.00     0.142 A 
HETATM    3  C   UNL     1      62.913  10.326   5.146  1.00  0.00     0.031 A 
HETATM    4  C   UNL     1      62.189   9.727   2.503  1.00  0.00     0.086 A 
HETATM    5  C   UNL     1      61.906  10.972   3.052  1.00  0.00     0.119 A 
HETATM    6  F   UNL     1      63.147   7.598   2.729  1.00  0.00    -0.204 F 
HETATM    7  C   UNL     1      62.255  11.278   4.366  1.00  0.00     0.044 A 
HETATM    8  F   UNL     1      61.296  11.899   2.302  1.00  0.00    -0.206 F 
ENDROOT
BRANCH   1   9
HETATM    9  S   UNL     1      64.106   7.879   5.521  1.00  0.00     0.242 S 
HETATM   10  O   UNL     1      64.536   6.830   4.628  1.00  0.00    -0.206 OA
HETATM   11  O   UNL     1      63.363   7.613   6.731  1.00  0.00    -0.206 OA
BRANCH   9  12
HETATM   12  N   UNL     1      65.448   8.749   5.987  1.00  0.00    -0.225 NA
HETATM   13  H   UNL     1      66.073   8.863   5.189  1.00  0.00     0.136 HD
HETATM   14  H   UNL     1      65.936   8.251   6.732  1.00  0.00     0.136 HD
ENDBRANCH   9  12
ENDBRANCH   1   9
TORSDOF 2
ENDMDL
MODEL 4
REMARK VINA RESULT:      -4.7      2.203      2.826
REMARK  2 active torsions:
REMARK  status: ('A' for Active; 'I' for Inactive)
REMARK    1  A    between atoms: S_1  and  C_2 
REMARK    2  A    between atoms: S_1  and  N_8 
ROOT
HETATM    1  C   UNL     1      62.823   9.572   4.059  1.00  0.00     0.113 A 
HETATM    2  C   UNL     1      63.070   8.366   3.409  1.00  0.00     0.142 A 
HETATM    3  C   UNL     1      62.114  10.592   3.417  1.00  0.00     0.031 A 
HETATM    4  C   UNL     1      62.628   8.167   2.106  1.00  0.00     0.086 A 
HETATM    5  C   UNL     1      61.937   9.188   1.465  1.00  0.00     0.119 A 
HETATM    6  F   UNL     1      63.768   7.389   4.003  1.00  0.00    -0.204 F 
HETATM    7  C   UNL     1      61.670  10.394   2.108  1.00  0.00     0.044 A 
HETATM    8  F   UNL     1      61.529   9.014   0.202  1.00  0.00    -0.206 F 
ENDROOT
BRANCH   1   9
HETATM    9  S   UNL     1      63.460   9.815   5.683  1.00  0.00     0.242 S 
HETATM   10  O   UNL     1      62.959  11.070   6.189  1.00  0.00    -0.206 OA
HETATM   11  O   UNL     1      64.867   9.491   5.661  1.00  0.00    -0.206 OA
BRANCH   9  12
HETATM   12  N   UNL     1      62.717   8.582   6.522  1.00  0.00    -0.225 NA
HETATM   13  H   UNL     1      62.167   8.974   7.286  1.00  0.00     0.136 HD
HETATM   14  H   UNL     1      63.425   7.953   6.901  1.00  0.00     0.136 HD
ENDBRANCH   9  12
ENDBRANCH   1   9
TORSDOF 2
ENDMDL
MODEL 5
REMARK VINA RESULT:      -4.5      2.915      3.896
REMARK  2 active torsions:
REMARK  status: ('A' for Active; 'I' for Inactive)
REMARK    1  A    between atoms: S_1  and  C_2 
REMARK    2  A    between atoms: S_1  and  N_8 
ROOT
HETATM    1  C   UNL     1      62.363   9.263   2.910  1.00  0.00     0.113 A 
HETATM    2  C   UNL     1      61.927  10.584   2.964  1.00  0.00     0.142 A 
HETATM    3  C   UNL     1      62.998   8.679   4.011  1.00  0.00     0.031 A 
HETATM    4  C   UNL     1      62.133  11.345   4.109  1.00  0.00     0.086 A 
HETATM    5  C   UNL     1      62.778  10.768   5.196  1.00  0.00     0.119 A 
HETATM    6  F   UNL     1      61.339  11.163   1.909  1.00  0.00    -0.204 F 
HETATM    7  C   UNL     1      63.206   9.443   5.161  1.00  0.00     0.044 A 
HETATM    8  F   UNL     1      63.002  11.501   6.294  1.00  0.00    -0.206 F 
ENDROOT
BRANCH   1   9
HETATM    9  S   UNL     1      62.149   8.353   1.418  1.00  0.00     0.242 S 
HETATM   10  O   UNL     1      62.671   7.021   1.614  1.00  0.00    -0.206 OA
HETATM   11  O   UNL     1      62.562   9.195   0.320  1.00  0.00    -0.206 OA
BRANCH   9  12
HETATM   12  N   UNL     1      60.488   8.251   1.322  1.00  0.00    -0.225 NA
HETATM   13  H   UNL     1      60.135   9.013   0.744  1.00  0.00     0.136 HD
HETATM   14  H   UNL     1      60.088   8.320   2.258  1.00  0.00     0.136 HD
ENDBRANCH   9  12
ENDBRANCH   1   9
TORSDOF 2
ENDMDL
MODEL 6
REMARK VINA RESULT:      -4.5      2.926      3.233
REMARK  2 active torsions:
REMARK  status: ('A' for Active; 'I' for Inactive)
REMARK    1  A    between atoms: S_1  and  C_2 
REMARK    2  A    between atoms: S_1  and  N_8 
ROOT
HETATM    1  C   UNL     1      62.238   8.829   2.528  1.00  0.00     0.113 A 
HETATM    2  C   UNL     1      62.447   9.027   3.890  1.00  0.00     0.142 A 
HETATM    3  C   UNL     1      61.928   9.908   1.693  1.00  0.00     0.031 A 
HETATM    4  C   UNL     1      62.333  10.298   4.441  1.00  0.00     0.086 A 
HETATM    5  C   UNL     1      62.009  11.366   3.612  1.00  0.00     0.119 A 
HETATM    6  F   UNL     1      62.722   7.999   4.705  1.00  0.00    -0.204 F 
HETATM    7  C   UNL     1      61.812  11.185   2.246  1.00  0.00     0.044 A 
HETATM    8  F   UNL     1      61.874  12.590   4.139  1.00  0.00    -0.206 F 
ENDROOT
BRANCH   1   9
HETATM    9  S   UNL     1      62.320   7.195   1.878  1.00  0.00     0.242 S 
HETATM   10  O   UNL     1      61.138   6.477   2.290  1.00  0.00    -0.206 OA
HETATM   11  O   UNL     1      63.655   6.692   2.108  1.00  0.00    -0.206 OA
BRANCH   9  12
HETATM   12  N   UNL     1      62.211   7.480   0.240  1.00  0.00    -0.225 NA
HETATM   13  H   UNL     1      61.296   7.181  -0.097  1.00  0.00     0.136 HD
HETATM   14  H   UNL     1      62.940   6.957  -0.246  1.00  0.00     0.136 HD
ENDBRANCH   9  12
ENDBRANCH   1   9
TORSDOF 2
ENDMDL
MODEL 7
REMARK VINA RESULT:      -4.3     12.984     13.916
REMARK  2 active torsions:
REMARK  status: ('A' for Active; 'I' for Inactive)
REMARK    1  A    between atoms: S_1  and  C_2 
REMARK    2  A    between atoms: S_1  and  N_8 
ROOT
HETATM    1  C   UNL     1      56.774   1.916  13.165  1.00  0.00     0.113 A 
HETATM    2  C   UNL     1      57.201   0.862  13.966  1.00  0.00     0.142 A 
HETATM    3  C   UNL     1      57.662   2.542  12.283  1.00  0.00     0.031 A 
HETATM    4  C   UNL     1      58.521   0.428  13.913  1.00  0.00     0.086 A 
HETATM    5  C   UNL     1      59.405   1.062  13.048  1.00  0.00     0.119 A 
HETATM    6  F   UNL     1      56.368   0.269  14.832  1.00  0.00    -0.204 F 
HETATM    7  C   UNL     1      58.987   2.108  12.229  1.00  0.00     0.044 A 
HETATM    8  F   UNL     1      60.683   0.666  13.008  1.00  0.00    -0.206 F 
ENDROOT
BRANCH   1   9
HETATM    9  S   UNL     1      55.114   2.485  13.311  1.00  0.00     0.242 S 
HETATM   10  O   UNL     1      54.233   1.342  13.283  1.00  0.00    -0.206 OA
HETATM   11  O   UNL     1      54.952   3.614  12.425  1.00  0.00    -0.206 OA
BRANCH   9  12
HETATM   12  N   UNL     1      55.108   3.108  14.856  1.00  0.00    -0.225 NA
HETATM   13  H   UNL     1      55.753   2.575  15.440  1.00  0.00     0.136 HD
HETATM   14  H   UNL     1      54.168   3.047  15.245  1.00  0.00     0.136 HD
ENDBRANCH   9  12
ENDBRANCH   1   9
TORSDOF 2
ENDMDL
MODEL 8
REMARK VINA RESULT:      -4.2      2.622      3.156
REMARK  2 active torsions:
REMARK  status: ('A' for Active; 'I' for Inactive)
REMARK    1  A    between atoms: S_1  and  C_2 
REMARK    2  A    between atoms: S_1  and  N_8 
ROOT
HETATM    1  C   UNL     1      64.040   7.733   5.440  1.00  0.00     0.113 A 
HETATM    2  C   UNL     1      63.069   6.780   5.149  1.00  0.00     0.142 A 
HETATM    3  C   UNL     1      63.900   9.050   4.987  1.00  0.00     0.031 A 
HETATM    4  C   UNL     1      61.955   7.120   4.390  1.00  0.00     0.086 A 
HETATM    5  C   UNL     1      61.826   8.424   3.928  1.00  0.00     0.119 A 
HETATM    6  F   UNL     1      63.202   5.510   5.556  1.00  0.00    -0.204 F 
HETATM    7  C   UNL     1      62.783   9.392   4.224  1.00  0.00     0.044 A 
HETATM    8  F   UNL     1      60.769   8.754   3.176  1.00  0.00    -0.206 F 
ENDROOT
BRANCH   1   9
HETATM    9  S   UNL     1      65.472   7.249   6.342  1.00  0.00     0.242 S 
HETATM   10  O   UNL     1      66.242   6.338   5.529  1.00  0.00    -0.206 OA
HETATM   11  O   UNL     1      65.061   6.929   7.690  1.00  0.00    -0.206 OA
BRANCH   9  12
HETATM   12  N   UNL     1      66.306   8.688   6.445  1.00  0.00    -0.225 NA
HETATM   13  H   UNL     1      66.810   8.851   5.574  1.00  0.00     0.136 HD
HETATM   14  H   UNL     1      66.970   8.642   7.218  1.00  0.00     0.136 HD
ENDBRANCH   9  12
ENDBRANCH   1   9
TORSDOF 2
ENDMDL
MODEL 9
REMARK VINA RESULT:      -4.0      5.323      6.810
REMARK  2 active torsions:
REMARK  status: ('A' for Active; 'I' for Inactive)
REMARK    1  A    between atoms: S_1  and  C_2 
REMARK    2  A    between atoms: S_1  and  N_8 
ROOT
HETATM    1  C   UNL     1      65.569   6.709   6.741  1.00  0.00     0.113 A 
HETATM    2  C   UNL     1      65.232   5.360   6.798  1.00  0.00     0.142 A 
HETATM    3  C   UNL     1      66.639   7.206   7.493  1.00  0.00     0.031 A 
HETATM    4  C   UNL     1      65.945   4.492   7.617  1.00  0.00     0.086 A 
HETATM    5  C   UNL     1      66.998   4.991   8.375  1.00  0.00     0.119 A 
HETATM    6  F   UNL     1      64.195   4.875   6.102  1.00  0.00    -0.204 F 
HETATM    7  C   UNL     1      67.355   6.336   8.316  1.00  0.00     0.044 A 
HETATM    8  F   UNL     1      67.674   4.166   9.185  1.00  0.00    -0.206 F 
ENDROOT
BRANCH   1   9
HETATM    9  S   UNL     1      64.599   7.792   5.749  1.00  0.00     0.242 S 
HETATM   10  O   UNL     1      64.355   7.154   4.476  1.00  0.00    -0.206 OA
HETATM   11  O   UNL     1      65.161   9.118   5.858  1.00  0.00    -0.206 OA
BRANCH   9  12
HETATM   12  N   UNL     1      63.164   7.829   6.596  1.00  0.00    -0.225 NA
HETATM   13  H   UNL     1      62.616   6.999   6.371  1.00  0.00     0.136 HD
HETATM   14  H   UNL     1      62.638   8.663   6.338  1.00  0.00     0.136 HD
ENDBRANCH   9  12
ENDBRANCH   1   9
TORSDOF 2
ENDMDL
