MODEL 1
REMARK VINA RESULT:      -5.8      0.000      0.000
REMARK  2 active torsions:
REMARK  status: ('A' for Active; 'I' for Inactive)
REMARK    1  A    between atoms: S_1  and  C_2 
REMARK    2  A    between atoms: S_1  and  N_6 
ROOT
HETATM    1  C   UNL     1      62.346   9.667   3.672  1.00  0.00     0.130 A 
HETATM    2  N   UNL     1      61.580  11.346   2.359  1.00  0.00    -0.264 N 
ATOM      3  HN  UNL     1      61.204  11.870   1.568  1.00  0.00     0.194 HD
HETATM    4  C   UNL     1      62.398  10.839   4.387  1.00  0.00     0.097 A 
HETATM    5  C   UNL     1      61.815  10.028   2.416  1.00  0.00     0.054 A 
HETATM    6  O   UNL     1      61.954  11.850   3.590  1.00  0.00    -0.241 OA
HETATM    7  C   UNL     1      62.814  11.238   5.744  1.00  0.00     0.081 C 
HETATM    8  C   UNL     1      61.512   9.175   1.244  1.00  0.00     0.072 C 
ENDROOT
BRANCH   1   9
HETATM    9  S   UNL     1      62.831   8.099   4.134  1.00  0.00     0.248 S 
HETATM   10  O   UNL     1      63.694   7.630   3.072  1.00  0.00    -0.206 OA
HETATM   11  O   UNL     1      61.585   7.431   4.440  1.00  0.00    -0.206 OA
BRANCH   9  12
HETATM   12  N   UNL     1      63.754   8.185   5.566  1.00  0.00    -0.206 NA
HETATM   13  C   UNL     1      65.212   8.408   5.405  1.00  0.00     0.107 C 
HETATM   14  C   UNL     1      65.818   7.018   5.450  1.00  0.00     0.017 C 
HETATM   15  C   UNL     1      64.960   6.283   6.463  1.00  0.00     0.017 C 
HETATM   16  C   UNL     1      63.607   6.990   6.451  1.00  0.00     0.107 C 
ENDBRANCH   9  12
ENDBRANCH   1   9
TORSDOF 2
ENDMDL
MODEL 2
REMARK VINA RESULT:      -5.2      1.873      3.056
REMARK  2 active torsions:
REMARK  status: ('A' for Active; 'I' for Inactive)
REMARK    1  A    between atoms: S_1  and  C_2 
REMARK    2  A    between atoms: S_1  and  N_6 
ROOT
HETATM    1  C   UNL     1      63.135   8.918   4.211  1.00  0.00     0.130 A 
HETATM    2  N   UNL     1      61.740  10.424   3.253  1.00  0.00    -0.264 N 
ATOM      3  HN  UNL     1      61.179  11.258   3.079  1.00  0.00     0.194 HD
HETATM    4  C   UNL     1      62.707   8.413   3.008  1.00  0.00     0.097 A 
HETATM    5  C   UNL     1      62.518  10.184   4.316  1.00  0.00     0.054 A 
HETATM    6  O   UNL     1      61.855   9.312   2.441  1.00  0.00    -0.241 OA
HETATM    7  C   UNL     1      62.933   7.179   2.232  1.00  0.00     0.081 C 
HETATM    8  C   UNL     1      62.629  11.195   5.393  1.00  0.00     0.072 C 
ENDROOT
BRANCH   1   9
HETATM    9  S   UNL     1      64.157   8.210   5.377  1.00  0.00     0.248 S 
HETATM   10  O   UNL     1      63.294   7.833   6.475  1.00  0.00    -0.206 OA
HETATM   11  O   UNL     1      65.209   9.188   5.549  1.00  0.00    -0.206 OA
BRANCH   9  12
HETATM   12  N   UNL     1      64.853   6.789   4.738  1.00  0.00    -0.206 NA
HETATM   13  C   UNL     1      64.945   5.625   5.655  1.00  0.00     0.107 C 
HETATM   14  C   UNL     1      66.348   5.700   6.227  1.00  0.00     0.017 C 
HETATM   15  C   UNL     1      67.183   6.210   5.067  1.00  0.00     0.017 C 
HETATM   16  C   UNL     1      66.222   6.988   4.173  1.00  0.00     0.107 C 
ENDBRANCH   9  12
ENDBRANCH   1   9
TORSDOF 2
ENDMDL
MODEL 3
REMARK VINA RESULT:      -5.1      1.939      2.373
REMARK  2 active torsions:
REMARK  status: ('A' for Active; 'I' for Inactive)
REMARK    1  A    between atoms: S_1  and  C_2 
REMARK    2  A    between atoms: S_1  and  N_6 
ROOT
HETATM    1  C   UNL     1      62.439   9.671   3.886  1.00  0.00     0.130 A 
HETATM    2  N   UNL     1      61.590  11.226   2.475  1.00  0.00    -0.264 N 
ATOM      3  HN  UNL     1      61.186  11.681   1.656  1.00  0.00     0.194 HD
HETATM    4  C   UNL     1      62.440  10.887   4.525  1.00  0.00     0.097 A 
HETATM    5  C   UNL     1      61.886   9.927   2.613  1.00  0.00     0.054 A 
HETATM    6  O   UNL     1      61.946  11.824   3.669  1.00  0.00    -0.241 OA
HETATM    7  C   UNL     1      62.843  11.391   5.851  1.00  0.00     0.081 C 
HETATM    8  C   UNL     1      61.617   8.988   1.500  1.00  0.00     0.072 C 
ENDROOT
BRANCH   1   9
HETATM    9  S   UNL     1      62.999   8.160   4.442  1.00  0.00     0.248 S 
HETATM   10  O   UNL     1      63.533   8.404   5.763  1.00  0.00    -0.206 OA
HETATM   11  O   UNL     1      63.844   7.691   3.365  1.00  0.00    -0.206 OA
BRANCH   9  12
HETATM   12  N   UNL     1      61.684   7.084   4.592  1.00  0.00    -0.206 NA
HETATM   13  C   UNL     1      61.464   6.488   5.933  1.00  0.00     0.107 C 
HETATM   14  C   UNL     1      62.171   5.147   5.875  1.00  0.00     0.017 C 
HETATM   15  C   UNL     1      61.938   4.678   4.451  1.00  0.00     0.017 C 
HETATM   16  C   UNL     1      61.723   5.944   3.627  1.00  0.00     0.107 C 
ENDBRANCH   9  12
ENDBRANCH   1   9
TORSDOF 2
ENDMDL
MODEL 4
REMARK VINA RESULT:      -5.1      2.127      2.658
REMARK  2 active torsions:
REMARK  status: ('A' for Active; 'I' for Inactive)
REMARK    1  A    between atoms: S_1  and  C_2 
REMARK    2  A    between atoms: S_1  and  N_6 
ROOT
HETATM    1  C   UNL     1      63.468   8.793   4.527  1.00  0.00     0.130 A 
HETATM    2  N   UNL     1      62.276   9.123   2.629  1.00  0.00    -0.264 N 
ATOM      3  HN  UNL     1      61.850   8.992   1.711  1.00  0.00     0.194 HD
HETATM    4  C   UNL     1      62.864  10.024   4.599  1.00  0.00     0.097 A 
HETATM    5  C   UNL     1      63.060   8.258   3.285  1.00  0.00     0.054 A 
HETATM    6  O   UNL     1      62.162  10.229   3.450  1.00  0.00    -0.241 OA
HETATM    7  C   UNL     1      62.812  11.126   5.578  1.00  0.00     0.081 C 
HETATM    8  C   UNL     1      63.382   6.947   2.676  1.00  0.00     0.072 C 
ENDROOT
BRANCH   1   9
HETATM    9  S   UNL     1      64.513   8.036   5.640  1.00  0.00     0.248 S 
HETATM   10  O   UNL     1      63.660   7.524   6.690  1.00  0.00    -0.206 OA
HETATM   11  O   UNL     1      65.514   9.045   5.911  1.00  0.00    -0.206 OA
BRANCH   9  12
HETATM   12  N   UNL     1      65.284   6.711   4.891  1.00  0.00    -0.206 NA
HETATM   13  C   UNL     1      65.372   5.459   5.683  1.00  0.00     0.107 C 
HETATM   14  C   UNL     1      66.744   5.512   6.328  1.00  0.00     0.017 C 
HETATM   15  C   UNL     1      67.615   6.166   5.271  1.00  0.00     0.017 C 
HETATM   16  C   UNL     1      66.671   7.008   4.418  1.00  0.00     0.107 C 
ENDBRANCH   9  12
ENDBRANCH   1   9
TORSDOF 2
ENDMDL
MODEL 5
REMARK VINA RESULT:      -4.9      0.790      2.175
REMARK  2 active torsions:
REMARK  status: ('A' for Active; 'I' for Inactive)
REMARK    1  A    between atoms: S_1  and  C_2 
REMARK    2  A    between atoms: S_1  and  N_6 
ROOT
HETATM    1  C   UNL     1      62.402   9.274   3.082  1.00  0.00     0.130 A 
HETATM    2  N   UNL     1      61.795  11.447   2.877  1.00  0.00    -0.264 N 
ATOM      3  HN  UNL     1      61.597  12.426   3.083  1.00  0.00     0.194 HD
HETATM    4  C   UNL     1      62.021   9.500   1.783  1.00  0.00     0.097 A 
HETATM    5  C   UNL     1      62.259  10.522   3.727  1.00  0.00     0.054 A 
HETATM    6  O   UNL     1      61.640  10.802   1.665  1.00  0.00    -0.241 OA
HETATM    7  C   UNL     1      61.921   8.697   0.549  1.00  0.00     0.081 C 
HETATM    8  C   UNL     1      62.545  10.890   5.133  1.00  0.00     0.072 C 
ENDROOT
BRANCH   1   9
HETATM    9  S   UNL     1      62.911   7.825   3.821  1.00  0.00     0.248 S 
HETATM   10  O   UNL     1      63.840   7.219   2.893  1.00  0.00    -0.206 OA
HETATM   11  O   UNL     1      61.672   7.169   4.180  1.00  0.00    -0.206 OA
BRANCH   9  12
HETATM   12  N   UNL     1      63.757   8.183   5.259  1.00  0.00    -0.206 NA
HETATM   13  C   UNL     1      65.236   8.261   5.157  1.00  0.00     0.107 C 
HETATM   14  C   UNL     1      65.719   6.883   5.567  1.00  0.00     0.017 C 
HETATM   15  C   UNL     1      64.748   6.470   6.657  1.00  0.00     0.017 C 
HETATM   16  C   UNL     1      63.463   7.244   6.383  1.00  0.00     0.107 C 
ENDBRANCH   9  12
ENDBRANCH   1   9
TORSDOF 2
ENDMDL
MODEL 6
REMARK VINA RESULT:      -4.8      3.414      6.098
REMARK  2 active torsions:
REMARK  status: ('A' for Active; 'I' for Inactive)
REMARK    1  A    between atoms: S_1  and  C_2 
REMARK    2  A    between atoms: S_1  and  N_6 
ROOT
HETATM    1  C   UNL     1      66.904   6.547   6.567  1.00  0.00     0.130 A 
HETATM    2  N   UNL     1      67.601   4.396   6.432  1.00  0.00    -0.264 N 
ATOM      3  HN  UNL     1      67.887   3.486   6.070  1.00  0.00     0.194 HD
HETATM    4  C   UNL     1      67.098   6.070   7.840  1.00  0.00     0.097 A 
HETATM    5  C   UNL     1      67.245   5.472   5.718  1.00  0.00     0.054 A 
HETATM    6  O   UNL     1      67.500   4.772   7.758  1.00  0.00    -0.241 OA
HETATM    7  C   UNL     1      66.966   6.607   9.208  1.00  0.00     0.081 C 
HETATM    8  C   UNL     1      67.250   5.410   4.238  1.00  0.00     0.072 C 
ENDROOT
BRANCH   1   9
HETATM    9  S   UNL     1      66.345   8.076   6.061  1.00  0.00     0.248 S 
HETATM   10  O   UNL     1      66.830   8.240   4.708  1.00  0.00    -0.206 OA
HETATM   11  O   UNL     1      66.768   8.964   7.123  1.00  0.00    -0.206 OA
BRANCH   9  12
HETATM   12  N   UNL     1      64.640   8.076   6.017  1.00  0.00    -0.206 NA
HETATM   13  C   UNL     1      63.980   6.756   5.860  1.00  0.00     0.107 C 
HETATM   14  C   UNL     1      63.723   6.632   4.371  1.00  0.00     0.017 C 
HETATM   15  C   UNL     1      63.384   8.049   3.944  1.00  0.00     0.017 C 
HETATM   16  C   UNL     1      64.063   8.962   4.961  1.00  0.00     0.107 C 
ENDBRANCH   9  12
ENDBRANCH   1   9
TORSDOF 2
ENDMDL
MODEL 7
REMARK VINA RESULT:      -4.8      3.484      6.487
REMARK  2 active torsions:
REMARK  status: ('A' for Active; 'I' for Inactive)
REMARK    1  A    between atoms: S_1  and  C_2 
REMARK    2  A    between atoms: S_1  and  N_6 
ROOT
HETATM    1  C   UNL     1      66.918   6.430   6.555  1.00  0.00     0.130 A 
HETATM    2  N   UNL     1      67.567   4.666   7.820  1.00  0.00    -0.264 N 
ATOM      3  HN  UNL     1      67.797   4.070   8.615  1.00  0.00     0.194 HD
HETATM    4  C   UNL     1      67.247   5.391   5.720  1.00  0.00     0.097 A 
HETATM    5  C   UNL     1      67.118   5.927   7.859  1.00  0.00     0.054 A 
HETATM    6  O   UNL     1      67.653   4.337   6.480  1.00  0.00    -0.241 OA
HETATM    7  C   UNL     1      67.274   5.167   4.262  1.00  0.00     0.081 C 
HETATM    8  C   UNL     1      66.903   6.592   9.165  1.00  0.00     0.072 C 
ENDROOT
BRANCH   1   9
HETATM    9  S   UNL     1      66.407   8.009   6.166  1.00  0.00     0.248 S 
HETATM   10  O   UNL     1      66.920   8.268   4.838  1.00  0.00    -0.206 OA
HETATM   11  O   UNL     1      66.833   8.797   7.302  1.00  0.00    -0.206 OA
BRANCH   9  12
HETATM   12  N   UNL     1      64.703   8.056   6.094  1.00  0.00    -0.206 NA
HETATM   13  C   UNL     1      64.008   6.753   5.953  1.00  0.00     0.107 C 
HETATM   14  C   UNL     1      63.770   6.607   4.462  1.00  0.00     0.017 C 
HETATM   15  C   UNL     1      63.479   8.024   4.003  1.00  0.00     0.017 C 
HETATM   16  C   UNL     1      64.169   8.937   5.012  1.00  0.00     0.107 C 
ENDBRANCH   9  12
ENDBRANCH   1   9
TORSDOF 2
ENDMDL
MODEL 8
REMARK VINA RESULT:      -4.7      2.825      4.256
REMARK  2 active torsions:
REMARK  status: ('A' for Active; 'I' for Inactive)
REMARK    1  A    between atoms: S_1  and  C_2 
REMARK    2  A    between atoms: S_1  and  N_6 
ROOT
HETATM    1  C   UNL     1      65.073   7.349   4.282  1.00  0.00     0.130 A 
HETATM    2  N   UNL     1      63.582   6.694   2.707  1.00  0.00    -0.264 N 
ATOM      3  HN  UNL     1      62.749   6.629   2.122  1.00  0.00     0.194 HD
HETATM    4  C   UNL     1      65.610   6.296   3.584  1.00  0.00     0.097 A 
HETATM    5  C   UNL     1      63.811   7.574   3.690  1.00  0.00     0.054 A 
HETATM    6  O   UNL     1      64.706   5.891   2.649  1.00  0.00    -0.241 OA
HETATM    7  C   UNL     1      66.871   5.531   3.618  1.00  0.00     0.081 C 
HETATM    8  C   UNL     1      62.791   8.598   4.014  1.00  0.00     0.072 C 
ENDROOT
BRANCH   1   9
HETATM    9  S   UNL     1      65.721   8.213   5.600  1.00  0.00     0.248 S 
HETATM   10  O   UNL     1      64.943   9.429   5.690  1.00  0.00    -0.206 OA
HETATM   11  O   UNL     1      67.141   8.249   5.321  1.00  0.00    -0.206 OA
BRANCH   9  12
HETATM   12  N   UNL     1      65.485   7.325   7.037  1.00  0.00    -0.206 NA
HETATM   13  C   UNL     1      66.708   6.919   7.775  1.00  0.00     0.107 C 
HETATM   14  C   UNL     1      66.989   5.507   7.299  1.00  0.00     0.017 C 
HETATM   15  C   UNL     1      65.608   4.906   7.117  1.00  0.00     0.017 C 
HETATM   16  C   UNL     1      64.674   6.084   6.854  1.00  0.00     0.107 C 
ENDBRANCH   9  12
ENDBRANCH   1   9
TORSDOF 2
ENDMDL
MODEL 9
REMARK VINA RESULT:      -4.6      2.973      5.615
REMARK  2 active torsions:
REMARK  status: ('A' for Active; 'I' for Inactive)
REMARK    1  A    between atoms: S_1  and  C_2 
REMARK    2  A    between atoms: S_1  and  N_6 
ROOT
HETATM    1  C   UNL     1      66.083   6.581   6.218  1.00  0.00     0.130 A 
HETATM    2  N   UNL     1      67.776   5.140   5.781  1.00  0.00    -0.264 N 
ATOM      3  HN  UNL     1      68.456   4.556   5.294  1.00  0.00     0.194 HD
HETATM    4  C   UNL     1      66.614   6.157   7.411  1.00  0.00     0.097 A 
HETATM    5  C   UNL     1      66.849   5.933   5.225  1.00  0.00     0.054 A 
HETATM    6  O   UNL     1      67.620   5.277   7.147  1.00  0.00    -0.241 OA
HETATM    7  C   UNL     1      66.353   6.409   8.841  1.00  0.00     0.081 C 
HETATM    8  C   UNL     1      66.748   6.026   3.751  1.00  0.00     0.072 C 
ENDROOT
BRANCH   1   9
HETATM    9  S   UNL     1      64.771   7.631   5.934  1.00  0.00     0.248 S 
HETATM   10  O   UNL     1      65.352   8.944   5.759  1.00  0.00    -0.206 OA
HETATM   11  O   UNL     1      63.865   7.350   7.027  1.00  0.00    -0.206 OA
BRANCH   9  12
HETATM   12  N   UNL     1      63.997   7.197   4.477  1.00  0.00    -0.206 NA
HETATM   13  C   UNL     1      63.471   8.309   3.647  1.00  0.00     0.107 C 
HETATM   14  C   UNL     1      62.012   8.424   4.042  1.00  0.00     0.017 C 
HETATM   15  C   UNL     1      61.589   6.986   4.286  1.00  0.00     0.017 C 
HETATM   16  C   UNL     1      62.866   6.237   4.657  1.00  0.00     0.107 C 
ENDBRANCH   9  12
ENDBRANCH   1   9
TORSDOF 2
ENDMDL
