MODEL 1
REMARK VINA RESULT:      -6.1      0.000      0.000
REMARK  2 active torsions:
REMARK  status: ('A' for Active; 'I' for Inactive)
REMARK    1  A    between atoms: C_1  and  C_2 
REMARK    2  A    between atoms: C_1  and  C_5 
ROOT
HETATM    1  C   UNL     1      63.598   7.651   5.854  1.00  0.00     0.163 C 
HETATM    2  O   UNL     1      63.008   7.484   6.911  1.00  0.00    -0.292 OA
ENDROOT
BRANCH   1   3
HETATM    3  C   UNL     1      63.093   8.740   4.945  1.00  0.00     0.010 A 
HETATM    4  C   UNL     1      62.787   8.422   3.601  1.00  0.00     0.017 A 
HETATM    5  C   UNL     1      62.311   9.396   2.721  1.00  0.00     0.025 A 
HETATM    6  C   UNL     1      62.139  10.709   3.155  1.00  0.00     0.034 A 
HETATM    7  C   UNL     1      62.443  11.049   4.474  1.00  0.00     0.025 A 
HETATM    8 CL   UNL     1      61.545  11.932   2.045  1.00  0.00    -0.084 Cl
HETATM    9  C   UNL     1      62.914  10.079   5.365  1.00  0.00     0.017 A 
ENDBRANCH   1   3
BRANCH   1  10
HETATM   10  C   UNL     1      64.812   6.765   5.541  1.00  0.00     0.064 C 
HETATM   11  C   UNL     1      65.197   5.826   6.704  1.00  0.00     0.040 C 
HETATM   12  C   UNL     1      65.816   6.597   7.879  1.00  0.00     0.233 C 
HETATM   13  N   UNL     1      67.000   7.345   7.426  1.00  0.00    -0.075 N 
HETATM   14  C   UNL     1      66.664   8.315   6.372  1.00  0.00     0.233 C 
HETATM   15  H   UNL     1      67.687   6.685   7.062  1.00  0.00     0.277 HD
HETATM   16  H   UNL     1      67.373   7.860   8.224  1.00  0.00     0.277 HD
HETATM   17  C   UNL     1      66.054   7.594   5.156  1.00  0.00     0.040 C 
ENDBRANCH   1  10
TORSDOF 2
ENDMDL
MODEL 2
REMARK VINA RESULT:      -5.3      1.492      2.485
REMARK  2 active torsions:
REMARK  status: ('A' for Active; 'I' for Inactive)
REMARK    1  A    between atoms: C_1  and  C_2 
REMARK    2  A    between atoms: C_1  and  C_5 
ROOT
HETATM    1  C   UNL     1      64.668   7.722   6.018  1.00  0.00     0.163 C 
HETATM    2  O   UNL     1      64.046   7.232   6.949  1.00  0.00    -0.292 OA
ENDROOT
BRANCH   1   3
HETATM    3  C   UNL     1      63.898   8.034   4.761  1.00  0.00     0.010 A 
HETATM    4  C   UNL     1      63.187   9.254   4.681  1.00  0.00     0.017 A 
HETATM    5  C   UNL     1      62.463   9.592   3.536  1.00  0.00     0.025 A 
HETATM    6  C   UNL     1      62.422   8.719   2.450  1.00  0.00     0.034 A 
HETATM    7  C   UNL     1      63.109   7.506   2.509  1.00  0.00     0.025 A 
HETATM    8 CL   UNL     1      61.507   9.145   1.014  1.00  0.00    -0.084 Cl
HETATM    9  C   UNL     1      63.843   7.163   3.649  1.00  0.00     0.017 A 
ENDBRANCH   1   3
BRANCH   1  10
HETATM   10  C   UNL     1      66.165   8.004   6.200  1.00  0.00     0.064 C 
HETATM   11  C   UNL     1      67.010   7.634   4.963  1.00  0.00     0.040 C 
HETATM   12  C   UNL     1      67.119   6.113   4.781  1.00  0.00     0.233 C 
HETATM   13  N   UNL     1      67.700   5.499   5.986  1.00  0.00    -0.075 N 
HETATM   14  C   UNL     1      66.880   5.756   7.180  1.00  0.00     0.233 C 
HETATM   15  H   UNL     1      68.632   5.884   6.136  1.00  0.00     0.277 HD
HETATM   16  H   UNL     1      67.738   4.490   5.840  1.00  0.00     0.277 HD
HETATM   17  C   UNL     1      66.751   7.271   7.424  1.00  0.00     0.040 C 
ENDBRANCH   1  10
TORSDOF 2
ENDMDL
MODEL 3
REMARK VINA RESULT:      -5.2      1.318      2.395
REMARK  2 active torsions:
REMARK  status: ('A' for Active; 'I' for Inactive)
REMARK    1  A    between atoms: C_1  and  C_2 
REMARK    2  A    between atoms: C_1  and  C_5 
ROOT
HETATM    1  C   UNL     1      63.503   7.922   5.906  1.00  0.00     0.163 C 
HETATM    2  O   UNL     1      62.737   7.589   6.800  1.00  0.00    -0.292 OA
ENDROOT
BRANCH   1   3
HETATM    3  C   UNL     1      62.992   8.911   4.891  1.00  0.00     0.010 A 
HETATM    4  C   UNL     1      62.814  10.259   5.281  1.00  0.00     0.017 A 
HETATM    5  C   UNL     1      62.349  11.215   4.375  1.00  0.00     0.025 A 
HETATM    6  C   UNL     1      62.040  10.848   3.066  1.00  0.00     0.034 A 
HETATM    7  C   UNL     1      62.199   9.522   2.661  1.00  0.00     0.025 A 
HETATM    8 CL   UNL     1      61.451  12.051   1.932  1.00  0.00    -0.084 Cl
HETATM    9  C   UNL     1      62.672   8.559   3.560  1.00  0.00     0.017 A 
ENDBRANCH   1   3
BRANCH   1  10
HETATM   10  C   UNL     1      64.920   7.335   5.896  1.00  0.00     0.064 C 
HETATM   11  C   UNL     1      65.316   6.721   4.536  1.00  0.00     0.040 C 
HETATM   12  C   UNL     1      64.561   5.412   4.260  1.00  0.00     0.233 C 
HETATM   13  N   UNL     1      64.814   4.444   5.339  1.00  0.00    -0.075 N 
HETATM   14  C   UNL     1      64.375   4.955   6.647  1.00  0.00     0.233 C 
HETATM   15  H   UNL     1      65.815   4.250   5.380  1.00  0.00     0.277 HD
HETATM   16  H   UNL     1      64.284   3.597   5.136  1.00  0.00     0.277 HD
HETATM   17  C   UNL     1      65.115   6.262   6.987  1.00  0.00     0.040 C 
ENDBRANCH   1  10
TORSDOF 2
ENDMDL
MODEL 4
REMARK VINA RESULT:      -4.9      1.453      2.175
REMARK  2 active torsions:
REMARK  status: ('A' for Active; 'I' for Inactive)
REMARK    1  A    between atoms: C_1  and  C_2 
REMARK    2  A    between atoms: C_1  and  C_5 
ROOT
HETATM    1  C   UNL     1      64.135   6.844   5.800  1.00  0.00     0.163 C 
HETATM    2  O   UNL     1      63.576   7.156   6.841  1.00  0.00    -0.292 OA
ENDROOT
BRANCH   1   3
HETATM    3  C   UNL     1      63.521   7.332   4.514  1.00  0.00     0.010 A 
HETATM    4  C   UNL     1      63.306   8.719   4.342  1.00  0.00     0.017 A 
HETATM    5  C   UNL     1      62.745   9.221   3.165  1.00  0.00     0.025 A 
HETATM    6  C   UNL     1      62.375   8.353   2.140  1.00  0.00     0.034 A 
HETATM    7  C   UNL     1      62.569   6.979   2.290  1.00  0.00     0.025 A 
HETATM    8 CL   UNL     1      61.666   8.986   0.664  1.00  0.00    -0.084 Cl
HETATM    9  C   UNL     1      63.137   6.468   3.462  1.00  0.00     0.017 A 
ENDBRANCH   1   3
BRANCH   1  10
HETATM   10  C   UNL     1      65.420   6.010   5.875  1.00  0.00     0.064 C 
HETATM   11  C   UNL     1      66.150   6.137   7.229  1.00  0.00     0.040 C 
HETATM   12  C   UNL     1      66.804   7.516   7.398  1.00  0.00     0.233 C 
HETATM   13  N   UNL     1      67.746   7.768   6.295  1.00  0.00    -0.075 N 
HETATM   14  C   UNL     1      67.075   7.740   4.986  1.00  0.00     0.233 C 
HETATM   15  H   UNL     1      68.471   7.052   6.311  1.00  0.00     0.277 HD
HETATM   16  H   UNL     1      68.145   8.698   6.426  1.00  0.00     0.277 HD
HETATM   17  C   UNL     1      66.415   6.369   4.753  1.00  0.00     0.040 C 
ENDBRANCH   1  10
TORSDOF 2
ENDMDL
MODEL 5
REMARK VINA RESULT:      -4.8      2.068      2.792
REMARK  2 active torsions:
REMARK  status: ('A' for Active; 'I' for Inactive)
REMARK    1  A    between atoms: C_1  and  C_2 
REMARK    2  A    between atoms: C_1  and  C_5 
ROOT
HETATM    1  C   UNL     1      63.537   8.663   4.770  1.00  0.00     0.163 C 
HETATM    2  O   UNL     1      63.234   9.288   5.777  1.00  0.00    -0.292 OA
ENDROOT
BRANCH   1   3
HETATM    3  C   UNL     1      62.482   8.515   3.706  1.00  0.00     0.010 A 
HETATM    4  C   UNL     1      61.370   7.678   3.958  1.00  0.00     0.017 A 
HETATM    5  C   UNL     1      60.362   7.513   3.005  1.00  0.00     0.025 A 
HETATM    6  C   UNL     1      60.445   8.167   1.777  1.00  0.00     0.034 A 
HETATM    7  C   UNL     1      61.537   8.992   1.502  1.00  0.00     0.025 A 
HETATM    8 CL   UNL     1      59.179   7.953   0.580  1.00  0.00    -0.084 Cl
HETATM    9  C   UNL     1      62.547   9.169   2.453  1.00  0.00     0.017 A 
ENDBRANCH   1   3
BRANCH   1  10
HETATM   10  C   UNL     1      64.960   8.102   4.653  1.00  0.00     0.064 C 
HETATM   11  C   UNL     1      65.026   6.764   3.888  1.00  0.00     0.040 C 
HETATM   12  C   UNL     1      64.429   5.609   4.705  1.00  0.00     0.233 C 
HETATM   13  N   UNL     1      65.129   5.484   5.993  1.00  0.00    -0.075 N 
HETATM   14  C   UNL     1      65.021   6.713   6.796  1.00  0.00     0.233 C 
HETATM   15  H   UNL     1      66.114   5.291   5.816  1.00  0.00     0.277 HD
HETATM   16  H   UNL     1      64.695   4.725   6.518  1.00  0.00     0.277 HD
HETATM   17  C   UNL     1      65.624   7.906   6.031  1.00  0.00     0.040 C 
ENDBRANCH   1  10
TORSDOF 2
ENDMDL
MODEL 6
REMARK VINA RESULT:      -4.7      1.818      2.311
REMARK  2 active torsions:
REMARK  status: ('A' for Active; 'I' for Inactive)
REMARK    1  A    between atoms: C_1  and  C_2 
REMARK    2  A    between atoms: C_1  and  C_5 
ROOT
HETATM    1  C   UNL     1      65.100   7.920   5.568  1.00  0.00     0.163 C 
HETATM    2  O   UNL     1      66.113   8.604   5.555  1.00  0.00    -0.292 OA
ENDROOT
BRANCH   1   3
HETATM    3  C   UNL     1      64.083   8.171   4.486  1.00  0.00     0.010 A 
HETATM    4  C   UNL     1      63.996   7.261   3.407  1.00  0.00     0.017 A 
HETATM    5  C   UNL     1      63.065   7.446   2.382  1.00  0.00     0.025 A 
HETATM    6  C   UNL     1      62.210   8.546   2.402  1.00  0.00     0.034 A 
HETATM    7  C   UNL     1      62.284   9.463   3.452  1.00  0.00     0.025 A 
HETATM    8 CL   UNL     1      61.045   8.779   1.110  1.00  0.00    -0.084 Cl
HETATM    9  C   UNL     1      63.208   9.281   4.487  1.00  0.00     0.017 A 
ENDBRANCH   1   3
BRANCH   1  10
HETATM   10  C   UNL     1      64.949   6.851   6.658  1.00  0.00     0.064 C 
HETATM   11  C   UNL     1      66.143   6.802   7.634  1.00  0.00     0.040 C 
HETATM   12  C   UNL     1      67.401   6.224   6.968  1.00  0.00     0.233 C 
HETATM   13  N   UNL     1      67.124   4.876   6.448  1.00  0.00    -0.075 N 
HETATM   14  C   UNL     1      66.044   4.886   5.448  1.00  0.00     0.233 C 
HETATM   15  H   UNL     1      66.850   4.273   7.223  1.00  0.00     0.277 HD
HETATM   16  H   UNL     1      67.970   4.531   5.995  1.00  0.00     0.277 HD
HETATM   17  C   UNL     1      64.748   5.441   6.067  1.00  0.00     0.040 C 
ENDBRANCH   1  10
TORSDOF 2
ENDMDL
MODEL 7
REMARK VINA RESULT:      -4.6      3.659      5.705
REMARK  2 active torsions:
REMARK  status: ('A' for Active; 'I' for Inactive)
REMARK    1  A    between atoms: C_1  and  C_2 
REMARK    2  A    between atoms: C_1  and  C_5 
ROOT
HETATM    1  C   UNL     1      62.985   7.318   2.997  1.00  0.00     0.163 C 
HETATM    2  O   UNL     1      63.542   6.970   1.965  1.00  0.00    -0.292 OA
ENDROOT
BRANCH   1   3
HETATM    3  C   UNL     1      63.759   7.176   4.281  1.00  0.00     0.010 A 
HETATM    4  C   UNL     1      63.396   6.154   5.188  1.00  0.00     0.017 A 
HETATM    5  C   UNL     1      64.086   5.978   6.389  1.00  0.00     0.025 A 
HETATM    6  C   UNL     1      65.145   6.823   6.719  1.00  0.00     0.034 A 
HETATM    7  C   UNL     1      65.516   7.844   5.844  1.00  0.00     0.025 A 
HETATM    8 CL   UNL     1      66.007   6.602   8.232  1.00  0.00    -0.084 Cl
HETATM    9  C   UNL     1      64.835   8.023   4.635  1.00  0.00     0.017 A 
ENDBRANCH   1   3
BRANCH   1  10
HETATM   10  C   UNL     1      61.564   7.890   2.908  1.00  0.00     0.064 C 
HETATM   11  C   UNL     1      61.233   8.488   1.525  1.00  0.00     0.040 C 
HETATM   12  C   UNL     1      61.987   9.803   1.277  1.00  0.00     0.233 C 
HETATM   13  N   UNL     1      61.669  10.777   2.334  1.00  0.00    -0.075 N 
HETATM   14  C   UNL     1      62.046  10.280   3.667  1.00  0.00     0.233 C 
HETATM   15  H   UNL     1      60.666  10.961   2.321  1.00  0.00     0.277 HD
HETATM   16  H   UNL     1      62.201  11.628   2.151  1.00  0.00     0.277 HD
HETATM   17  C   UNL     1      61.303   8.969   3.979  1.00  0.00     0.040 C 
ENDBRANCH   1  10
TORSDOF 2
ENDMDL
MODEL 8
REMARK VINA RESULT:      -4.5      3.867      5.911
REMARK  2 active torsions:
REMARK  status: ('A' for Active; 'I' for Inactive)
REMARK    1  A    between atoms: C_1  and  C_2 
REMARK    2  A    between atoms: C_1  and  C_5 
ROOT
HETATM    1  C   UNL     1      63.376   7.519   2.903  1.00  0.00     0.163 C 
HETATM    2  O   UNL     1      63.546   6.689   2.022  1.00  0.00    -0.292 OA
ENDROOT
BRANCH   1   3
HETATM    3  C   UNL     1      63.997   7.239   4.246  1.00  0.00     0.010 A 
HETATM    4  C   UNL     1      65.066   8.053   4.687  1.00  0.00     0.017 A 
HETATM    5  C   UNL     1      65.673   7.838   5.927  1.00  0.00     0.025 A 
HETATM    6  C   UNL     1      65.236   6.801   6.749  1.00  0.00     0.034 A 
HETATM    7  C   UNL     1      64.188   5.979   6.332  1.00  0.00     0.025 A 
HETATM    8 CL   UNL     1      66.003   6.530   8.305  1.00  0.00    -0.084 Cl
HETATM    9  C   UNL     1      63.570   6.192   5.095  1.00  0.00     0.017 A 
ENDBRANCH   1   3
BRANCH   1  10
HETATM   10  C   UNL     1      62.570   8.783   2.576  1.00  0.00     0.064 C 
HETATM   11  C   UNL     1      61.449   9.073   3.596  1.00  0.00     0.040 C 
HETATM   12  C   UNL     1      60.293   8.069   3.474  1.00  0.00     0.233 C 
HETATM   13  N   UNL     1      59.746   8.092   2.108  1.00  0.00    -0.075 N 
HETATM   14  C   UNL     1      60.763   7.739   1.105  1.00  0.00     0.233 C 
HETATM   15  H   UNL     1      59.396   9.028   1.908  1.00  0.00     0.277 HD
HETATM   16  H   UNL     1      58.997   7.401   2.055  1.00  0.00     0.277 HD
HETATM   17  C   UNL     1      61.942   8.727   1.169  1.00  0.00     0.040 C 
ENDBRANCH   1  10
TORSDOF 2
ENDMDL
MODEL 9
REMARK VINA RESULT:      -4.1      3.911      5.913
REMARK  2 active torsions:
REMARK  status: ('A' for Active; 'I' for Inactive)
REMARK    1  A    between atoms: C_1  and  C_2 
REMARK    2  A    between atoms: C_1  and  C_5 
ROOT
HETATM    1  C   UNL     1      62.376   6.623   3.114  1.00  0.00     0.163 C 
HETATM    2  O   UNL     1      61.516   6.248   3.898  1.00  0.00    -0.292 OA
ENDROOT
BRANCH   1   3
HETATM    3  C   UNL     1      63.725   6.975   3.685  1.00  0.00     0.010 A 
HETATM    4  C   UNL     1      64.845   6.191   3.323  1.00  0.00     0.017 A 
HETATM    5  C   UNL     1      66.118   6.480   3.821  1.00  0.00     0.025 A 
HETATM    6  C   UNL     1      66.301   7.548   4.698  1.00  0.00     0.034 A 
HETATM    7  C   UNL     1      65.209   8.330   5.077  1.00  0.00     0.025 A 
HETATM    8 CL   UNL     1      67.901   7.905   5.325  1.00  0.00    -0.084 Cl
HETATM    9  C   UNL     1      63.932   8.052   4.577  1.00  0.00     0.017 A 
ENDBRANCH   1   3
BRANCH   1  10
HETATM   10  C   UNL     1      62.033   6.686   1.620  1.00  0.00     0.064 C 
HETATM   11  C   UNL     1      62.353   8.052   0.978  1.00  0.00     0.040 C 
HETATM   12  C   UNL     1      61.380   9.145   1.446  1.00  0.00     0.233 C 
HETATM   13  N   UNL     1      59.995   8.757   1.135  1.00  0.00    -0.075 N 
HETATM   14  C   UNL     1      59.618   7.498   1.796  1.00  0.00     0.233 C 
HETATM   15  H   UNL     1      59.904   8.641   0.126  1.00  0.00     0.277 HD
HETATM   16  H   UNL     1      59.376   9.492   1.477  1.00  0.00     0.277 HD
HETATM   17  C   UNL     1      60.550   6.358   1.348  1.00  0.00     0.040 C 
ENDBRANCH   1  10
TORSDOF 2
ENDMDL
