MODEL 1
REMARK VINA RESULT:      -3.9      0.000      0.000
REMARK  3 active torsions:
REMARK  status: ('A' for Active; 'I' for Inactive)
REMARK    1  A    between atoms: C_1  and  S_4 
REMARK    2  A    between atoms: C_2  and  O_5 
REMARK    3  A    between atoms: C_3  and  O_6 
ROOT
HETATM    1  C   UNL     1      62.808   8.683   3.658  1.00  0.00     0.067 A 
HETATM    2  C   UNL     1      62.585   9.857   4.412  1.00  0.00     0.087 A 
HETATM    3  C   UNL     1      62.463   8.723   2.282  1.00  0.00     0.087 A 
HETATM    4  C   UNL     1      61.779  11.050   2.456  1.00  0.00     0.006 A 
HETATM    5  C   UNL     1      62.086  11.025   3.816  1.00  0.00     0.038 A 
HETATM    6  C   UNL     1      61.971   9.899   1.699  1.00  0.00     0.038 A 
ENDROOT
BRANCH   1   7
HETATM    7  S   UNL     1      63.811   7.335   4.318  1.00  0.00    -0.129 SA
HETATM    8  C   UNL     1      62.656   6.495   5.440  1.00  0.00     0.096 C 
ENDBRANCH   1   7
BRANCH   2   9
HETATM    9  O   UNL     1      63.018  10.045   5.706  1.00  0.00    -0.354 OA
HETATM   10  C   UNL     1      63.132  11.409   6.084  1.00  0.00     0.210 C 
ENDBRANCH   2   9
BRANCH   3  11
HETATM   11  O   UNL     1      62.737   7.744   1.356  1.00  0.00    -0.354 OA
HETATM   12  C   UNL     1      61.878   7.716   0.222  1.00  0.00     0.210 C 
ENDBRANCH   3  11
TORSDOF 3
ENDMDL
MODEL 2
REMARK VINA RESULT:      -3.9      1.765      3.725
REMARK  3 active torsions:
REMARK  status: ('A' for Active; 'I' for Inactive)
REMARK    1  A    between atoms: C_1  and  S_4 
REMARK    2  A    between atoms: C_2  and  O_5 
REMARK    3  A    between atoms: C_3  and  O_6 
ROOT
HETATM    1  C   UNL     1      62.849   8.405   3.866  1.00  0.00     0.067 A 
HETATM    2  C   UNL     1      62.071   9.257   3.051  1.00  0.00     0.087 A 
HETATM    3  C   UNL     1      63.440   8.977   5.022  1.00  0.00     0.087 A 
HETATM    4  C   UNL     1      62.426  11.136   4.550  1.00  0.00     0.006 A 
HETATM    5  C   UNL     1      61.856  10.601   3.395  1.00  0.00     0.038 A 
HETATM    6  C   UNL     1      63.213  10.319   5.355  1.00  0.00     0.038 A 
ENDROOT
BRANCH   1   7
HETATM    7  S   UNL     1      62.793   6.613   3.651  1.00  0.00    -0.129 SA
HETATM    8  C   UNL     1      64.362   6.267   2.804  1.00  0.00     0.096 C 
ENDBRANCH   1   7
BRANCH   2   9
HETATM    9  O   UNL     1      61.293   8.831   1.998  1.00  0.00    -0.354 OA
HETATM   10  C   UNL     1      61.944   8.894   0.737  1.00  0.00     0.210 C 
ENDBRANCH   2   9
BRANCH   3  11
HETATM   11  O   UNL     1      64.104   8.288   6.010  1.00  0.00    -0.354 OA
HETATM   12  C   UNL     1      65.510   8.160   5.828  1.00  0.00     0.210 C 
ENDBRANCH   3  11
TORSDOF 3
ENDMDL
MODEL 3
REMARK VINA RESULT:      -3.8      3.069      3.802
REMARK  3 active torsions:
REMARK  status: ('A' for Active; 'I' for Inactive)
REMARK    1  A    between atoms: C_1  and  S_4 
REMARK    2  A    between atoms: C_2  and  O_5 
REMARK    3  A    between atoms: C_3  and  O_6 
ROOT
HETATM    1  C   UNL     1      65.233   7.749   5.341  1.00  0.00     0.067 A 
HETATM    2  C   UNL     1      64.296   8.770   5.065  1.00  0.00     0.087 A 
HETATM    3  C   UNL     1      65.215   6.609   4.496  1.00  0.00     0.087 A 
HETATM    4  C   UNL     1      63.434   7.562   3.142  1.00  0.00     0.006 A 
HETATM    5  C   UNL     1      63.416   8.679   3.976  1.00  0.00     0.038 A 
HETATM    6  C   UNL     1      64.334   6.535   3.409  1.00  0.00     0.038 A 
ENDROOT
BRANCH   1   7
HETATM    7  S   UNL     1      66.613   8.038   6.469  1.00  0.00    -0.129 SA
HETATM    8  C   UNL     1      66.289   6.849   7.803  1.00  0.00     0.096 C 
ENDBRANCH   1   7
BRANCH   2   9
HETATM    9  O   UNL     1      64.290  10.006   5.672  1.00  0.00    -0.354 OA
HETATM   10  C   UNL     1      63.083  10.732   5.492  1.00  0.00     0.210 C 
ENDBRANCH   2   9
BRANCH   3  11
HETATM   11  O   UNL     1      66.134   5.586   4.508  1.00  0.00    -0.354 OA
HETATM   12  C   UNL     1      66.833   5.376   3.286  1.00  0.00     0.210 C 
ENDBRANCH   3  11
TORSDOF 3
ENDMDL
MODEL 4
REMARK VINA RESULT:      -3.8      1.800      2.152
REMARK  3 active torsions:
REMARK  status: ('A' for Active; 'I' for Inactive)
REMARK    1  A    between atoms: C_1  and  S_4 
REMARK    2  A    between atoms: C_2  and  O_5 
REMARK    3  A    between atoms: C_3  and  O_6 
ROOT
HETATM    1  C   UNL     1      62.353   8.106   4.235  1.00  0.00     0.067 A 
HETATM    2  C   UNL     1      63.105   8.754   5.241  1.00  0.00     0.087 A 
HETATM    3  C   UNL     1      61.610   8.931   3.352  1.00  0.00     0.087 A 
HETATM    4  C   UNL     1      62.431  10.945   4.439  1.00  0.00     0.006 A 
HETATM    5  C   UNL     1      63.149  10.153   5.335  1.00  0.00     0.038 A 
HETATM    6  C   UNL     1      61.667  10.328   3.454  1.00  0.00     0.038 A 
ENDROOT
BRANCH   1   7
HETATM    7  S   UNL     1      62.614   6.359   3.864  1.00  0.00    -0.129 SA
HETATM    8  C   UNL     1      63.956   6.409   2.642  1.00  0.00     0.096 C 
ENDBRANCH   1   7
BRANCH   2   9
HETATM    9  O   UNL     1      64.009   8.122   6.065  1.00  0.00    -0.354 OA
HETATM   10  C   UNL     1      65.360   8.242   5.641  1.00  0.00     0.210 C 
ENDBRANCH   2   9
BRANCH   3  11
HETATM   11  O   UNL     1      60.940   8.507   2.228  1.00  0.00    -0.354 OA
HETATM   12  C   UNL     1      61.541   8.858   0.987  1.00  0.00     0.210 C 
ENDBRANCH   3  11
TORSDOF 3
ENDMDL
MODEL 5
REMARK VINA RESULT:      -3.6      5.552      7.864
REMARK  3 active torsions:
REMARK  status: ('A' for Active; 'I' for Inactive)
REMARK    1  A    between atoms: C_1  and  S_4 
REMARK    2  A    between atoms: C_2  and  O_5 
REMARK    3  A    between atoms: C_3  and  O_6 
ROOT
HETATM    1  C   UNL     1      65.959   4.844   7.555  1.00  0.00     0.067 A 
HETATM    2  C   UNL     1      66.021   6.252   7.657  1.00  0.00     0.087 A 
HETATM    3  C   UNL     1      66.945   4.101   8.254  1.00  0.00     0.087 A 
HETATM    4  C   UNL     1      67.932   6.133   9.153  1.00  0.00     0.006 A 
HETATM    5  C   UNL     1      66.989   6.885   8.452  1.00  0.00     0.038 A 
HETATM    6  C   UNL     1      67.902   4.746   9.048  1.00  0.00     0.038 A 
ENDROOT
BRANCH   1   7
HETATM    7  S   UNL     1      64.498   4.028   6.877  1.00  0.00    -0.129 SA
HETATM    8  C   UNL     1      64.824   4.053   5.090  1.00  0.00     0.096 C 
ENDBRANCH   1   7
BRANCH   2   9
HETATM    9  O   UNL     1      65.051   7.110   7.189  1.00  0.00    -0.354 OA
HETATM   10  C   UNL     1      65.357   7.696   5.931  1.00  0.00     0.210 C 
ENDBRANCH   2   9
BRANCH   3  11
HETATM   11  O   UNL     1      66.968   2.733   8.398  1.00  0.00    -0.354 OA
HETATM   12  C   UNL     1      67.924   2.231   9.325  1.00  0.00     0.210 C 
ENDBRANCH   3  11
TORSDOF 3
ENDMDL
MODEL 6
REMARK VINA RESULT:      -3.5      5.709      8.082
REMARK  3 active torsions:
REMARK  status: ('A' for Active; 'I' for Inactive)
REMARK    1  A    between atoms: C_1  and  S_4 
REMARK    2  A    between atoms: C_2  and  O_5 
REMARK    3  A    between atoms: C_3  and  O_6 
ROOT
HETATM    1  C   UNL     1      66.402   4.968   7.241  1.00  0.00     0.067 A 
HETATM    2  C   UNL     1      67.312   4.143   7.940  1.00  0.00     0.087 A 
HETATM    3  C   UNL     1      66.261   6.304   7.695  1.00  0.00     0.087 A 
HETATM    4  C   UNL     1      67.939   5.963   9.421  1.00  0.00     0.006 A 
HETATM    5  C   UNL     1      68.075   4.637   9.009  1.00  0.00     0.038 A 
HETATM    6  C   UNL     1      67.033   6.787   8.760  1.00  0.00     0.038 A 
ENDROOT
BRANCH   1   7
HETATM    7  S   UNL     1      65.734   4.462   5.642  1.00  0.00    -0.129 SA
HETATM    8  C   UNL     1      67.021   5.012   4.483  1.00  0.00     0.096 C 
ENDBRANCH   1   7
BRANCH   2   9
HETATM    9  O   UNL     1      67.695   2.885   7.531  1.00  0.00    -0.354 OA
HETATM   10  C   UNL     1      67.557   1.885   8.531  1.00  0.00     0.210 C 
ENDBRANCH   2   9
BRANCH   3  11
HETATM   11  O   UNL     1      65.545   7.296   7.065  1.00  0.00    -0.354 OA
HETATM   12  C   UNL     1      66.314   8.210   6.292  1.00  0.00     0.210 C 
ENDBRANCH   3  11
TORSDOF 3
ENDMDL
MODEL 7
REMARK VINA RESULT:      -3.5      2.586      3.388
REMARK  3 active torsions:
REMARK  status: ('A' for Active; 'I' for Inactive)
REMARK    1  A    between atoms: C_1  and  S_4 
REMARK    2  A    between atoms: C_2  and  O_5 
REMARK    3  A    between atoms: C_3  and  O_6 
ROOT
HETATM    1  C   UNL     1      61.896   6.942   5.497  1.00  0.00     0.067 A 
HETATM    2  C   UNL     1      63.032   7.672   5.914  1.00  0.00     0.087 A 
HETATM    3  C   UNL     1      61.318   7.300   4.252  1.00  0.00     0.087 A 
HETATM    4  C   UNL     1      63.020   8.995   3.876  1.00  0.00     0.006 A 
HETATM    5  C   UNL     1      63.589   8.678   5.110  1.00  0.00     0.038 A 
HETATM    6  C   UNL     1      61.888   8.303   3.457  1.00  0.00     0.038 A 
ENDROOT
BRANCH   1   7
HETATM    7  S   UNL     1      61.430   5.405   6.322  1.00  0.00    -0.129 SA
HETATM    8  C   UNL     1      60.066   5.933   7.400  1.00  0.00     0.096 C 
ENDBRANCH   1   7
BRANCH   2   9
HETATM    9  O   UNL     1      63.811   7.346   7.001  1.00  0.00    -0.354 OA
HETATM   10  C   UNL     1      65.063   6.768   6.661  1.00  0.00     0.210 C 
ENDBRANCH   2   9
BRANCH   3  11
HETATM   11  O   UNL     1      60.309   6.620   3.609  1.00  0.00    -0.354 OA
HETATM   12  C   UNL     1      58.999   7.139   3.807  1.00  0.00     0.210 C 
ENDBRANCH   3  11
TORSDOF 3
ENDMDL
MODEL 8
REMARK VINA RESULT:      -3.5     11.384     13.911
REMARK  3 active torsions:
REMARK  status: ('A' for Active; 'I' for Inactive)
REMARK    1  A    between atoms: C_1  and  S_4 
REMARK    2  A    between atoms: C_2  and  O_5 
REMARK    3  A    between atoms: C_3  and  O_6 
ROOT
HETATM    1  C   UNL     1      56.505   1.761  12.831  1.00  0.00     0.067 A 
HETATM    2  C   UNL     1      57.608   2.379  12.200  1.00  0.00     0.087 A 
HETATM    3  C   UNL     1      56.788   0.824  13.858  1.00  0.00     0.087 A 
HETATM    4  C   UNL     1      59.180   1.206  13.634  1.00  0.00     0.006 A 
HETATM    5  C   UNL     1      58.925   2.110  12.603  1.00  0.00     0.038 A 
HETATM    6  C   UNL     1      58.108   0.569  14.254  1.00  0.00     0.038 A 
ENDROOT
BRANCH   1   7
HETATM    7  S   UNL     1      54.831   2.395  12.599  1.00  0.00    -0.129 SA
HETATM    8  C   UNL     1      54.690   3.634  13.920  1.00  0.00     0.096 C 
ENDBRANCH   1   7
BRANCH   2   9
HETATM    9  O   UNL     1      57.510   3.427  11.313  1.00  0.00    -0.354 OA
HETATM   10  C   UNL     1      58.403   3.337  10.212  1.00  0.00     0.210 C 
ENDBRANCH   2   9
BRANCH   3  11
HETATM   11  O   UNL     1      55.862   0.232  14.684  1.00  0.00    -0.354 OA
HETATM   12  C   UNL     1      55.441  -1.072  14.297  1.00  0.00     0.210 C 
ENDBRANCH   3  11
TORSDOF 3
ENDMDL
MODEL 9
REMARK VINA RESULT:      -3.4      1.741      1.770
REMARK  3 active torsions:
REMARK  status: ('A' for Active; 'I' for Inactive)
REMARK    1  A    between atoms: C_1  and  S_4 
REMARK    2  A    between atoms: C_2  and  O_5 
REMARK    3  A    between atoms: C_3  and  O_6 
ROOT
HETATM    1  C   UNL     1      61.477   8.030   3.598  1.00  0.00     0.067 A 
HETATM    2  C   UNL     1      61.995   9.282   3.998  1.00  0.00     0.087 A 
HETATM    3  C   UNL     1      61.092   7.894   2.239  1.00  0.00     0.087 A 
HETATM    4  C   UNL     1      61.803  10.166   1.743  1.00  0.00     0.006 A 
HETATM    5  C   UNL     1      62.163  10.331   3.081  1.00  0.00     0.038 A 
HETATM    6  C   UNL     1      61.271   8.947   1.332  1.00  0.00     0.038 A 
ENDROOT
BRANCH   1   7
HETATM    7  S   UNL     1      61.636   6.580   4.661  1.00  0.00    -0.129 SA
HETATM    8  C   UNL     1      59.906   6.139   4.992  1.00  0.00     0.096 C 
ENDBRANCH   1   7
BRANCH   2   9
HETATM    9  O   UNL     1      62.570   9.531   5.224  1.00  0.00    -0.354 OA
HETATM   10  C   UNL     1      62.894  10.897   5.443  1.00  0.00     0.210 C 
ENDBRANCH   2   9
BRANCH   3  11
HETATM   11  O   UNL     1      60.708   6.724   1.626  1.00  0.00    -0.354 OA
HETATM   12  C   UNL     1      59.373   6.701   1.133  1.00  0.00     0.210 C 
ENDBRANCH   3  11
TORSDOF 3
ENDMDL
