MODEL 1
REMARK VINA RESULT:      -4.7      0.000      0.000
REMARK  1 active torsions:
REMARK  status: ('A' for Active; 'I' for Inactive)
REMARK    1  A    between atoms: N_3  and  O_4 
ROOT
HETATM    1  C   UNL     1      62.218  10.469   4.342  1.00  0.00     0.097 C 
HETATM    2  N   UNL     1      61.352  10.593   3.268  1.00  0.00    -0.378 N 
HETATM    3  N   UNL     1      62.610  11.537   4.977  1.00  0.00    -0.257 N 
HETATM    4  C   UNL     1      62.669   9.053   4.677  1.00  0.00     0.078 C 
HETATM    5  C   UNL     1      61.974  10.578   1.950  1.00  0.00     0.121 C 
HETATM    6  C   UNL     1      62.054   9.160   1.381  1.00  0.00     0.020 C 
HETATM    7  C   UNL     1      63.387   8.405   3.487  1.00  0.00     0.007 C 
HETATM    8  C   UNL     1      62.435   8.030   2.348  1.00  0.00     0.002 C 
HETATM    9  H   UNL     1      60.379  10.685   3.388  1.00  0.00     0.160 HD
HETATM   10  H   UNL     1      62.333  12.449   4.734  1.00  0.00     0.195 HD
ENDROOT
BRANCH   3  11
HETATM   11  O   UNL     1      63.470  11.245   6.040  1.00  0.00    -0.288 OA
HETATM   12  H   UNL     1      64.023  11.915   6.391  1.00  0.00     0.244 HD
ENDBRANCH   3  11
TORSDOF 1
ENDMDL
MODEL 2
REMARK VINA RESULT:      -4.1      1.473      2.109
REMARK  1 active torsions:
REMARK  status: ('A' for Active; 'I' for Inactive)
REMARK    1  A    between atoms: N_3  and  O_4 
ROOT
HETATM    1  C   UNL     1      62.041   9.910   3.856  1.00  0.00     0.097 C 
HETATM    2  N   UNL     1      61.690   8.756   3.175  1.00  0.00    -0.378 N 
HETATM    3  N   UNL     1      61.685  11.069   3.379  1.00  0.00    -0.257 N 
HETATM    4  C   UNL     1      62.860   9.715   5.125  1.00  0.00     0.078 C 
HETATM    5  C   UNL     1      62.721   8.193   2.312  1.00  0.00     0.121 C 
HETATM    6  C   UNL     1      63.585   7.174   3.058  1.00  0.00     0.020 C 
HETATM    7  C   UNL     1      64.179   8.992   4.826  1.00  0.00     0.007 C 
HETATM    8  C   UNL     1      63.986   7.508   4.502  1.00  0.00     0.002 C 
HETATM    9  H   UNL     1      60.801   8.342   3.269  1.00  0.00     0.160 HD
HETATM   10  H   UNL     1      61.178  11.184   2.544  1.00  0.00     0.195 HD
ENDROOT
BRANCH   3  11
HETATM   11  O   UNL     1      62.102  12.133   4.184  1.00  0.00    -0.288 OA
HETATM   12  H   UNL     1      62.615  11.967   4.950  1.00  0.00     0.244 HD
ENDBRANCH   3  11
TORSDOF 1
ENDMDL
MODEL 3
REMARK VINA RESULT:      -3.9      2.230      2.961
REMARK  1 active torsions:
REMARK  status: ('A' for Active; 'I' for Inactive)
REMARK    1  A    between atoms: N_3  and  O_4 
ROOT
HETATM    1  C   UNL     1      61.957   9.949   2.605  1.00  0.00     0.097 C 
HETATM    2  N   UNL     1      61.842   8.973   3.581  1.00  0.00    -0.378 N 
HETATM    3  N   UNL     1      61.760  11.198   2.920  1.00  0.00    -0.257 N 
HETATM    4  C   UNL     1      62.287   9.456   1.201  1.00  0.00     0.078 C 
HETATM    5  C   UNL     1      60.564   8.272   3.626  1.00  0.00     0.121 C 
HETATM    6  C   UNL     1      60.578   7.019   2.748  1.00  0.00     0.020 C 
HETATM    7  C   UNL     1      61.218   8.483   0.691  1.00  0.00     0.007 C 
HETATM    8  C   UNL     1      61.274   7.118   1.383  1.00  0.00     0.002 C 
HETATM    9  H   UNL     1      62.576   8.765   4.203  1.00  0.00     0.160 HD
HETATM   10  H   UNL     1      61.521  11.501   3.824  1.00  0.00     0.195 HD
ENDROOT
BRANCH   3  11
HETATM   11  O   UNL     1      61.925  12.059   1.832  1.00  0.00    -0.288 OA
HETATM   12  H   UNL     1      62.697  12.006   1.305  1.00  0.00     0.244 HD
ENDBRANCH   3  11
TORSDOF 1
ENDMDL
MODEL 4
REMARK VINA RESULT:      -3.9      1.755      2.787
REMARK  1 active torsions:
REMARK  status: ('A' for Active; 'I' for Inactive)
REMARK    1  A    between atoms: N_3  and  O_4 
ROOT
HETATM    1  C   UNL     1      62.910  10.094   4.792  1.00  0.00     0.097 C 
HETATM    2  N   UNL     1      63.609   9.042   5.360  1.00  0.00    -0.378 N 
HETATM    3  N   UNL     1      62.817  11.224   5.435  1.00  0.00    -0.257 N 
HETATM    4  C   UNL     1      62.269   9.819   3.438  1.00  0.00     0.078 C 
HETATM    5  C   UNL     1      62.799   8.044   6.049  1.00  0.00     0.121 C 
HETATM    6  C   UNL     1      62.381   6.912   5.109  1.00  0.00     0.020 C 
HETATM    7  C   UNL     1      61.273   8.656   3.523  1.00  0.00     0.007 C 
HETATM    8  C   UNL     1      61.957   7.295   3.684  1.00  0.00     0.002 C 
HETATM    9  H   UNL     1      64.589   8.972   5.301  1.00  0.00     0.160 HD
HETATM   10  H   UNL     1      63.212  11.381   6.322  1.00  0.00     0.195 HD
ENDROOT
BRANCH   3  11
HETATM   11  O   UNL     1      62.093  12.187   4.728  1.00  0.00    -0.288 OA
HETATM   12  H   UNL     1      61.943  13.032   5.106  1.00  0.00     0.244 HD
ENDBRANCH   3  11
TORSDOF 1
ENDMDL
MODEL 5
REMARK VINA RESULT:      -3.8      2.141      2.703
REMARK  1 active torsions:
REMARK  status: ('A' for Active; 'I' for Inactive)
REMARK    1  A    between atoms: N_3  and  O_4 
ROOT
HETATM    1  C   UNL     1      63.082   8.370   4.516  1.00  0.00     0.097 C 
HETATM    2  N   UNL     1      63.321   7.981   3.208  1.00  0.00    -0.378 N 
HETATM    3  N   UNL     1      62.994   7.465   5.449  1.00  0.00    -0.257 N 
HETATM    4  C   UNL     1      62.910   9.866   4.749  1.00  0.00     0.078 C 
HETATM    5  C   UNL     1      62.144   7.886   2.353  1.00  0.00     0.121 C 
HETATM    6  C   UNL     1      61.865   9.205   1.630  1.00  0.00     0.020 C 
HETATM    7  C   UNL     1      61.739  10.422   3.929  1.00  0.00     0.007 C 
HETATM    8  C   UNL     1      62.044  10.502   2.431  1.00  0.00     0.002 C 
HETATM    9  H   UNL     1      64.227   7.783   2.878  1.00  0.00     0.160 HD
HETATM   10  H   UNL     1      63.080   6.499   5.283  1.00  0.00     0.195 HD
ENDROOT
BRANCH   3  11
HETATM   11  O   UNL     1      62.764   8.015   6.713  1.00  0.00    -0.288 OA
HETATM   12  H   UNL     1      63.487   8.232   7.268  1.00  0.00     0.244 HD
ENDBRANCH   3  11
TORSDOF 1
ENDMDL
MODEL 6
REMARK VINA RESULT:      -3.7      2.472      3.156
REMARK  1 active torsions:
REMARK  status: ('A' for Active; 'I' for Inactive)
REMARK    1  A    between atoms: N_3  and  O_4 
ROOT
HETATM    1  C   UNL     1      63.580   8.292   5.440  1.00  0.00     0.097 C 
HETATM    2  N   UNL     1      62.863   9.366   5.941  1.00  0.00    -0.378 N 
HETATM    3  N   UNL     1      64.690   7.934   6.021  1.00  0.00    -0.257 N 
HETATM    4  C   UNL     1      63.002   7.623   4.199  1.00  0.00     0.078 C 
HETATM    5  C   UNL     1      63.080  10.640   5.266  1.00  0.00     0.121 C 
HETATM    6  C   UNL     1      62.083  10.848   4.124  1.00  0.00     0.020 C 
HETATM    7  C   UNL     1      62.880   8.619   3.040  1.00  0.00     0.007 C 
HETATM    8  C   UNL     1      61.753   9.636   3.242  1.00  0.00     0.002 C 
HETATM    9  H   UNL     1      62.247   9.275   6.704  1.00  0.00     0.160 HD
HETATM   10  H   UNL     1      65.067   8.391   6.806  1.00  0.00     0.195 HD
ENDROOT
BRANCH   3  11
HETATM   11  O   UNL     1      65.287   6.830   5.406  1.00  0.00    -0.288 OA
HETATM   12  H   UNL     1      64.763   6.095   5.152  1.00  0.00     0.244 HD
ENDBRANCH   3  11
TORSDOF 1
ENDMDL
MODEL 7
REMARK VINA RESULT:      -3.7      3.117      4.152
REMARK  1 active torsions:
REMARK  status: ('A' for Active; 'I' for Inactive)
REMARK    1  A    between atoms: N_3  and  O_4 
ROOT
HETATM    1  C   UNL     1      60.692   7.853   2.309  1.00  0.00     0.097 C 
HETATM    2  N   UNL     1      60.441   8.706   3.371  1.00  0.00    -0.378 N 
HETATM    3  N   UNL     1      60.709   6.566   2.510  1.00  0.00    -0.257 N 
HETATM    4  C   UNL     1      60.962   8.518   0.965  1.00  0.00     0.078 C 
HETATM    5  C   UNL     1      61.617   9.292   4.002  1.00  0.00     0.121 C 
HETATM    6  C   UNL     1      61.992  10.629   3.360  1.00  0.00     0.020 C 
HETATM    7  C   UNL     1      62.176   9.452   1.045  1.00  0.00     0.007 C 
HETATM    8  C   UNL     1      61.892  10.734   1.832  1.00  0.00     0.002 C 
HETATM    9  H   UNL     1      59.527   8.903   3.679  1.00  0.00     0.160 HD
HETATM   10  H   UNL     1      60.560   6.148   3.388  1.00  0.00     0.195 HD
ENDROOT
BRANCH   3  11
HETATM   11  O   UNL     1      60.963   5.842   1.342  1.00  0.00    -0.288 OA
HETATM   12  H   UNL     1      60.437   5.096   1.129  1.00  0.00     0.244 HD
ENDBRANCH   3  11
TORSDOF 1
ENDMDL
MODEL 8
REMARK VINA RESULT:      -3.5     13.747     14.431
REMARK  1 active torsions:
REMARK  status: ('A' for Active; 'I' for Inactive)
REMARK    1  A    between atoms: N_3  and  O_4 
ROOT
HETATM    1  C   UNL     1      57.396   0.675  14.113  1.00  0.00     0.097 C 
HETATM    2  N   UNL     1      57.717  -0.635  13.800  1.00  0.00    -0.378 N 
HETATM    3  N   UNL     1      56.144   1.028  14.189  1.00  0.00    -0.257 N 
HETATM    4  C   UNL     1      58.571   1.622  14.319  1.00  0.00     0.078 C 
HETATM    5  C   UNL     1      58.047  -0.889  12.403  1.00  0.00     0.121 C 
HETATM    6  C   UNL     1      59.546  -0.737  12.142  1.00  0.00     0.020 C 
HETATM    7  C   UNL     1      59.447   1.697  13.062  1.00  0.00     0.007 C 
HETATM    8  C   UNL     1      60.271   0.427  12.832  1.00  0.00     0.002 C 
HETATM    9  H   UNL     1      57.723  -1.349  14.478  1.00  0.00     0.160 HD
HETATM   10  H   UNL     1      55.392   0.414  14.027  1.00  0.00     0.195 HD
ENDROOT
BRANCH   3  11
HETATM   11  O   UNL     1      55.984   2.376  14.523  1.00  0.00    -0.288 OA
HETATM   12  H   UNL     1      55.418   2.921  14.014  1.00  0.00     0.244 HD
ENDBRANCH   3  11
TORSDOF 1
ENDMDL
MODEL 9
REMARK VINA RESULT:      -3.5      3.619      4.425
REMARK  1 active torsions:
REMARK  status: ('A' for Active; 'I' for Inactive)
REMARK    1  A    between atoms: N_3  and  O_4 
ROOT
HETATM    1  C   UNL     1      65.131   7.244   6.179  1.00  0.00     0.097 C 
HETATM    2  N   UNL     1      64.140   6.287   6.031  1.00  0.00    -0.378 N 
HETATM    3  N   UNL     1      65.824   7.284   7.282  1.00  0.00    -0.257 N 
HETATM    4  C   UNL     1      65.308   8.210   5.015  1.00  0.00     0.078 C 
HETATM    5  C   UNL     1      62.782   6.735   6.316  1.00  0.00     0.121 C 
HETATM    6  C   UNL     1      62.090   7.266   5.060  1.00  0.00     0.020 C 
HETATM    7  C   UNL     1      64.016   8.989   4.742  1.00  0.00     0.007 C 
HETATM    8  C   UNL     1      62.924   8.128   4.102  1.00  0.00     0.002 C 
HETATM    9  H   UNL     1      64.340   5.365   5.750  1.00  0.00     0.160 HD
HETATM   10  H   UNL     1      65.683   6.672   8.038  1.00  0.00     0.195 HD
ENDROOT
BRANCH   3  11
HETATM   11  O   UNL     1      66.790   8.294   7.273  1.00  0.00    -0.288 OA
HETATM   12  H   UNL     1      67.313   8.448   8.036  1.00  0.00     0.244 HD
ENDBRANCH   3  11
TORSDOF 1
ENDMDL
