MODEL 1
REMARK VINA RESULT:      -3.9      0.000      0.000
REMARK  1 active torsions:
REMARK  status: ('A' for Active; 'I' for Inactive)
REMARK    1  A    between atoms: C_3  and  N_7 
ROOT
HETATM    1  N   UNL     1      62.508   8.235   3.070  1.00  0.00    -0.301 N 
ATOM      2  HN  UNL     1      62.656   7.236   2.927  1.00  0.00     0.187 HD
HETATM    3  C   UNL     1      62.006  10.427   2.756  1.00  0.00     0.073 A 
HETATM    4  N   UNL     1      62.688   8.948   4.199  1.00  0.00    -0.299 N 
HETATM    5  C   UNL     1      62.398  10.283   4.065  1.00  0.00     0.052 A 
HETATM    6  C   UNL     1      62.088   9.141   2.177  1.00  0.00     0.050 A 
HETATM    7  C   UNL     1      62.514  11.278   5.157  1.00  0.00     0.072 C 
HETATM    8  C   UNL     1      63.147   8.272   5.391  1.00  0.00     0.177 C 
HETATM    9  C   UNL     1      61.779   8.739   0.783  1.00  0.00     0.072 C 
ENDROOT
BRANCH   3  10
HETATM   10  N   UNL     1      61.630  11.578   2.185  1.00  0.00    -0.396 N 
HETATM   11  H   UNL     1      62.152  11.951   1.439  1.00  0.00     0.156 HD
HETATM   12  H   UNL     1      60.831  12.052   2.513  1.00  0.00     0.156 HD
ENDBRANCH   3  10
TORSDOF 1
ENDMDL
MODEL 2
REMARK VINA RESULT:      -3.8      1.222      2.967
REMARK  1 active torsions:
REMARK  status: ('A' for Active; 'I' for Inactive)
REMARK    1  A    between atoms: C_3  and  N_7 
ROOT
HETATM    1  N   UNL     1      62.370   8.391   3.183  1.00  0.00    -0.301 N 
ATOM      2  HN  UNL     1      62.441   7.385   3.030  1.00  0.00     0.187 HD
HETATM    3  C   UNL     1      62.382  10.455   4.130  1.00  0.00     0.073 A 
HETATM    4  N   UNL     1      62.043   9.346   2.288  1.00  0.00    -0.299 N 
HETATM    5  C   UNL     1      62.036  10.615   2.810  1.00  0.00     0.052 A 
HETATM    6  C   UNL     1      62.579   9.069   4.319  1.00  0.00     0.050 A 
HETATM    7  C   UNL     1      61.710  11.836   2.034  1.00  0.00     0.072 C 
HETATM    8  C   UNL     1      61.746   8.961   0.928  1.00  0.00     0.177 C 
HETATM    9  C   UNL     1      62.962   8.357   5.562  1.00  0.00     0.072 C 
ENDROOT
BRANCH   3  10
HETATM   10  N   UNL     1      62.497  11.446   5.023  1.00  0.00    -0.396 N 
HETATM   11  H   UNL     1      63.191  11.402   5.720  1.00  0.00     0.156 HD
HETATM   12  H   UNL     1      61.889  12.219   4.982  1.00  0.00     0.156 HD
ENDBRANCH   3  10
TORSDOF 1
ENDMDL
MODEL 3
REMARK VINA RESULT:      -3.8      0.838      2.864
REMARK  1 active torsions:
REMARK  status: ('A' for Active; 'I' for Inactive)
REMARK    1  A    between atoms: C_3  and  N_7 
ROOT
HETATM    1  N   UNL     1      62.950   9.000   4.248  1.00  0.00    -0.301 N 
ATOM      2  HN  UNL     1      63.349   8.591   5.093  1.00  0.00     0.187 HD
HETATM    3  C   UNL     1      62.024  10.435   2.753  1.00  0.00     0.073 A 
HETATM    4  N   UNL     1      62.752   8.407   3.053  1.00  0.00    -0.299 N 
HETATM    5  C   UNL     1      62.193   9.233   2.111  1.00  0.00     0.052 A 
HETATM    6  C   UNL     1      62.503  10.249   4.069  1.00  0.00     0.050 A 
HETATM    7  C   UNL     1      61.876   8.822   0.721  1.00  0.00     0.072 C 
HETATM    8  C   UNL     1      63.130   7.022   2.885  1.00  0.00     0.177 C 
HETATM    9  C   UNL     1      62.548  11.232   5.178  1.00  0.00     0.072 C 
ENDROOT
BRANCH   3  10
HETATM   10  N   UNL     1      61.503  11.538   2.200  1.00  0.00    -0.396 N 
HETATM   11  H   UNL     1      60.962  12.154   2.746  1.00  0.00     0.156 HD
HETATM   12  H   UNL     1      61.662  11.734   1.248  1.00  0.00     0.156 HD
ENDBRANCH   3  10
TORSDOF 1
ENDMDL
MODEL 4
REMARK VINA RESULT:      -3.7      1.463      2.413
REMARK  1 active torsions:
REMARK  status: ('A' for Active; 'I' for Inactive)
REMARK    1  A    between atoms: C_3  and  N_7 
ROOT
HETATM    1  N   UNL     1      61.563   9.441   2.302  1.00  0.00    -0.301 N 
ATOM      2  HN  UNL     1      61.196   9.295   1.362  1.00  0.00     0.187 HD
HETATM    3  C   UNL     1      62.354  10.391   4.207  1.00  0.00     0.073 A 
HETATM    4  N   UNL     1      61.851   8.510   3.234  1.00  0.00    -0.299 N 
HETATM    5  C   UNL     1      62.333   9.032   4.408  1.00  0.00     0.052 A 
HETATM    6  C   UNL     1      61.872  10.601   2.895  1.00  0.00     0.050 A 
HETATM    7  C   UNL     1      62.722   8.220   5.587  1.00  0.00     0.072 C 
HETATM    8  C   UNL     1      61.634   7.116   2.924  1.00  0.00     0.177 C 
HETATM    9  C   UNL     1      61.695  11.886   2.177  1.00  0.00     0.072 C 
ENDROOT
BRANCH   3  10
HETATM   10  N   UNL     1      62.759  11.298   5.104  1.00  0.00    -0.396 N 
HETATM   11  H   UNL     1      63.335  11.025   5.854  1.00  0.00     0.156 HD
HETATM   12  H   UNL     1      62.480  12.238   5.015  1.00  0.00     0.156 HD
ENDBRANCH   3  10
TORSDOF 1
ENDMDL
MODEL 5
REMARK VINA RESULT:      -3.5      1.441      3.128
REMARK  1 active torsions:
REMARK  status: ('A' for Active; 'I' for Inactive)
REMARK    1  A    between atoms: C_3  and  N_7 
ROOT
HETATM    1  N   UNL     1      62.145   7.731   3.969  1.00  0.00    -0.301 N 
ATOM      2  HN  UNL     1      62.000   6.737   3.793  1.00  0.00     0.187 HD
HETATM    3  C   UNL     1      62.739   9.710   4.910  1.00  0.00     0.073 A 
HETATM    4  N   UNL     1      61.799   8.772   3.185  1.00  0.00    -0.299 N 
HETATM    5  C   UNL     1      62.137   9.995   3.708  1.00  0.00     0.052 A 
HETATM    6  C   UNL     1      62.724   8.302   5.033  1.00  0.00     0.050 A 
HETATM    7  C   UNL     1      61.866  11.292   3.043  1.00  0.00     0.072 C 
HETATM    8  C   UNL     1      61.137   8.514   1.927  1.00  0.00     0.177 C 
HETATM    9  C   UNL     1      63.247   7.472   6.144  1.00  0.00     0.072 C 
ENDROOT
BRANCH   3  10
HETATM   10  N   UNL     1      63.229  10.619   5.762  1.00  0.00    -0.396 N 
HETATM   11  H   UNL     1      64.202  10.703   5.887  1.00  0.00     0.156 HD
HETATM   12  H   UNL     1      62.616  11.204   6.264  1.00  0.00     0.156 HD
ENDBRANCH   3  10
TORSDOF 1
ENDMDL
MODEL 6
REMARK VINA RESULT:      -3.5      1.543      3.788
REMARK  1 active torsions:
REMARK  status: ('A' for Active; 'I' for Inactive)
REMARK    1  A    between atoms: C_3  and  N_7 
ROOT
HETATM    1  N   UNL     1      62.103  10.468   3.534  1.00  0.00    -0.301 N 
ATOM      2  HN  UNL     1      61.545  11.281   3.272  1.00  0.00     0.187 HD
HETATM    3  C   UNL     1      63.434   9.013   4.660  1.00  0.00     0.073 A 
HETATM    4  N   UNL     1      62.322   9.347   2.819  1.00  0.00    -0.299 N 
HETATM    5  C   UNL     1      63.123   8.431   3.455  1.00  0.00     0.052 A 
HETATM    6  C   UNL     1      62.785  10.269   4.669  1.00  0.00     0.050 A 
HETATM    7  C   UNL     1      63.514   7.121   2.881  1.00  0.00     0.072 C 
HETATM    8  C   UNL     1      61.722   9.219   1.511  1.00  0.00     0.177 C 
HETATM    9  C   UNL     1      62.795  11.300   5.734  1.00  0.00     0.072 C 
ENDROOT
BRANCH   3  10
HETATM   10  N   UNL     1      64.204   8.463   5.607  1.00  0.00    -0.396 N 
HETATM   11  H   UNL     1      64.974   8.960   5.966  1.00  0.00     0.156 HD
HETATM   12  H   UNL     1      64.000   7.560   5.944  1.00  0.00     0.156 HD
ENDBRANCH   3  10
TORSDOF 1
ENDMDL
MODEL 7
REMARK VINA RESULT:      -3.5      1.197      2.498
REMARK  1 active torsions:
REMARK  status: ('A' for Active; 'I' for Inactive)
REMARK    1  A    between atoms: C_3  and  N_7 
ROOT
HETATM    1  N   UNL     1      61.543  10.212   3.051  1.00  0.00    -0.301 N 
ATOM      2  HN  UNL     1      60.858  10.946   2.869  1.00  0.00     0.187 HD
HETATM    3  C   UNL     1      62.795   8.322   2.919  1.00  0.00     0.073 A 
HETATM    4  N   UNL     1      62.442  10.146   4.054  1.00  0.00    -0.299 N 
HETATM    5  C   UNL     1      63.227   9.020   4.021  1.00  0.00     0.052 A 
HETATM    6  C   UNL     1      61.755   9.091   2.350  1.00  0.00     0.050 A 
HETATM    7  C   UNL     1      64.289   8.712   5.009  1.00  0.00     0.072 C 
HETATM    8  C   UNL     1      62.493  11.216   5.023  1.00  0.00     0.177 C 
HETATM    9  C   UNL     1      60.944   8.790   1.146  1.00  0.00     0.072 C 
ENDROOT
BRANCH   3  10
HETATM   10  N   UNL     1      63.290   7.149   2.506  1.00  0.00    -0.396 N 
HETATM   11  H   UNL     1      63.409   6.411   3.147  1.00  0.00     0.156 HD
HETATM   12  H   UNL     1      63.537   7.024   1.561  1.00  0.00     0.156 HD
ENDBRANCH   3  10
TORSDOF 1
ENDMDL
MODEL 8
REMARK VINA RESULT:      -3.4      5.332      7.177
REMARK  1 active torsions:
REMARK  status: ('A' for Active; 'I' for Inactive)
REMARK    1  A    between atoms: C_3  and  N_7 
ROOT
HETATM    1  N   UNL     1      66.125   4.751   8.152  1.00  0.00    -0.301 N 
ATOM      2  HN  UNL     1      66.251   3.847   8.608  1.00  0.00     0.187 HD
HETATM    3  C   UNL     1      66.374   6.909   7.492  1.00  0.00     0.073 A 
HETATM    4  N   UNL     1      65.173   5.108   7.266  1.00  0.00    -0.299 N 
HETATM    5  C   UNL     1      65.278   6.406   6.833  1.00  0.00     0.052 A 
HETATM    6  C   UNL     1      66.867   5.856   8.295  1.00  0.00     0.050 A 
HETATM    7  C   UNL     1      64.356   7.040   5.860  1.00  0.00     0.072 C 
HETATM    8  C   UNL     1      64.179   4.136   6.873  1.00  0.00     0.177 C 
HETATM    9  C   UNL     1      68.034   5.868   9.209  1.00  0.00     0.072 C 
ENDROOT
BRANCH   3  10
HETATM   10  N   UNL     1      66.845   8.156   7.366  1.00  0.00    -0.396 N 
HETATM   11  H   UNL     1      66.284   8.922   7.626  1.00  0.00     0.156 HD
HETATM   12  H   UNL     1      67.751   8.307   7.012  1.00  0.00     0.156 HD
ENDBRANCH   3  10
TORSDOF 1
ENDMDL
MODEL 9
REMARK VINA RESULT:      -3.3      4.862      6.524
REMARK  1 active torsions:
REMARK  status: ('A' for Active; 'I' for Inactive)
REMARK    1  A    between atoms: C_3  and  N_7 
ROOT
HETATM    1  N   UNL     1      65.522   5.812   6.035  1.00  0.00    -0.301 N 
ATOM      2  HN  UNL     1      64.943   5.273   5.390  1.00  0.00     0.187 HD
HETATM    3  C   UNL     1      66.613   7.503   7.086  1.00  0.00     0.073 A 
HETATM    4  N   UNL     1      66.227   5.361   7.092  1.00  0.00    -0.299 N 
HETATM    5  C   UNL     1      66.907   6.345   7.765  1.00  0.00     0.052 A 
HETATM    6  C   UNL     1      65.757   7.130   6.025  1.00  0.00     0.050 A 
HETATM    7  C   UNL     1      67.753   6.109   8.960  1.00  0.00     0.072 C 
HETATM    8  C   UNL     1      66.201   3.951   7.404  1.00  0.00     0.177 C 
HETATM    9  C   UNL     1      65.148   7.998   4.989  1.00  0.00     0.072 C 
ENDROOT
BRANCH   3  10
HETATM   10  N   UNL     1      67.071   8.720   7.402  1.00  0.00    -0.396 N 
HETATM   11  H   UNL     1      67.876   8.814   7.962  1.00  0.00     0.156 HD
HETATM   12  H   UNL     1      66.603   9.523   7.076  1.00  0.00     0.156 HD
ENDBRANCH   3  10
TORSDOF 1
ENDMDL
