MODEL 1
REMARK VINA RESULT:      -5.4      0.000      0.000
REMARK  3 active torsions:
REMARK  status: ('A' for Active; 'I' for Inactive)
REMARK    1  A    between atoms: C_3  and  C_9 
REMARK    2  A    between atoms: C_9  and  O_11 
REMARK    3  A    between atoms: O_11  and  C_12 
ROOT
HETATM    1  N   UNL     1      61.620  12.122   1.831  1.00  0.00    -0.191 NA
HETATM    2  C   UNL     1      61.895  11.337   2.644  1.00  0.00     0.099 C 
HETATM    3  C   UNL     1      62.224  10.366   3.644  1.00  0.00     0.044 A 
HETATM    4  C   UNL     1      62.792   8.463   5.620  1.00  0.00     0.069 A 
HETATM    5  C   UNL     1      62.692  10.775   4.896  1.00  0.00     0.025 A 
HETATM    6  C   UNL     1      62.072   9.004   3.371  1.00  0.00     0.025 A 
HETATM    7  C   UNL     1      62.982   9.822   5.878  1.00  0.00     0.038 A 
HETATM    8  C   UNL     1      62.368   8.054   4.354  1.00  0.00     0.038 A 
ENDROOT
BRANCH   4   9
HETATM    9  O   UNL     1      63.048   7.623   6.671  1.00  0.00    -0.345 OA
BRANCH   9  10
HETATM   10  C   UNL     1      63.631   6.362   6.312  1.00  0.00     0.233 C 
BRANCH  10  11
HETATM   11  C   UNL     1      65.118   6.341   6.485  1.00  0.00     0.041 A 
HETATM   12  N   UNL     1      65.615   6.151   7.769  1.00  0.00    -0.355 N 
HETATM   13  C   UNL     1      66.926   6.241   7.768  1.00  0.00     0.047 A 
ATOM     14  HN  UNL     1      65.043   5.968   8.595  1.00  0.00     0.166 HD
HETATM   15  S   UNL     1      67.647   6.502   6.231  1.00  0.00    -0.087 SA
HETATM   16  C   UNL     1      67.770   6.162   8.990  1.00  0.00     0.076 C 
HETATM   17  C   UNL     1      66.088   6.536   5.520  1.00  0.00     0.078 A 
ENDBRANCH  10  11
ENDBRANCH   9  10
ENDBRANCH   4   9
TORSDOF 3
ENDMDL
MODEL 2
REMARK VINA RESULT:      -5.2      4.566      6.481
REMARK  3 active torsions:
REMARK  status: ('A' for Active; 'I' for Inactive)
REMARK    1  A    between atoms: C_3  and  C_9 
REMARK    2  A    between atoms: C_9  and  O_11 
REMARK    3  A    between atoms: O_11  and  C_12 
ROOT
HETATM    1  N   UNL     1      63.258  11.407   6.509  1.00  0.00    -0.191 NA
HETATM    2  C   UNL     1      62.996  10.906   5.494  1.00  0.00     0.099 C 
HETATM    3  C   UNL     1      62.661  10.292   4.244  1.00  0.00     0.044 A 
HETATM    4  C   UNL     1      61.936   9.076   1.826  1.00  0.00     0.069 A 
HETATM    5  C   UNL     1      63.011   8.961   3.996  1.00  0.00     0.025 A 
HETATM    6  C   UNL     1      61.980  11.023   3.267  1.00  0.00     0.025 A 
HETATM    7  C   UNL     1      62.654   8.359   2.786  1.00  0.00     0.038 A 
HETATM    8  C   UNL     1      61.629  10.419   2.055  1.00  0.00     0.038 A 
ENDROOT
BRANCH   4   9
HETATM    9  O   UNL     1      61.587   8.370   0.705  1.00  0.00    -0.345 OA
BRANCH   9  10
HETATM   10  C   UNL     1      60.175   8.199   0.512  1.00  0.00     0.233 C 
BRANCH  10  11
HETATM   11  C   UNL     1      59.545   7.348   1.571  1.00  0.00     0.041 A 
HETATM   12  N   UNL     1      58.660   7.963   2.449  1.00  0.00    -0.355 N 
HETATM   13  C   UNL     1      58.260   7.107   3.364  1.00  0.00     0.047 A 
ATOM     14  HN  UNL     1      58.363   8.937   2.392  1.00  0.00     0.166 HD
HETATM   15  S   UNL     1      58.871   5.511   3.200  1.00  0.00    -0.087 SA
HETATM   16  C   UNL     1      57.368   7.458   4.501  1.00  0.00     0.076 C 
HETATM   17  C   UNL     1      59.767   6.008   1.826  1.00  0.00     0.078 A 
ENDBRANCH  10  11
ENDBRANCH   9  10
ENDBRANCH   4   9
TORSDOF 3
ENDMDL
MODEL 3
REMARK VINA RESULT:      -5.0      2.157      2.625
REMARK  3 active torsions:
REMARK  status: ('A' for Active; 'I' for Inactive)
REMARK    1  A    between atoms: C_3  and  C_9 
REMARK    2  A    between atoms: C_9  and  O_11 
REMARK    3  A    between atoms: O_11  and  C_12 
ROOT
HETATM    1  N   UNL     1      60.442   8.115   1.714  1.00  0.00    -0.191 NA
HETATM    2  C   UNL     1      61.352   8.236   2.426  1.00  0.00     0.099 C 
HETATM    3  C   UNL     1      62.473   8.375   3.306  1.00  0.00     0.044 A 
HETATM    4  C   UNL     1      64.635   8.593   5.075  1.00  0.00     0.069 A 
HETATM    5  C   UNL     1      62.499   9.398   4.259  1.00  0.00     0.025 A 
HETATM    6  C   UNL     1      63.546   7.483   3.218  1.00  0.00     0.025 A 
HETATM    7  C   UNL     1      63.583   9.509   5.135  1.00  0.00     0.038 A 
HETATM    8  C   UNL     1      64.630   7.601   4.093  1.00  0.00     0.038 A 
ENDROOT
BRANCH   4   9
HETATM    9  O   UNL     1      65.614   8.759   6.019  1.00  0.00    -0.345 OA
BRANCH   9  10
HETATM   10  C   UNL     1      66.830   8.042   5.764  1.00  0.00     0.233 C 
BRANCH  10  11
HETATM   11  C   UNL     1      67.057   6.922   6.731  1.00  0.00     0.041 A 
HETATM   12  N   UNL     1      67.577   5.734   6.230  1.00  0.00    -0.355 N 
HETATM   13  C   UNL     1      67.638   4.828   7.181  1.00  0.00     0.047 A 
ATOM     14  HN  UNL     1      67.869   5.586   5.264  1.00  0.00     0.166 HD
HETATM   15  S   UNL     1      67.131   5.353   8.736  1.00  0.00    -0.087 SA
HETATM   16  C   UNL     1      68.075   3.422   6.968  1.00  0.00     0.076 C 
HETATM   17  C   UNL     1      66.768   6.895   8.082  1.00  0.00     0.078 A 
ENDBRANCH  10  11
ENDBRANCH   9  10
ENDBRANCH   4   9
TORSDOF 3
ENDMDL
MODEL 4
REMARK VINA RESULT:      -5.0      2.864      6.817
REMARK  3 active torsions:
REMARK  status: ('A' for Active; 'I' for Inactive)
REMARK    1  A    between atoms: C_3  and  C_9 
REMARK    2  A    between atoms: C_9  and  O_11 
REMARK    3  A    between atoms: O_11  and  C_12 
ROOT
HETATM    1  N   UNL     1      67.808   3.308   6.732  1.00  0.00    -0.191 NA
HETATM    2  C   UNL     1      67.259   4.303   6.483  1.00  0.00     0.099 C 
HETATM    3  C   UNL     1      66.593   5.532   6.177  1.00  0.00     0.044 A 
HETATM    4  C   UNL     1      65.339   7.977   5.625  1.00  0.00     0.069 A 
HETATM    5  C   UNL     1      65.436   5.899   6.871  1.00  0.00     0.025 A 
HETATM    6  C   UNL     1      67.101   6.374   5.184  1.00  0.00     0.025 A 
HETATM    7  C   UNL     1      64.809   7.116   6.588  1.00  0.00     0.038 A 
HETATM    8  C   UNL     1      66.468   7.588   4.900  1.00  0.00     0.038 A 
ENDROOT
BRANCH   4   9
HETATM    9  O   UNL     1      64.680   9.167   5.472  1.00  0.00    -0.345 OA
BRANCH   9  10
HETATM   10  C   UNL     1      63.250   9.064   5.405  1.00  0.00     0.233 C 
BRANCH  10  11
HETATM   11  C   UNL     1      62.692   9.587   4.118  1.00  0.00     0.041 A 
HETATM   12  N   UNL     1      62.696   8.734   3.020  1.00  0.00    -0.355 N 
HETATM   13  C   UNL     1      62.254   9.363   1.954  1.00  0.00     0.047 A 
ATOM     14  HN  UNL     1      62.999   7.760   3.039  1.00  0.00     0.166 HD
HETATM   15  S   UNL     1      61.757  10.987   2.207  1.00  0.00    -0.087 SA
HETATM   16  C   UNL     1      62.201   8.764   0.593  1.00  0.00     0.076 C 
HETATM   17  C   UNL     1      62.201  10.852   3.857  1.00  0.00     0.078 A 
ENDBRANCH  10  11
ENDBRANCH   9  10
ENDBRANCH   4   9
TORSDOF 3
ENDMDL
MODEL 5
REMARK VINA RESULT:      -4.9      3.105      7.826
REMARK  3 active torsions:
REMARK  status: ('A' for Active; 'I' for Inactive)
REMARK    1  A    between atoms: C_3  and  C_9 
REMARK    2  A    between atoms: C_9  and  O_11 
REMARK    3  A    between atoms: O_11  and  C_12 
ROOT
HETATM    1  N   UNL     1      68.074   1.305  10.658  1.00  0.00    -0.191 NA
HETATM    2  C   UNL     1      67.999   2.148   9.861  1.00  0.00     0.099 C 
HETATM    3  C   UNL     1      67.913   3.181   8.874  1.00  0.00     0.044 A 
HETATM    4  C   UNL     1      67.822   5.195   6.927  1.00  0.00     0.069 A 
HETATM    5  C   UNL     1      67.993   4.525   9.251  1.00  0.00     0.025 A 
HETATM    6  C   UNL     1      67.754   2.849   7.526  1.00  0.00     0.025 A 
HETATM    7  C   UNL     1      67.940   5.528   8.278  1.00  0.00     0.038 A 
HETATM    8  C   UNL     1      67.696   3.855   6.556  1.00  0.00     0.038 A 
ENDROOT
BRANCH   4   9
HETATM    9  O   UNL     1      67.842   6.253   6.057  1.00  0.00    -0.345 OA
BRANCH   9  10
HETATM   10  C   UNL     1      67.063   7.387   6.464  1.00  0.00     0.233 C 
BRANCH  10  11
HETATM   11  C   UNL     1      65.883   7.629   5.575  1.00  0.00     0.041 A 
HETATM   12  N   UNL     1      65.123   8.769   5.808  1.00  0.00    -0.355 N 
HETATM   13  C   UNL     1      64.083   8.795   5.004  1.00  0.00     0.047 A 
ATOM     14  HN  UNL     1      65.342   9.484   6.502  1.00  0.00     0.166 HD
HETATM   15  S   UNL     1      63.979   7.493   3.889  1.00  0.00    -0.087 SA
HETATM   16  C   UNL     1      63.024   9.839   5.041  1.00  0.00     0.076 C 
HETATM   17  C   UNL     1      65.409   6.825   4.555  1.00  0.00     0.078 A 
ENDBRANCH  10  11
ENDBRANCH   9  10
ENDBRANCH   4   9
TORSDOF 3
ENDMDL
MODEL 6
REMARK VINA RESULT:      -4.8      2.411      2.986
REMARK  3 active torsions:
REMARK  status: ('A' for Active; 'I' for Inactive)
REMARK    1  A    between atoms: C_3  and  C_9 
REMARK    2  A    between atoms: C_9  and  O_11 
REMARK    3  A    between atoms: O_11  and  C_12 
ROOT
HETATM    1  N   UNL     1      57.872   7.349   0.927  1.00  0.00    -0.191 NA
HETATM    2  C   UNL     1      58.888   7.608   1.428  1.00  0.00     0.099 C 
HETATM    3  C   UNL     1      60.146   7.923   2.035  1.00  0.00     0.044 A 
HETATM    4  C   UNL     1      62.636   8.472   3.198  1.00  0.00     0.069 A 
HETATM    5  C   UNL     1      60.373   7.621   3.382  1.00  0.00     0.025 A 
HETATM    6  C   UNL     1      61.154   8.531   1.282  1.00  0.00     0.025 A 
HETATM    7  C   UNL     1      61.614   7.903   3.961  1.00  0.00     0.038 A 
HETATM    8  C   UNL     1      62.392   8.816   1.866  1.00  0.00     0.038 A 
ENDROOT
BRANCH   4   9
HETATM    9  O   UNL     1      63.828   8.649   3.849  1.00  0.00    -0.345 OA
BRANCH   9  10
HETATM   10  C   UNL     1      63.815   8.301   5.241  1.00  0.00     0.233 C 
BRANCH  10  11
HETATM   11  C   UNL     1      65.117   7.726   5.706  1.00  0.00     0.041 A 
HETATM   12  N   UNL     1      65.205   7.323   7.034  1.00  0.00    -0.355 N 
HETATM   13  C   UNL     1      66.427   6.921   7.306  1.00  0.00     0.047 A 
ATOM     14  HN  UNL     1      64.433   7.337   7.701  1.00  0.00     0.166 HD
HETATM   15  S   UNL     1      67.525   6.948   5.986  1.00  0.00    -0.087 SA
HETATM   16  C   UNL     1      66.885   6.496   8.656  1.00  0.00     0.076 C 
HETATM   17  C   UNL     1      66.287   7.580   4.985  1.00  0.00     0.078 A 
ENDBRANCH  10  11
ENDBRANCH   9  10
ENDBRANCH   4   9
TORSDOF 3
ENDMDL
MODEL 7
REMARK VINA RESULT:      -4.7      4.058      5.309
REMARK  3 active torsions:
REMARK  status: ('A' for Active; 'I' for Inactive)
REMARK    1  A    between atoms: C_3  and  C_9 
REMARK    2  A    between atoms: C_9  and  O_11 
REMARK    3  A    between atoms: O_11  and  C_12 
ROOT
HETATM    1  N   UNL     1      61.817  12.114   2.043  1.00  0.00    -0.191 NA
HETATM    2  C   UNL     1      61.872  11.070   2.551  1.00  0.00     0.099 C 
HETATM    3  C   UNL     1      61.929   9.783   3.176  1.00  0.00     0.044 A 
HETATM    4  C   UNL     1      61.970   7.277   4.429  1.00  0.00     0.069 A 
HETATM    5  C   UNL     1      62.582   9.623   4.402  1.00  0.00     0.025 A 
HETATM    6  C   UNL     1      61.328   8.681   2.562  1.00  0.00     0.025 A 
HETATM    7  C   UNL     1      62.607   8.369   5.021  1.00  0.00     0.038 A 
HETATM    8  C   UNL     1      61.359   7.428   3.182  1.00  0.00     0.038 A 
ENDROOT
BRANCH   4   9
HETATM    9  O   UNL     1      62.005   6.114   5.151  1.00  0.00    -0.345 OA
BRANCH   9  10
HETATM   10  C   UNL     1      60.803   5.330   5.096  1.00  0.00     0.233 C 
BRANCH  10  11
HETATM   11  C   UNL     1      59.846   5.661   6.199  1.00  0.00     0.041 A 
HETATM   12  N   UNL     1      58.579   6.108   5.840  1.00  0.00    -0.355 N 
HETATM   13  C   UNL     1      57.891   6.434   6.912  1.00  0.00     0.047 A 
ATOM     14  HN  UNL     1      58.233   6.173   4.882  1.00  0.00     0.166 HD
HETATM   15  S   UNL     1      58.691   6.177   8.409  1.00  0.00    -0.087 SA
HETATM   16  C   UNL     1      56.525   7.020   6.880  1.00  0.00     0.076 C 
HETATM   17  C   UNL     1      60.074   5.625   7.561  1.00  0.00     0.078 A 
ENDBRANCH  10  11
ENDBRANCH   9  10
ENDBRANCH   4   9
TORSDOF 3
ENDMDL
MODEL 8
REMARK VINA RESULT:      -4.7      1.987      2.499
REMARK  3 active torsions:
REMARK  status: ('A' for Active; 'I' for Inactive)
REMARK    1  A    between atoms: C_3  and  C_9 
REMARK    2  A    between atoms: C_9  and  O_11 
REMARK    3  A    between atoms: O_11  and  C_12 
ROOT
HETATM    1  N   UNL     1      58.685   7.381   2.116  1.00  0.00    -0.191 NA
HETATM    2  C   UNL     1      59.661   7.598   2.709  1.00  0.00     0.099 C 
HETATM    3  C   UNL     1      60.857   7.864   3.449  1.00  0.00     0.044 A 
HETATM    4  C   UNL     1      63.156   8.424   4.951  1.00  0.00     0.069 A 
HETATM    5  C   UNL     1      61.679   8.940   3.099  1.00  0.00     0.025 A 
HETATM    6  C   UNL     1      61.207   7.049   4.530  1.00  0.00     0.025 A 
HETATM    7  C   UNL     1      62.829   9.212   3.846  1.00  0.00     0.038 A 
HETATM    8  C   UNL     1      62.361   7.322   5.271  1.00  0.00     0.038 A 
ENDROOT
BRANCH   4   9
HETATM    9  O   UNL     1      64.269   8.818   5.645  1.00  0.00    -0.345 OA
BRANCH   9  10
HETATM   10  C   UNL     1      65.518   8.384   5.085  1.00  0.00     0.233 C 
BRANCH  10  11
HETATM   11  C   UNL     1      66.227   7.390   5.953  1.00  0.00     0.041 A 
HETATM   12  N   UNL     1      66.039   7.485   7.327  1.00  0.00    -0.355 N 
HETATM   13  C   UNL     1      66.789   6.603   7.950  1.00  0.00     0.047 A 
ATOM     14  HN  UNL     1      65.410   8.144   7.786  1.00  0.00     0.166 HD
HETATM   15  S   UNL     1      67.718   5.575   6.935  1.00  0.00    -0.087 SA
HETATM   16  C   UNL     1      66.886   6.486   9.429  1.00  0.00     0.076 C 
HETATM   17  C   UNL     1      67.102   6.394   5.562  1.00  0.00     0.078 A 
ENDBRANCH  10  11
ENDBRANCH   9  10
ENDBRANCH   4   9
TORSDOF 3
ENDMDL
MODEL 9
REMARK VINA RESULT:      -4.4      2.930      7.111
REMARK  3 active torsions:
REMARK  status: ('A' for Active; 'I' for Inactive)
REMARK    1  A    between atoms: C_3  and  C_9 
REMARK    2  A    between atoms: C_9  and  O_11 
REMARK    3  A    between atoms: O_11  and  C_12 
ROOT
HETATM    1  N   UNL     1      67.330   1.656   8.076  1.00  0.00    -0.191 NA
HETATM    2  C   UNL     1      66.844   2.684   7.835  1.00  0.00     0.099 C 
HETATM    3  C   UNL     1      66.248   3.949   7.528  1.00  0.00     0.044 A 
HETATM    4  C   UNL     1      65.140   6.438   6.873  1.00  0.00     0.069 A 
HETATM    5  C   UNL     1      66.537   5.073   8.309  1.00  0.00     0.025 A 
HETATM    6  C   UNL     1      65.378   4.066   6.441  1.00  0.00     0.025 A 
HETATM    7  C   UNL     1      65.976   6.311   7.984  1.00  0.00     0.038 A 
HETATM    8  C   UNL     1      64.815   5.306   6.122  1.00  0.00     0.038 A 
ENDROOT
BRANCH   4   9
HETATM    9  O   UNL     1      64.696   7.707   6.613  1.00  0.00    -0.345 OA
BRANCH   9  10
HETATM   10  C   UNL     1      65.017   8.205   5.305  1.00  0.00     0.233 C 
BRANCH  10  11
HETATM   11  C   UNL     1      63.852   8.866   4.635  1.00  0.00     0.041 A 
HETATM   12  N   UNL     1      63.464   8.380   3.392  1.00  0.00    -0.355 N 
HETATM   13  C   UNL     1      62.489   9.113   2.902  1.00  0.00     0.047 A 
ATOM     14  HN  UNL     1      63.876   7.571   2.927  1.00  0.00     0.166 HD
HETATM   15  S   UNL     1      61.942  10.388   3.915  1.00  0.00    -0.087 SA
HETATM   16  C   UNL     1      61.890   8.914   1.555  1.00  0.00     0.076 C 
HETATM   17  C   UNL     1      63.121   9.951   5.079  1.00  0.00     0.078 A 
ENDBRANCH  10  11
ENDBRANCH   9  10
ENDBRANCH   4   9
TORSDOF 3
ENDMDL
