MODEL 1
REMARK VINA RESULT:      -4.2      0.000      0.000
REMARK  2 active torsions:
REMARK  status: ('A' for Active; 'I' for Inactive)
REMARK    1  A    between atoms: C_3  and  C_6 
REMARK    2  A    between atoms: C_6  and  C_8 
ROOT
HETATM    1  N   UNL     1      64.866   8.819   5.438  1.00  0.00    -0.357 N 
ATOM      2  HN  UNL     1      65.380   9.653   5.151  1.00  0.00     0.166 HD
HETATM    3  C   UNL     1      63.515   8.599   5.204  1.00  0.00     0.026 A 
HETATM    4  C   UNL     1      65.388   7.799   6.082  1.00  0.00     0.047 A 
HETATM    5  S   UNL     1      64.298   6.529   6.467  1.00  0.00    -0.087 SA
HETATM    6  C   UNL     1      63.034   7.407   5.716  1.00  0.00     0.077 A 
HETATM    7  C   UNL     1      66.821   7.692   6.473  1.00  0.00     0.076 C 
ENDROOT
BRANCH   3   8
HETATM    8  C   UNL     1      62.737   9.646   4.477  1.00  0.00     0.170 C 
BRANCH   8   9
HETATM    9  C   UNL     1      62.692  10.952   5.229  1.00  0.00     0.178 C 
HETATM   10  O   UNL     1      63.247  11.230   6.280  1.00  0.00    -0.648 OA
HETATM   11  O   UNL     1      62.002  11.905   4.566  1.00  0.00    -0.648 OA
ENDBRANCH   8   9
ENDBRANCH   3   8
TORSDOF 2
ENDMDL
MODEL 2
REMARK VINA RESULT:      -4.0      1.923      2.231
REMARK  2 active torsions:
REMARK  status: ('A' for Active; 'I' for Inactive)
REMARK    1  A    between atoms: C_3  and  C_6 
REMARK    2  A    between atoms: C_6  and  C_8 
ROOT
HETATM    1  N   UNL     1      63.545   9.108   4.352  1.00  0.00    -0.357 N 
ATOM      2  HN  UNL     1      63.433   9.971   4.884  1.00  0.00     0.166 HD
HETATM    3  C   UNL     1      62.756   8.733   3.272  1.00  0.00     0.026 A 
HETATM    4  C   UNL     1      64.457   8.191   4.589  1.00  0.00     0.047 A 
HETATM    5  S   UNL     1      64.414   6.820   3.555  1.00  0.00    -0.087 SA
HETATM    6  C   UNL     1      63.079   7.502   2.729  1.00  0.00     0.077 A 
HETATM    7  C   UNL     1      65.486   8.282   5.660  1.00  0.00     0.076 C 
ENDROOT
BRANCH   3   8
HETATM    8  C   UNL     1      61.658   9.647   2.838  1.00  0.00     0.170 C 
BRANCH   8   9
HETATM    9  C   UNL     1      61.895  11.072   3.272  1.00  0.00     0.178 C 
HETATM   10  O   UNL     1      62.020  11.498   4.409  1.00  0.00    -0.648 OA
HETATM   11  O   UNL     1      62.056  11.910   2.225  1.00  0.00    -0.648 OA
ENDBRANCH   8   9
ENDBRANCH   3   8
TORSDOF 2
ENDMDL
MODEL 3
REMARK VINA RESULT:      -4.0      3.195      4.540
REMARK  2 active torsions:
REMARK  status: ('A' for Active; 'I' for Inactive)
REMARK    1  A    between atoms: C_3  and  C_6 
REMARK    2  A    between atoms: C_6  and  C_8 
ROOT
HETATM    1  N   UNL     1      62.482  10.069   3.535  1.00  0.00    -0.357 N 
ATOM      2  HN  UNL     1      62.574  10.689   4.340  1.00  0.00     0.166 HD
HETATM    3  C   UNL     1      62.787   8.714   3.538  1.00  0.00     0.026 A 
HETATM    4  C   UNL     1      62.057  10.436   2.346  1.00  0.00     0.047 A 
HETATM    5  S   UNL     1      62.017   9.197   1.158  1.00  0.00    -0.087 SA
HETATM    6  C   UNL     1      62.610   8.086   2.318  1.00  0.00     0.077 A 
HETATM    7  C   UNL     1      61.621  11.816   1.996  1.00  0.00     0.076 C 
ENDROOT
BRANCH   3   8
HETATM    8  C   UNL     1      63.285   8.098   4.804  1.00  0.00     0.170 C 
BRANCH   8   9
HETATM    9  C   UNL     1      64.663   8.586   5.175  1.00  0.00     0.178 C 
HETATM   10  O   UNL     1      65.735   8.053   4.938  1.00  0.00    -0.648 OA
HETATM   11  O   UNL     1      64.637   9.800   5.768  1.00  0.00    -0.648 OA
ENDBRANCH   8   9
ENDBRANCH   3   8
TORSDOF 2
ENDMDL
MODEL 4
REMARK VINA RESULT:      -3.9      2.242      3.052
REMARK  2 active torsions:
REMARK  status: ('A' for Active; 'I' for Inactive)
REMARK    1  A    between atoms: C_3  and  C_6 
REMARK    2  A    between atoms: C_6  and  C_8 
ROOT
HETATM    1  N   UNL     1      65.711   7.336   7.108  1.00  0.00    -0.357 N 
ATOM      2  HN  UNL     1      64.937   7.865   7.511  1.00  0.00     0.166 HD
HETATM    3  C   UNL     1      65.998   7.258   5.751  1.00  0.00     0.026 A 
HETATM    4  C   UNL     1      66.579   6.629   7.798  1.00  0.00     0.047 A 
HETATM    5  S   UNL     1      67.773   5.814   6.871  1.00  0.00    -0.087 SA
HETATM    6  C   UNL     1      67.080   6.453   5.442  1.00  0.00     0.077 A 
HETATM    7  C   UNL     1      66.581   6.511   9.282  1.00  0.00     0.076 C 
ENDROOT
BRANCH   3   8
HETATM    8  C   UNL     1      65.125   8.000   4.794  1.00  0.00     0.170 C 
BRANCH   8   9
HETATM    9  C   UNL     1      64.139   8.899   5.496  1.00  0.00     0.178 C 
HETATM   10  O   UNL     1      62.993   8.639   5.826  1.00  0.00    -0.648 OA
HETATM   11  O   UNL     1      64.680  10.088   5.840  1.00  0.00    -0.648 OA
ENDBRANCH   8   9
ENDBRANCH   3   8
TORSDOF 2
ENDMDL
MODEL 5
REMARK VINA RESULT:      -3.9      3.441      4.473
REMARK  2 active torsions:
REMARK  status: ('A' for Active; 'I' for Inactive)
REMARK    1  A    between atoms: C_3  and  C_6 
REMARK    2  A    between atoms: C_6  and  C_8 
ROOT
HETATM    1  N   UNL     1      61.016   9.035   3.640  1.00  0.00    -0.357 N 
ATOM      2  HN  UNL     1      60.694   8.870   4.594  1.00  0.00     0.166 HD
HETATM    3  C   UNL     1      61.792  10.115   3.240  1.00  0.00     0.026 A 
HETATM    4  C   UNL     1      60.755   8.258   2.613  1.00  0.00     0.047 A 
HETATM    5  S   UNL     1      61.399   8.778   1.108  1.00  0.00    -0.087 SA
HETATM    6  C   UNL     1      62.078  10.143   1.887  1.00  0.00     0.077 A 
HETATM    7  C   UNL     1      59.967   6.997   2.688  1.00  0.00     0.076 C 
ENDROOT
BRANCH   3   8
HETATM    8  C   UNL     1      62.202  11.119   4.267  1.00  0.00     0.170 C 
BRANCH   8   9
HETATM    9  C   UNL     1      62.959  10.492   5.410  1.00  0.00     0.178 C 
HETATM   10  O   UNL     1      63.380   9.349   5.492  1.00  0.00    -0.648 OA
HETATM   11  O   UNL     1      63.239  11.377   6.391  1.00  0.00    -0.648 OA
ENDBRANCH   8   9
ENDBRANCH   3   8
TORSDOF 2
ENDMDL
MODEL 6
REMARK VINA RESULT:      -3.8      4.773      5.464
REMARK  2 active torsions:
REMARK  status: ('A' for Active; 'I' for Inactive)
REMARK    1  A    between atoms: C_3  and  C_6 
REMARK    2  A    between atoms: C_6  and  C_8 
ROOT
HETATM    1  N   UNL     1      60.240   8.401   2.940  1.00  0.00    -0.357 N 
ATOM      2  HN  UNL     1      60.538   8.744   3.854  1.00  0.00     0.166 HD
HETATM    3  C   UNL     1      60.851   8.720   1.734  1.00  0.00     0.026 A 
HETATM    4  C   UNL     1      59.223   7.594   2.735  1.00  0.00     0.047 A 
HETATM    5  S   UNL     1      58.920   7.186   1.094  1.00  0.00    -0.087 SA
HETATM    6  C   UNL     1      60.248   8.159   0.623  1.00  0.00     0.077 A 
HETATM    7  C   UNL     1      58.360   7.035   3.811  1.00  0.00     0.076 C 
ENDROOT
BRANCH   3   8
HETATM    8  C   UNL     1      62.036   9.628   1.753  1.00  0.00     0.170 C 
BRANCH   8   9
HETATM    9  C   UNL     1      61.826  10.827   2.643  1.00  0.00     0.178 C 
HETATM   10  O   UNL     1      61.629  10.839   3.848  1.00  0.00    -0.648 OA
HETATM   11  O   UNL     1      61.962  11.994   1.978  1.00  0.00    -0.648 OA
ENDBRANCH   8   9
ENDBRANCH   3   8
TORSDOF 2
ENDMDL
MODEL 7
REMARK VINA RESULT:      -3.8      3.041      4.142
REMARK  2 active torsions:
REMARK  status: ('A' for Active; 'I' for Inactive)
REMARK    1  A    between atoms: C_3  and  C_6 
REMARK    2  A    between atoms: C_6  and  C_8 
ROOT
HETATM    1  N   UNL     1      64.134   9.309   5.403  1.00  0.00    -0.357 N 
ATOM      2  HN  UNL     1      64.737   9.559   6.187  1.00  0.00     0.166 HD
HETATM    3  C   UNL     1      64.254   8.151   4.646  1.00  0.00     0.026 A 
HETATM    4  C   UNL     1      63.131  10.038   4.964  1.00  0.00     0.047 A 
HETATM    5  S   UNL     1      62.287   9.398   3.612  1.00  0.00    -0.087 SA
HETATM    6  C   UNL     1      63.339   8.047   3.614  1.00  0.00     0.077 A 
HETATM    7  C   UNL     1      62.704  11.333   5.561  1.00  0.00     0.076 C 
ENDROOT
BRANCH   3   8
HETATM    8  C   UNL     1      65.337   7.183   4.990  1.00  0.00     0.170 C 
BRANCH   8   9
HETATM    9  C   UNL     1      66.247   7.703   6.074  1.00  0.00     0.178 C 
HETATM   10  O   UNL     1      66.142   7.545   7.280  1.00  0.00    -0.648 OA
HETATM   11  O   UNL     1      67.327   8.345   5.578  1.00  0.00    -0.648 OA
ENDBRANCH   8   9
ENDBRANCH   3   8
TORSDOF 2
ENDMDL
MODEL 8
REMARK VINA RESULT:      -3.7      3.108      4.458
REMARK  2 active torsions:
REMARK  status: ('A' for Active; 'I' for Inactive)
REMARK    1  A    between atoms: C_3  and  C_6 
REMARK    2  A    between atoms: C_6  and  C_8 
ROOT
HETATM    1  N   UNL     1      63.126   8.326   3.074  1.00  0.00    -0.357 N 
ATOM      2  HN  UNL     1      63.455   7.486   2.598  1.00  0.00     0.166 HD
HETATM    3  C   UNL     1      63.384   8.639   4.403  1.00  0.00     0.026 A 
HETATM    4  C   UNL     1      62.395   9.268   2.519  1.00  0.00     0.047 A 
HETATM    5  S   UNL     1      61.955  10.569   3.551  1.00  0.00    -0.087 SA
HETATM    6  C   UNL     1      62.804   9.818   4.834  1.00  0.00     0.077 A 
HETATM    7  C   UNL     1      61.955   9.266   1.097  1.00  0.00     0.076 C 
ENDROOT
BRANCH   3   8
HETATM    8  C   UNL     1      64.206   7.691   5.212  1.00  0.00     0.170 C 
BRANCH   8   9
HETATM    9  C   UNL     1      65.596   8.216   5.471  1.00  0.00     0.178 C 
HETATM   10  O   UNL     1      65.946   9.018   6.322  1.00  0.00    -0.648 OA
HETATM   11  O   UNL     1      66.524   7.629   4.685  1.00  0.00    -0.648 OA
ENDBRANCH   8   9
ENDBRANCH   3   8
TORSDOF 2
ENDMDL
MODEL 9
REMARK VINA RESULT:      -3.4      3.544      4.225
REMARK  2 active torsions:
REMARK  status: ('A' for Active; 'I' for Inactive)
REMARK    1  A    between atoms: C_3  and  C_6 
REMARK    2  A    between atoms: C_6  and  C_8 
ROOT
HETATM    1  N   UNL     1      62.692   8.241   2.121  1.00  0.00    -0.357 N 
ATOM      2  HN  UNL     1      63.621   8.642   1.987  1.00  0.00     0.166 HD
HETATM    3  C   UNL     1      61.792   8.633   3.104  1.00  0.00     0.026 A 
HETATM    4  C   UNL     1      62.174   7.281   1.387  1.00  0.00     0.047 A 
HETATM    5  S   UNL     1      60.597   6.773   1.838  1.00  0.00    -0.087 SA
HETATM    6  C   UNL     1      60.605   7.922   3.107  1.00  0.00     0.077 A 
HETATM    7  C   UNL     1      62.858   6.643   0.229  1.00  0.00     0.076 C 
ENDROOT
BRANCH   3   8
HETATM    8  C   UNL     1      62.192   9.722   4.044  1.00  0.00     0.170 C 
BRANCH   8   9
HETATM    9  C   UNL     1      61.967  11.094   3.460  1.00  0.00     0.178 C 
HETATM   10  O   UNL     1      61.924  12.161   4.050  1.00  0.00    -0.648 OA
HETATM   11  O   UNL     1      61.892  11.074   2.111  1.00  0.00    -0.648 OA
ENDBRANCH   8   9
ENDBRANCH   3   8
TORSDOF 2
ENDMDL
