MODEL 1
REMARK VINA RESULT:      -4.6      0.000      0.000
REMARK  2 active torsions:
REMARK  status: ('A' for Active; 'I' for Inactive)
REMARK    1  A    between atoms: N_4  and  C_11 
REMARK    2  A    between atoms: C_8  and  C_11 
ROOT
HETATM    1  S   UNL     1      66.900   6.654   7.411  1.00  0.00     0.147 S 
HETATM    2  C   UNL     1      65.397   5.758   7.121  1.00  0.00     0.168 C 
HETATM    3  C   UNL     1      66.648   8.199   6.579  1.00  0.00     0.168 C 
HETATM    4  N   UNL     1      64.787   7.225   5.168  1.00  0.00    -0.065 N 
HETATM    5  O   UNL     1      66.976   6.929   8.834  1.00  0.00    -0.228 OA
HETATM    6  O   UNL     1      67.979   5.949   6.741  1.00  0.00    -0.228 OA
HETATM    7  C   UNL     1      66.043   7.989   5.203  1.00  0.00     0.250 C 
HETATM    8  C   UNL     1      64.974   5.858   5.668  1.00  0.00     0.250 C 
HETATM    9  H   UNL     1      64.538   7.152   4.181  1.00  0.00     0.280 HD
ENDROOT
BRANCH   4  10
HETATM   10  C   UNL     1      63.625   7.915   5.758  1.00  0.00     0.280 C 
BRANCH  10  11
HETATM   11  C   UNL     1      63.070   8.944   4.813  1.00  0.00     0.008 A 
HETATM   12  S   UNL     1      62.664   8.520   3.202  1.00  0.00    -0.105 SA
HETATM   13  C   UNL     1      62.004  10.068   2.897  1.00  0.00     0.050 A 
HETATM   14  C   UNL     1      62.145  10.912   3.975  1.00  0.00     0.008 A 
HETATM   15  C   UNL     1      62.788  10.272   5.072  1.00  0.00     0.017 A 
ENDBRANCH  10  11
ENDBRANCH   4  10
TORSDOF 2
ENDMDL
MODEL 2
REMARK VINA RESULT:      -4.5      1.142      2.048
REMARK  2 active torsions:
REMARK  status: ('A' for Active; 'I' for Inactive)
REMARK    1  A    between atoms: N_4  and  C_11 
REMARK    2  A    between atoms: C_8  and  C_11 
ROOT
HETATM    1  S   UNL     1      67.447   5.464   6.826  1.00  0.00     0.147 S 
HETATM    2  C   UNL     1      67.708   6.864   5.769  1.00  0.00     0.168 C 
HETATM    3  C   UNL     1      65.683   5.340   6.951  1.00  0.00     0.168 C 
HETATM    4  N   UNL     1      65.384   7.736   6.190  1.00  0.00    -0.065 N 
HETATM    5  O   UNL     1      67.921   4.289   6.118  1.00  0.00    -0.228 OA
HETATM    6  O   UNL     1      67.973   5.790   8.140  1.00  0.00    -0.228 OA
HETATM    7  C   UNL     1      65.053   6.702   7.182  1.00  0.00     0.250 C 
HETATM    8  C   UNL     1      66.822   8.026   6.174  1.00  0.00     0.250 C 
HETATM    9  H   UNL     1      64.910   8.581   6.508  1.00  0.00     0.280 HD
ENDROOT
BRANCH   4  10
HETATM   10  C   UNL     1      64.813   7.513   4.849  1.00  0.00     0.280 C 
BRANCH  10  11
HETATM   11  C   UNL     1      63.823   8.588   4.498  1.00  0.00     0.008 A 
HETATM   12  S   UNL     1      62.829   8.438   3.108  1.00  0.00    -0.105 SA
HETATM   13  C   UNL     1      61.958   9.855   3.504  1.00  0.00     0.050 A 
HETATM   14  C   UNL     1      62.452  10.467   4.634  1.00  0.00     0.008 A 
HETATM   15  C   UNL     1      63.548   9.751   5.192  1.00  0.00     0.017 A 
ENDBRANCH  10  11
ENDBRANCH   4  10
TORSDOF 2
ENDMDL
MODEL 3
REMARK VINA RESULT:      -4.3      1.794      2.125
REMARK  2 active torsions:
REMARK  status: ('A' for Active; 'I' for Inactive)
REMARK    1  A    between atoms: N_4  and  C_11 
REMARK    2  A    between atoms: C_8  and  C_11 
ROOT
HETATM    1  S   UNL     1      65.199   6.471   6.440  1.00  0.00     0.147 S 
HETATM    2  C   UNL     1      63.669   5.620   6.162  1.00  0.00     0.168 C 
HETATM    3  C   UNL     1      65.098   7.896   5.390  1.00  0.00     0.168 C 
HETATM    4  N   UNL     1      63.281   6.829   3.988  1.00  0.00    -0.065 N 
HETATM    5  O   UNL     1      65.196   6.937   7.814  1.00  0.00    -0.228 OA
HETATM    6  O   UNL     1      66.277   5.626   5.955  1.00  0.00    -0.228 OA
HETATM    7  C   UNL     1      64.575   7.527   4.013  1.00  0.00     0.250 C 
HETATM    8  C   UNL     1      63.351   5.538   4.681  1.00  0.00     0.250 C 
HETATM    9  H   UNL     1      63.096   6.632   3.003  1.00  0.00     0.280 HD
ENDROOT
BRANCH   4  10
HETATM   10  C   UNL     1      62.125   7.652   4.390  1.00  0.00     0.280 C 
BRANCH  10  11
HETATM   11  C   UNL     1      61.940   8.816   3.456  1.00  0.00     0.008 A 
HETATM   12  S   UNL     1      62.057  10.426   4.035  1.00  0.00    -0.105 SA
HETATM   13  C   UNL     1      61.914  11.068   2.457  1.00  0.00     0.050 A 
HETATM   14  C   UNL     1      61.716  10.084   1.514  1.00  0.00     0.008 A 
HETATM   15  C   UNL     1      61.702   8.785   2.095  1.00  0.00     0.017 A 
ENDBRANCH  10  11
ENDBRANCH   4  10
TORSDOF 2
ENDMDL
MODEL 4
REMARK VINA RESULT:      -4.0      1.658      2.569
REMARK  2 active torsions:
REMARK  status: ('A' for Active; 'I' for Inactive)
REMARK    1  A    between atoms: N_4  and  C_11 
REMARK    2  A    between atoms: C_8  and  C_11 
ROOT
HETATM    1  S   UNL     1      65.829   6.356   6.742  1.00  0.00     0.147 S 
HETATM    2  C   UNL     1      66.198   7.463   5.407  1.00  0.00     0.168 C 
HETATM    3  C   UNL     1      64.165   5.835   6.423  1.00  0.00     0.168 C 
HETATM    4  N   UNL     1      63.758   7.809   4.893  1.00  0.00    -0.065 N 
HETATM    5  O   UNL     1      66.689   5.196   6.597  1.00  0.00    -0.228 OA
HETATM    6  O   UNL     1      65.835   7.123   7.976  1.00  0.00    -0.228 OA
HETATM    7  C   UNL     1      63.287   7.010   6.034  1.00  0.00     0.250 C 
HETATM    8  C   UNL     1      65.056   8.433   5.171  1.00  0.00     0.250 C 
HETATM    9  H   UNL     1      63.078   8.562   4.787  1.00  0.00     0.280 HD
ENDROOT
BRANCH   4  10
HETATM   10  C   UNL     1      63.702   7.120   3.590  1.00  0.00     0.280 C 
BRANCH  10  11
HETATM   11  C   UNL     1      62.909   7.916   2.591  1.00  0.00     0.008 A 
HETATM   12  S   UNL     1      62.461   7.229   1.086  1.00  0.00    -0.105 SA
HETATM   13  C   UNL     1      61.524   8.597   0.671  1.00  0.00     0.050 A 
HETATM   14  C   UNL     1      61.600   9.585   1.626  1.00  0.00     0.008 A 
HETATM   15  C   UNL     1      62.424   9.204   2.722  1.00  0.00     0.017 A 
ENDBRANCH  10  11
ENDBRANCH   4  10
TORSDOF 2
ENDMDL
MODEL 5
REMARK VINA RESULT:      -3.9      3.375      5.819
REMARK  2 active torsions:
REMARK  status: ('A' for Active; 'I' for Inactive)
REMARK    1  A    between atoms: N_4  and  C_11 
REMARK    2  A    between atoms: C_8  and  C_11 
ROOT
HETATM    1  S   UNL     1      62.693   7.787   3.819  1.00  0.00     0.147 S 
HETATM    2  C   UNL     1      62.056   6.947   5.245  1.00  0.00     0.168 C 
HETATM    3  C   UNL     1      64.451   7.749   4.045  1.00  0.00     0.168 C 
HETATM    4  N   UNL     1      64.200   7.285   6.521  1.00  0.00    -0.065 N 
HETATM    5  O   UNL     1      62.382   6.974   2.658  1.00  0.00    -0.228 OA
HETATM    6  O   UNL     1      62.258   9.172   3.882  1.00  0.00    -0.228 OA
HETATM    7  C   UNL     1      64.828   8.103   5.473  1.00  0.00     0.250 C 
HETATM    8  C   UNL     1      62.739   7.426   6.511  1.00  0.00     0.250 C 
HETATM    9  H   UNL     1      64.533   7.670   7.405  1.00  0.00     0.280 HD
ENDROOT
BRANCH   4  10
HETATM   10  C   UNL     1      64.656   5.884   6.570  1.00  0.00     0.280 C 
BRANCH  10  11
HETATM   11  C   UNL     1      65.792   5.719   7.541  1.00  0.00     0.008 A 
HETATM   12  S   UNL     1      66.747   4.295   7.533  1.00  0.00    -0.105 SA
HETATM   13  C   UNL     1      67.819   4.934   8.702  1.00  0.00     0.050 A 
HETATM   14  C   UNL     1      67.425   6.179   9.139  1.00  0.00     0.008 A 
HETATM   15  C   UNL     1      66.238   6.620   8.490  1.00  0.00     0.017 A 
ENDBRANCH  10  11
ENDBRANCH   4  10
TORSDOF 2
ENDMDL
MODEL 6
REMARK VINA RESULT:      -3.9      3.481      5.774
REMARK  2 active torsions:
REMARK  status: ('A' for Active; 'I' for Inactive)
REMARK    1  A    between atoms: N_4  and  C_11 
REMARK    2  A    between atoms: C_8  and  C_11 
ROOT
HETATM    1  S   UNL     1      62.005   8.824   2.888  1.00  0.00     0.147 S 
HETATM    2  C   UNL     1      63.101   7.450   3.117  1.00  0.00     0.168 C 
HETATM    3  C   UNL     1      62.516   9.994   4.118  1.00  0.00     0.168 C 
HETATM    4  N   UNL     1      63.706   8.197   5.444  1.00  0.00    -0.065 N 
HETATM    5  O   UNL     1      62.292   9.400   1.587  1.00  0.00    -0.228 OA
HETATM    6  O   UNL     1      60.659   8.384   3.214  1.00  0.00    -0.228 OA
HETATM    7  C   UNL     1      62.753   9.317   5.455  1.00  0.00     0.250 C 
HETATM    8  C   UNL     1      63.241   7.101   4.586  1.00  0.00     0.250 C 
HETATM    9  H   UNL     1      63.724   7.843   6.401  1.00  0.00     0.280 HD
ENDROOT
BRANCH   4  10
HETATM   10  C   UNL     1      65.109   8.580   5.200  1.00  0.00     0.280 C 
BRANCH  10  11
HETATM   11  C   UNL     1      66.048   7.475   5.596  1.00  0.00     0.008 A 
HETATM   12  S   UNL     1      65.984   6.798   7.170  1.00  0.00    -0.105 SA
HETATM   13  C   UNL     1      67.141   5.604   6.770  1.00  0.00     0.050 A 
HETATM   14  C   UNL     1      67.616   5.754   5.487  1.00  0.00     0.008 A 
HETATM   15  C   UNL     1      67.006   6.853   4.818  1.00  0.00     0.017 A 
ENDBRANCH  10  11
ENDBRANCH   4  10
TORSDOF 2
ENDMDL
MODEL 7
REMARK VINA RESULT:      -3.7      4.976      6.670
REMARK  2 active torsions:
REMARK  status: ('A' for Active; 'I' for Inactive)
REMARK    1  A    between atoms: N_4  and  C_11 
REMARK    2  A    between atoms: C_8  and  C_11 
ROOT
HETATM    1  S   UNL     1      59.528   5.432   1.525  1.00  0.00     0.147 S 
HETATM    2  C   UNL     1      60.092   6.156   3.042  1.00  0.00     0.168 C 
HETATM    3  C   UNL     1      59.950   6.632   0.290  1.00  0.00     0.168 C 
HETATM    4  N   UNL     1      60.157   8.460   2.028  1.00  0.00    -0.065 N 
HETATM    5  O   UNL     1      60.334   4.249   1.280  1.00  0.00    -0.228 OA
HETATM    6  O   UNL     1      58.080   5.333   1.585  1.00  0.00    -0.228 OA
HETATM    7  C   UNL     1      59.585   8.035   0.742  1.00  0.00     0.250 C 
HETATM    8  C   UNL     1      59.688   7.615   3.133  1.00  0.00     0.250 C 
HETATM    9  H   UNL     1      59.794   9.399   2.192  1.00  0.00     0.280 HD
ENDROOT
BRANCH   4  10
HETATM   10  C   UNL     1      61.618   8.661   2.020  1.00  0.00     0.280 C 
BRANCH  10  11
HETATM   11  C   UNL     1      62.068   9.409   3.245  1.00  0.00     0.008 A 
HETATM   12  S   UNL     1      63.051   8.643   4.422  1.00  0.00    -0.105 SA
HETATM   13  C   UNL     1      63.238  10.098   5.300  1.00  0.00     0.050 A 
HETATM   14  C   UNL     1      62.516  11.132   4.748  1.00  0.00     0.008 A 
HETATM   15  C   UNL     1      61.816  10.727   3.577  1.00  0.00     0.017 A 
ENDBRANCH  10  11
ENDBRANCH   4  10
TORSDOF 2
ENDMDL
MODEL 8
REMARK VINA RESULT:      -3.7      4.469      5.943
REMARK  2 active torsions:
REMARK  status: ('A' for Active; 'I' for Inactive)
REMARK    1  A    between atoms: N_4  and  C_11 
REMARK    2  A    between atoms: C_8  and  C_11 
ROOT
HETATM    1  S   UNL     1      62.028   9.554   3.337  1.00  0.00     0.147 S 
HETATM    2  C   UNL     1      63.414   9.113   4.351  1.00  0.00     0.168 C 
HETATM    3  C   UNL     1      60.778   8.378   3.781  1.00  0.00     0.168 C 
HETATM    4  N   UNL     1      62.498   6.806   4.768  1.00  0.00    -0.065 N 
HETATM    5  O   UNL     1      61.572  10.863   3.767  1.00  0.00    -0.228 OA
HETATM    6  O   UNL     1      62.395   9.324   1.950  1.00  0.00    -0.228 OA
HETATM    7  C   UNL     1      61.350   6.974   3.865  1.00  0.00     0.250 C 
HETATM    8  C   UNL     1      63.644   7.614   4.339  1.00  0.00     0.250 C 
HETATM    9  H   UNL     1      62.771   5.826   4.683  1.00  0.00     0.280 HD
ENDROOT
BRANCH   4  10
HETATM   10  C   UNL     1      62.183   6.944   6.202  1.00  0.00     0.280 C 
BRANCH  10  11
HETATM   11  C   UNL     1      61.358   5.784   6.688  1.00  0.00     0.008 A 
HETATM   12  S   UNL     1      61.924   4.176   6.509  1.00  0.00    -0.105 SA
HETATM   13  C   UNL     1      60.605   3.548   7.397  1.00  0.00     0.050 A 
HETATM   14  C   UNL     1      59.716   4.532   7.768  1.00  0.00     0.008 A 
HETATM   15  C   UNL     1      60.136   5.820   7.333  1.00  0.00     0.017 A 
ENDBRANCH  10  11
ENDBRANCH   4  10
TORSDOF 2
ENDMDL
MODEL 9
REMARK VINA RESULT:      -3.5      2.047      2.266
REMARK  2 active torsions:
REMARK  status: ('A' for Active; 'I' for Inactive)
REMARK    1  A    between atoms: N_4  and  C_11 
REMARK    2  A    between atoms: C_8  and  C_11 
ROOT
HETATM    1  S   UNL     1      64.730   4.099   6.365  1.00  0.00     0.147 S 
HETATM    2  C   UNL     1      63.226   4.468   5.503  1.00  0.00     0.168 C 
HETATM    3  C   UNL     1      65.478   5.685   6.626  1.00  0.00     0.168 C 
HETATM    4  N   UNL     1      64.069   6.736   4.805  1.00  0.00    -0.065 N 
HETATM    5  O   UNL     1      64.369   3.565   7.664  1.00  0.00    -0.228 OA
HETATM    6  O   UNL     1      65.585   3.337   5.470  1.00  0.00    -0.228 OA
HETATM    7  C   UNL     1      65.411   6.537   5.371  1.00  0.00     0.250 C 
HETATM    8  C   UNL     1      63.467   5.466   4.385  1.00  0.00     0.250 C 
HETATM    9  H   UNL     1      64.207   7.296   3.964  1.00  0.00     0.280 HD
ENDROOT
BRANCH   4  10
HETATM   10  C   UNL     1      63.170   7.572   5.623  1.00  0.00     0.280 C 
BRANCH  10  11
HETATM   11  C   UNL     1      62.802   8.837   4.899  1.00  0.00     0.008 A 
HETATM   12  S   UNL     1      62.035   8.774   3.367  1.00  0.00    -0.105 SA
HETATM   13  C   UNL     1      61.824  10.471   3.335  1.00  0.00     0.050 A 
HETATM   14  C   UNL     1      62.381  11.082   4.435  1.00  0.00     0.008 A 
HETATM   15  C   UNL     1      62.972  10.141   5.325  1.00  0.00     0.017 A 
ENDBRANCH  10  11
ENDBRANCH   4  10
TORSDOF 2
ENDMDL
