MODEL 1
REMARK VINA RESULT:      -5.4      0.000      0.000
REMARK  2 active torsions:
REMARK  status: ('A' for Active; 'I' for Inactive)
REMARK    1  A    between atoms: N_4  and  C_9 
REMARK    2  A    between atoms: C_9  and  C_10 
ROOT
HETATM    1  S   UNL     1      66.642   6.574   7.318  1.00  0.00     0.147 S 
HETATM    2  C   UNL     1      65.070   5.838   6.954  1.00  0.00     0.168 C 
HETATM    3  C   UNL     1      66.555   8.149   6.512  1.00  0.00     0.168 C 
HETATM    4  N   UNL     1      64.718   7.341   4.971  1.00  0.00    -0.066 N 
HETATM    5  O   UNL     1      66.693   6.812   8.748  1.00  0.00    -0.228 OA
HETATM    6  O   UNL     1      67.673   5.784   6.669  1.00  0.00    -0.228 OA
HETATM    7  C   UNL     1      66.021   8.013   5.098  1.00  0.00     0.250 C 
HETATM    8  C   UNL     1      64.745   5.968   5.477  1.00  0.00     0.250 C 
HETATM    9  H   UNL     1      64.557   7.270   3.966  1.00  0.00     0.280 HD
ENDROOT
BRANCH   4  10
HETATM   10  C   UNL     1      63.562   8.130   5.433  1.00  0.00     0.273 C 
BRANCH  10  11
HETATM   11  C   UNL     1      62.903   8.885   4.297  1.00  0.00    -0.033 A 
HETATM   12  C   UNL     1      62.793   8.289   3.030  1.00  0.00     0.009 A 
HETATM   13  C   UNL     1      62.309   9.016   1.943  1.00  0.00     0.001 A 
HETATM   14  C   UNL     1      61.912  10.340   2.116  1.00  0.00     0.000 A 
HETATM   15  C   UNL     1      61.970  10.926   3.379  1.00  0.00     0.001 A 
HETATM   16  C   UNL     1      62.457  10.201   4.468  1.00  0.00     0.009 A 
ENDBRANCH  10  11
ENDBRANCH   4  10
TORSDOF 2
ENDMDL
MODEL 2
REMARK VINA RESULT:      -5.3      1.064      2.062
REMARK  2 active torsions:
REMARK  status: ('A' for Active; 'I' for Inactive)
REMARK    1  A    between atoms: N_4  and  C_9 
REMARK    2  A    between atoms: C_9  and  C_10 
ROOT
HETATM    1  S   UNL     1      67.147   5.472   7.012  1.00  0.00     0.147 S 
HETATM    2  C   UNL     1      67.596   6.947   6.135  1.00  0.00     0.168 C 
HETATM    3  C   UNL     1      65.403   5.339   6.727  1.00  0.00     0.168 C 
HETATM    4  N   UNL     1      65.233   7.801   6.169  1.00  0.00    -0.066 N 
HETATM    5  O   UNL     1      67.789   4.355   6.347  1.00  0.00    -0.228 OA
HETATM    6  O   UNL     1      67.362   5.705   8.429  1.00  0.00    -0.228 OA
HETATM    7  C   UNL     1      64.709   6.670   6.949  1.00  0.00     0.250 C 
HETATM    8  C   UNL     1      66.640   8.079   6.463  1.00  0.00     0.250 C 
HETATM    9  H   UNL     1      64.710   8.612   6.498  1.00  0.00     0.280 HD
ENDROOT
BRANCH   4  10
HETATM   10  C   UNL     1      64.915   7.768   4.730  1.00  0.00     0.273 C 
BRANCH  10  11
HETATM   11  C   UNL     1      63.776   8.703   4.382  1.00  0.00    -0.033 A 
HETATM   12  C   UNL     1      63.030   8.495   3.211  1.00  0.00     0.009 A 
HETATM   13  C   UNL     1      62.065   9.418   2.809  1.00  0.00     0.001 A 
HETATM   14  C   UNL     1      61.823  10.550   3.584  1.00  0.00     0.000 A 
HETATM   15  C   UNL     1      62.522  10.742   4.774  1.00  0.00     0.001 A 
HETATM   16  C   UNL     1      63.490   9.820   5.178  1.00  0.00     0.009 A 
ENDBRANCH  10  11
ENDBRANCH   4  10
TORSDOF 2
ENDMDL
MODEL 3
REMARK VINA RESULT:      -5.3      0.287      1.279
REMARK  2 active torsions:
REMARK  status: ('A' for Active; 'I' for Inactive)
REMARK    1  A    between atoms: N_4  and  C_9 
REMARK    2  A    between atoms: C_9  and  C_10 
ROOT
HETATM    1  S   UNL     1      66.337   6.407   7.266  1.00  0.00     0.147 S 
HETATM    2  C   UNL     1      64.781   5.753   6.722  1.00  0.00     0.168 C 
HETATM    3  C   UNL     1      66.374   8.028   6.552  1.00  0.00     0.168 C 
HETATM    4  N   UNL     1      64.657   7.379   4.811  1.00  0.00    -0.066 N 
HETATM    5  O   UNL     1      66.267   6.560   8.707  1.00  0.00    -0.228 OA
HETATM    6  O   UNL     1      67.396   5.618   6.664  1.00  0.00    -0.228 OA
HETATM    7  C   UNL     1      65.964   7.993   5.092  1.00  0.00     0.250 C 
HETATM    8  C   UNL     1      64.594   5.979   5.233  1.00  0.00     0.250 C 
HETATM    9  H   UNL     1      64.584   7.372   3.793  1.00  0.00     0.280 HD
ENDROOT
BRANCH   4  10
HETATM   10  C   UNL     1      63.490   8.182   5.217  1.00  0.00     0.273 C 
BRANCH  10  11
HETATM   11  C   UNL     1      62.956   9.020   4.073  1.00  0.00    -0.033 A 
HETATM   12  C   UNL     1      62.522  10.335   4.310  1.00  0.00     0.009 A 
HETATM   13  C   UNL     1      61.909  11.074   3.299  1.00  0.00     0.001 A 
HETATM   14  C   UNL     1      61.740  10.513   2.035  1.00  0.00     0.000 A 
HETATM   15  C   UNL     1      62.212   9.228   1.774  1.00  0.00     0.001 A 
HETATM   16  C   UNL     1      62.824   8.485   2.786  1.00  0.00     0.009 A 
ENDBRANCH  10  11
ENDBRANCH   4  10
TORSDOF 2
ENDMDL
MODEL 4
REMARK VINA RESULT:      -4.9      1.987      2.662
REMARK  2 active torsions:
REMARK  status: ('A' for Active; 'I' for Inactive)
REMARK    1  A    between atoms: N_4  and  C_9 
REMARK    2  A    between atoms: C_9  and  C_10 
ROOT
HETATM    1  S   UNL     1      64.648   4.143   6.342  1.00  0.00     0.147 S 
HETATM    2  C   UNL     1      65.837   5.449   6.499  1.00  0.00     0.168 C 
HETATM    3  C   UNL     1      63.282   4.926   5.529  1.00  0.00     0.168 C 
HETATM    4  N   UNL     1      64.069   7.218   6.257  1.00  0.00    -0.066 N 
HETATM    5  O   UNL     1      65.198   3.158   5.431  1.00  0.00    -0.228 OA
HETATM    6  O   UNL     1      64.225   3.754   7.675  1.00  0.00    -0.228 OA
HETATM    7  C   UNL     1      62.954   6.261   6.171  1.00  0.00     0.250 C 
HETATM    8  C   UNL     1      65.187   6.705   7.050  1.00  0.00     0.250 C 
HETATM    9  H   UNL     1      63.694   8.012   6.776  1.00  0.00     0.280 HD
ENDROOT
BRANCH   4  10
HETATM   10  C   UNL     1      64.470   7.826   4.975  1.00  0.00     0.273 C 
BRANCH  10  11
HETATM   11  C   UNL     1      63.503   8.906   4.536  1.00  0.00    -0.033 A 
HETATM   12  C   UNL     1      62.864   8.810   3.289  1.00  0.00     0.009 A 
HETATM   13  C   UNL     1      62.074   9.856   2.814  1.00  0.00     0.001 A 
HETATM   14  C   UNL     1      61.899  11.001   3.588  1.00  0.00     0.000 A 
HETATM   15  C   UNL     1      62.487  11.086   4.849  1.00  0.00     0.001 A 
HETATM   16  C   UNL     1      63.281  10.040   5.326  1.00  0.00     0.009 A 
ENDBRANCH  10  11
ENDBRANCH   4  10
TORSDOF 2
ENDMDL
MODEL 5
REMARK VINA RESULT:      -4.4      5.203      6.512
REMARK  2 active torsions:
REMARK  status: ('A' for Active; 'I' for Inactive)
REMARK    1  A    between atoms: N_4  and  C_9 
REMARK    2  A    between atoms: C_9  and  C_10 
ROOT
HETATM    1  S   UNL     1      58.898   5.399   1.793  1.00  0.00     0.147 S 
HETATM    2  C   UNL     1      59.726   6.053   3.218  1.00  0.00     0.168 C 
HETATM    3  C   UNL     1      59.416   6.476   0.485  1.00  0.00     0.168 C 
HETATM    4  N   UNL     1      60.026   8.298   2.131  1.00  0.00    -0.066 N 
HETATM    5  O   UNL     1      59.453   4.085   1.529  1.00  0.00    -0.228 OA
HETATM    6  O   UNL     1      57.469   5.565   1.984  1.00  0.00    -0.228 OA
HETATM    7  C   UNL     1      59.309   7.932   0.900  1.00  0.00     0.250 C 
HETATM    8  C   UNL     1      59.548   7.558   3.299  1.00  0.00     0.250 C 
HETATM    9  H   UNL     1      59.783   9.275   2.295  1.00  0.00     0.280 HD
ENDROOT
BRANCH   4  10
HETATM   10  C   UNL     1      61.495   8.343   2.007  1.00  0.00     0.273 C 
BRANCH  10  11
HETATM   11  C   UNL     1      62.128   9.168   3.108  1.00  0.00    -0.033 A 
HETATM   12  C   UNL     1      63.058   8.578   3.980  1.00  0.00     0.009 A 
HETATM   13  C   UNL     1      63.552   9.285   5.075  1.00  0.00     0.001 A 
HETATM   14  C   UNL     1      63.136  10.596   5.300  1.00  0.00     0.000 A 
HETATM   15  C   UNL     1      62.253  11.209   4.413  1.00  0.00     0.001 A 
HETATM   16  C   UNL     1      61.755  10.502   3.317  1.00  0.00     0.009 A 
ENDBRANCH  10  11
ENDBRANCH   4  10
TORSDOF 2
ENDMDL
MODEL 6
REMARK VINA RESULT:      -4.3      3.511      6.234
REMARK  2 active torsions:
REMARK  status: ('A' for Active; 'I' for Inactive)
REMARK    1  A    between atoms: N_4  and  C_9 
REMARK    2  A    between atoms: C_9  and  C_10 
ROOT
HETATM    1  S   UNL     1      62.298   7.177   3.797  1.00  0.00     0.147 S 
HETATM    2  C   UNL     1      62.933   5.955   4.915  1.00  0.00     0.168 C 
HETATM    3  C   UNL     1      63.573   8.407   3.765  1.00  0.00     0.168 C 
HETATM    4  N   UNL     1      64.503   7.604   5.977  1.00  0.00    -0.066 N 
HETATM    5  O   UNL     1      62.234   6.574   2.480  1.00  0.00    -0.228 OA
HETATM    6  O   UNL     1      61.112   7.763   4.393  1.00  0.00    -0.228 OA
HETATM    7  C   UNL     1      64.045   8.743   5.168  1.00  0.00     0.250 C 
HETATM    8  C   UNL     1      63.453   6.605   6.184  1.00  0.00     0.250 C 
HETATM    9  H   UNL     1      64.704   7.998   6.896  1.00  0.00     0.280 HD
ENDROOT
BRANCH   4  10
HETATM   10  C   UNL     1      65.802   7.035   5.575  1.00  0.00     0.273 C 
BRANCH  10  11
HETATM   11  C   UNL     1      66.535   6.415   6.747  1.00  0.00    -0.033 A 
HETATM   12  C   UNL     1      66.516   7.050   8.000  1.00  0.00     0.009 A 
HETATM   13  C   UNL     1      67.289   6.565   9.054  1.00  0.00     0.001 A 
HETATM   14  C   UNL     1      68.075   5.429   8.872  1.00  0.00     0.000 A 
HETATM   15  C   UNL     1      68.062   4.761   7.648  1.00  0.00     0.001 A 
HETATM   16  C   UNL     1      67.291   5.247   6.590  1.00  0.00     0.009 A 
ENDBRANCH  10  11
ENDBRANCH   4  10
TORSDOF 2
ENDMDL
MODEL 7
REMARK VINA RESULT:      -4.2      3.785      5.855
REMARK  2 active torsions:
REMARK  status: ('A' for Active; 'I' for Inactive)
REMARK    1  A    between atoms: N_4  and  C_9 
REMARK    2  A    between atoms: C_9  and  C_10 
ROOT
HETATM    1  S   UNL     1      61.814   8.794   2.969  1.00  0.00     0.147 S 
HETATM    2  C   UNL     1      62.930   7.440   3.230  1.00  0.00     0.168 C 
HETATM    3  C   UNL     1      62.458  10.066   4.021  1.00  0.00     0.168 C 
HETATM    4  N   UNL     1      63.695   8.371   5.435  1.00  0.00    -0.066 N 
HETATM    5  O   UNL     1      61.974   9.233   1.596  1.00  0.00    -0.228 OA
HETATM    6  O   UNL     1      60.507   8.405   3.467  1.00  0.00    -0.228 OA
HETATM    7  C   UNL     1      62.782   9.523   5.401  1.00  0.00     0.250 C 
HETATM    8  C   UNL     1      63.164   7.214   4.712  1.00  0.00     0.250 C 
HETATM    9  H   UNL     1      63.736   8.097   6.416  1.00  0.00     0.280 HD
ENDROOT
BRANCH   4  10
HETATM   10  C   UNL     1      65.102   8.680   5.122  1.00  0.00     0.273 C 
BRANCH  10  11
HETATM   11  C   UNL     1      66.041   7.603   5.624  1.00  0.00    -0.033 A 
HETATM   12  C   UNL     1      66.784   6.838   4.709  1.00  0.00     0.009 A 
HETATM   13  C   UNL     1      67.552   5.760   5.144  1.00  0.00     0.001 A 
HETATM   14  C   UNL     1      67.602   5.445   6.501  1.00  0.00     0.000 A 
HETATM   15  C   UNL     1      66.909   6.228   7.423  1.00  0.00     0.001 A 
HETATM   16  C   UNL     1      66.137   7.307   6.989  1.00  0.00     0.009 A 
ENDBRANCH  10  11
ENDBRANCH   4  10
TORSDOF 2
ENDMDL
MODEL 8
REMARK VINA RESULT:      -4.2      3.223      3.822
REMARK  2 active torsions:
REMARK  status: ('A' for Active; 'I' for Inactive)
REMARK    1  A    between atoms: N_4  and  C_9 
REMARK    2  A    between atoms: C_9  and  C_10 
ROOT
HETATM    1  S   UNL     1      62.203   3.955   5.877  1.00  0.00     0.147 S 
HETATM    2  C   UNL     1      61.204   5.400   6.123  1.00  0.00     0.168 C 
HETATM    3  C   UNL     1      63.448   4.504   4.742  1.00  0.00     0.168 C 
HETATM    4  N   UNL     1      62.000   6.433   3.975  1.00  0.00    -0.066 N 
HETATM    5  O   UNL     1      62.856   3.655   7.137  1.00  0.00    -0.228 OA
HETATM    6  O   UNL     1      61.391   2.950   5.215  1.00  0.00    -0.228 OA
HETATM    7  C   UNL     1      62.836   5.284   3.593  1.00  0.00     0.250 C 
HETATM    8  C   UNL     1      60.851   6.042   4.794  1.00  0.00     0.250 C 
HETATM    9  H   UNL     1      61.617   6.783   3.097  1.00  0.00     0.280 HD
ENDROOT
BRANCH   4  10
HETATM   10  C   UNL     1      62.741   7.597   4.496  1.00  0.00     0.273 C 
BRANCH  10  11
HETATM   11  C   UNL     1      62.502   8.837   3.660  1.00  0.00    -0.033 A 
HETATM   12  C   UNL     1      62.328  10.082   4.286  1.00  0.00     0.009 A 
HETATM   13  C   UNL     1      61.980  11.209   3.542  1.00  0.00     0.001 A 
HETATM   14  C   UNL     1      61.819  11.106   2.162  1.00  0.00     0.000 A 
HETATM   15  C   UNL     1      62.038   9.887   1.523  1.00  0.00     0.001 A 
HETATM   16  C   UNL     1      62.385   8.757   2.266  1.00  0.00     0.009 A 
ENDBRANCH  10  11
ENDBRANCH   4  10
TORSDOF 2
ENDMDL
MODEL 9
REMARK VINA RESULT:      -4.1      6.072      7.301
REMARK  2 active torsions:
REMARK  status: ('A' for Active; 'I' for Inactive)
REMARK    1  A    between atoms: N_4  and  C_9 
REMARK    2  A    between atoms: C_9  and  C_10 
ROOT
HETATM    1  S   UNL     1      57.368   6.057   1.299  1.00  0.00     0.147 S 
HETATM    2  C   UNL     1      57.776   6.287   3.009  1.00  0.00     0.168 C 
HETATM    3  C   UNL     1      58.791   6.682   0.448  1.00  0.00     0.168 C 
HETATM    4  N   UNL     1      59.486   8.046   2.463  1.00  0.00    -0.066 N 
HETATM    5  O   UNL     1      57.299   4.629   1.054  1.00  0.00    -0.228 OA
HETATM    6  O   UNL     1      56.236   6.910   0.985  1.00  0.00    -0.228 OA
HETATM    7  C   UNL     1      59.224   8.021   1.016  1.00  0.00     0.250 C 
HETATM    8  C   UNL     1      58.306   7.689   3.252  1.00  0.00     0.250 C 
HETATM    9  H   UNL     1      59.684   9.023   2.677  1.00  0.00     0.280 HD
ENDROOT
BRANCH   4  10
HETATM   10  C   UNL     1      60.721   7.361   2.886  1.00  0.00     0.273 C 
BRANCH  10  11
HETATM   11  C   UNL     1      61.668   8.298   3.606  1.00  0.00    -0.033 A 
HETATM   12  C   UNL     1      62.710   7.777   4.390  1.00  0.00     0.009 A 
HETATM   13  C   UNL     1      63.509   8.619   5.162  1.00  0.00     0.001 A 
HETATM   14  C   UNL     1      63.286   9.994   5.144  1.00  0.00     0.000 A 
HETATM   15  C   UNL     1      62.288  10.528   4.332  1.00  0.00     0.001 A 
HETATM   16  C   UNL     1      61.485   9.686   3.559  1.00  0.00     0.009 A 
ENDBRANCH  10  11
ENDBRANCH   4  10
TORSDOF 2
ENDMDL
