MODEL 1
REMARK VINA RESULT:      -4.3      0.000      0.000
REMARK  1 active torsions:
REMARK  status: ('A' for Active; 'I' for Inactive)
REMARK    1  A    between atoms: N_5  and  C_11 
ROOT
HETATM    1  C   UNL     1      61.997  10.480   2.310  1.00  0.00    -0.090 C 
HETATM    2  C   UNL     1      61.740  11.713   1.972  1.00  0.00     0.013 C 
HETATM    3  C   UNL     1      62.298   9.043   2.704  1.00  0.00     0.327 C 
ENDROOT
BRANCH   3   4
HETATM    4  N   UNL     1      61.983   8.899   4.140  1.00  0.00    -0.059 N 
HETATM    5  C   UNL     1      61.732   7.525   4.606  1.00  0.00     0.250 C 
HETATM    6  C   UNL     1      62.930   6.606   4.623  1.00  0.00     0.168 C 
HETATM    7  S   UNL     1      64.278   7.296   5.545  1.00  0.00     0.147 S 
HETATM    8  C   UNL     1      64.295   9.027   5.117  1.00  0.00     0.168 C 
HETATM    9  O   UNL     1      65.505   6.720   5.021  1.00  0.00    -0.228 OA
HETATM   10  O   UNL     1      63.962   7.194   6.952  1.00  0.00    -0.228 OA
HETATM   11  C   UNL     1      62.897   9.601   5.041  1.00  0.00     0.250 C 
HETATM   12  H   UNL     1      61.085   9.377   4.193  1.00  0.00     0.281 HD
ENDBRANCH   3   4
TORSDOF 1
ENDMDL
MODEL 2
REMARK VINA RESULT:      -4.0      1.179      1.945
REMARK  1 active torsions:
REMARK  status: ('A' for Active; 'I' for Inactive)
REMARK    1  A    between atoms: N_5  and  C_11 
ROOT
HETATM    1  C   UNL     1      61.995  10.630   3.136  1.00  0.00    -0.090 C 
HETATM    2  C   UNL     1      61.799  11.375   2.083  1.00  0.00     0.013 C 
HETATM    3  C   UNL     1      62.221   9.763   4.363  1.00  0.00     0.327 C 
ENDROOT
BRANCH   3   4
HETATM    4  N   UNL     1      62.387   8.370   3.901  1.00  0.00    -0.059 N 
HETATM    5  C   UNL     1      63.767   7.953   3.600  1.00  0.00     0.250 C 
HETATM    6  C   UNL     1      64.690   7.827   4.788  1.00  0.00     0.168 C 
HETATM    7  S   UNL     1      64.019   6.760   6.035  1.00  0.00     0.147 S 
HETATM    8  C   UNL     1      62.282   7.156   6.100  1.00  0.00     0.168 C 
HETATM    9  O   UNL     1      64.592   7.164   7.308  1.00  0.00    -0.228 OA
HETATM   10  O   UNL     1      64.142   5.395   5.575  1.00  0.00    -0.228 OA
HETATM   11  C   UNL     1      61.702   7.368   4.718  1.00  0.00     0.250 C 
HETATM   12  H   UNL     1      61.906   8.402   3.003  1.00  0.00     0.281 HD
ENDBRANCH   3   4
TORSDOF 1
ENDMDL
MODEL 3
REMARK VINA RESULT:      -4.0      4.574      6.500
REMARK  1 active torsions:
REMARK  status: ('A' for Active; 'I' for Inactive)
REMARK    1  A    between atoms: N_5  and  C_11 
ROOT
HETATM    1  C   UNL     1      67.965   4.334   7.723  1.00  0.00    -0.090 C 
HETATM    2  C   UNL     1      68.075   3.689   8.852  1.00  0.00     0.013 C 
HETATM    3  C   UNL     1      67.836   5.085   6.409  1.00  0.00     0.327 C 
ENDROOT
BRANCH   3   4
HETATM    4  N   UNL     1      67.830   6.529   6.718  1.00  0.00    -0.059 N 
HETATM    5  C   UNL     1      67.971   7.433   5.564  1.00  0.00     0.250 C 
HETATM    6  C   UNL     1      66.796   7.478   4.616  1.00  0.00     0.168 C 
HETATM    7  S   UNL     1      65.281   7.844   5.460  1.00  0.00     0.147 S 
HETATM    8  C   UNL     1      65.360   6.917   6.980  1.00  0.00     0.168 C 
HETATM    9  O   UNL     1      64.197   7.277   4.675  1.00  0.00    -0.228 OA
HETATM   10  O   UNL     1      65.282   9.249   5.801  1.00  0.00    -0.228 OA
HETATM   11  C   UNL     1      66.742   6.963   7.595  1.00  0.00     0.250 C 
HETATM   12  H   UNL     1      68.696   6.620   7.248  1.00  0.00     0.281 HD
ENDBRANCH   3   4
TORSDOF 1
ENDMDL
MODEL 4
REMARK VINA RESULT:      -3.8      3.237      3.978
REMARK  1 active torsions:
REMARK  status: ('A' for Active; 'I' for Inactive)
REMARK    1  A    between atoms: N_5  and  C_11 
ROOT
HETATM    1  C   UNL     1      64.318   8.499   4.551  1.00  0.00    -0.090 C 
HETATM    2  C   UNL     1      63.182   8.938   4.084  1.00  0.00     0.013 C 
HETATM    3  C   UNL     1      65.642   7.988   5.094  1.00  0.00     0.327 C 
ENDROOT
BRANCH   3   4
HETATM    4  N   UNL     1      65.446   7.669   6.522  1.00  0.00    -0.059 N 
HETATM    5  C   UNL     1      64.471   6.605   6.814  1.00  0.00     0.250 C 
HETATM    6  C   UNL     1      64.876   5.210   6.403  1.00  0.00     0.168 C 
HETATM    7  S   UNL     1      66.451   4.755   7.077  1.00  0.00     0.147 S 
HETATM    8  C   UNL     1      67.458   6.219   6.934  1.00  0.00     0.168 C 
HETATM    9  O   UNL     1      67.031   3.756   6.195  1.00  0.00    -0.228 OA
HETATM   10  O   UNL     1      66.276   4.477   8.485  1.00  0.00    -0.228 OA
HETATM   11  C   UNL     1      66.681   7.471   7.281  1.00  0.00     0.250 C 
HETATM   12  H   UNL     1      65.023   8.532   6.860  1.00  0.00     0.281 HD
ENDBRANCH   3   4
TORSDOF 1
ENDMDL
MODEL 5
REMARK VINA RESULT:      -3.7      4.077      5.718
REMARK  1 active torsions:
REMARK  status: ('A' for Active; 'I' for Inactive)
REMARK    1  A    between atoms: N_5  and  C_11 
ROOT
HETATM    1  C   UNL     1      67.483   3.862   3.763  1.00  0.00    -0.090 C 
HETATM    2  C   UNL     1      67.527   3.183   2.650  1.00  0.00     0.013 C 
HETATM    3  C   UNL     1      67.433   4.652   5.060  1.00  0.00     0.327 C 
ENDROOT
BRANCH   3   4
HETATM    4  N   UNL     1      67.533   6.084   4.714  1.00  0.00    -0.059 N 
HETATM    5  C   UNL     1      66.432   6.627   3.901  1.00  0.00     0.250 C 
HETATM    6  C   UNL     1      65.094   6.734   4.593  1.00  0.00     0.168 C 
HETATM    7  S   UNL     1      65.205   7.649   6.106  1.00  0.00     0.147 S 
HETATM    8  C   UNL     1      66.730   7.117   6.860  1.00  0.00     0.168 C 
HETATM    9  O   UNL     1      64.126   7.196   6.970  1.00  0.00    -0.228 OA
HETATM   10  O   UNL     1      65.342   9.050   5.778  1.00  0.00    -0.228 OA
HETATM   11  C   UNL     1      67.838   6.967   5.841  1.00  0.00     0.250 C 
HETATM   12  H   UNL     1      68.351   6.083   4.106  1.00  0.00     0.281 HD
ENDBRANCH   3   4
TORSDOF 1
ENDMDL
MODEL 6
REMARK VINA RESULT:      -3.6      1.968      2.837
REMARK  1 active torsions:
REMARK  status: ('A' for Active; 'I' for Inactive)
REMARK    1  A    between atoms: N_5  and  C_11 
ROOT
HETATM    1  C   UNL     1      60.604   7.583   1.504  1.00  0.00    -0.090 C 
HETATM    2  C   UNL     1      59.791   8.167   0.668  1.00  0.00     0.013 C 
HETATM    3  C   UNL     1      61.552   6.902   2.477  1.00  0.00     0.327 C 
ENDROOT
BRANCH   3   4
HETATM    4  N   UNL     1      62.799   7.692   2.513  1.00  0.00    -0.059 N 
HETATM    5  C   UNL     1      62.670   9.074   3.005  1.00  0.00     0.250 C 
HETATM    6  C   UNL     1      62.358   9.223   4.475  1.00  0.00     0.168 C 
HETATM    7  S   UNL     1      63.521   8.351   5.488  1.00  0.00     0.147 S 
HETATM    8  C   UNL     1      63.821   6.815   4.635  1.00  0.00     0.168 C 
HETATM    9  O   UNL     1      62.851   8.017   6.734  1.00  0.00    -0.228 OA
HETATM   10  O   UNL     1      64.759   9.097   5.498  1.00  0.00    -0.228 OA
HETATM   11  C   UNL     1      63.935   7.016   3.139  1.00  0.00     0.250 C 
HETATM   12  H   UNL     1      63.010   7.772   1.519  1.00  0.00     0.281 HD
ENDBRANCH   3   4
TORSDOF 1
ENDMDL
MODEL 7
REMARK VINA RESULT:      -3.6      1.708      2.176
REMARK  1 active torsions:
REMARK  status: ('A' for Active; 'I' for Inactive)
REMARK    1  A    between atoms: N_5  and  C_11 
ROOT
HETATM    1  C   UNL     1      61.428   8.260   1.327  1.00  0.00    -0.090 C 
HETATM    2  C   UNL     1      60.344   8.198   0.605  1.00  0.00     0.013 C 
HETATM    3  C   UNL     1      62.691   8.335   2.169  1.00  0.00     0.327 C 
ENDROOT
BRANCH   3   4
HETATM    4  N   UNL     1      62.568   7.334   3.249  1.00  0.00    -0.059 N 
HETATM    5  C   UNL     1      63.769   6.526   3.514  1.00  0.00     0.250 C 
HETATM    6  C   UNL     1      64.937   7.262   4.125  1.00  0.00     0.168 C 
HETATM    7  S   UNL     1      64.474   8.118   5.607  1.00  0.00     0.147 S 
HETATM    8  C   UNL     1      62.868   8.811   5.260  1.00  0.00     0.168 C 
HETATM    9  O   UNL     1      65.390   9.236   5.768  1.00  0.00    -0.228 OA
HETATM   10  O   UNL     1      64.313   7.143   6.661  1.00  0.00    -0.228 OA
HETATM   11  C   UNL     1      61.992   7.844   4.493  1.00  0.00     0.250 C 
HETATM   12  H   UNL     1      61.886   6.693   2.845  1.00  0.00     0.281 HD
ENDBRANCH   3   4
TORSDOF 1
ENDMDL
MODEL 8
REMARK VINA RESULT:      -3.5      2.686      3.898
REMARK  1 active torsions:
REMARK  status: ('A' for Active; 'I' for Inactive)
REMARK    1  A    between atoms: N_5  and  C_11 
ROOT
HETATM    1  C   UNL     1      63.120   8.993   5.266  1.00  0.00    -0.090 C 
HETATM    2  C   UNL     1      62.823  10.129   4.699  1.00  0.00     0.013 C 
HETATM    3  C   UNL     1      63.464   7.668   5.927  1.00  0.00     0.327 C 
ENDROOT
BRANCH   3   4
HETATM    4  N   UNL     1      64.661   7.129   5.249  1.00  0.00    -0.059 N 
HETATM    5  C   UNL     1      65.846   8.003   5.248  1.00  0.00     0.250 C 
HETATM    6  C   UNL     1      66.513   8.210   6.586  1.00  0.00     0.168 C 
HETATM    7  S   UNL     1      66.926   6.671   7.362  1.00  0.00     0.147 S 
HETATM    8  C   UNL     1      65.536   5.601   7.043  1.00  0.00     0.168 C 
HETATM    9  O   UNL     1      66.960   6.901   8.797  1.00  0.00    -0.228 OA
HETATM   10  O   UNL     1      68.074   6.115   6.681  1.00  0.00    -0.228 OA
HETATM   11  C   UNL     1      65.017   5.762   5.630  1.00  0.00     0.250 C 
HETATM   12  H   UNL     1      64.340   7.096   4.282  1.00  0.00     0.281 HD
ENDBRANCH   3   4
TORSDOF 1
ENDMDL
MODEL 9
REMARK VINA RESULT:      -3.5      3.109      4.288
REMARK  1 active torsions:
REMARK  status: ('A' for Active; 'I' for Inactive)
REMARK    1  A    between atoms: N_5  and  C_11 
ROOT
HETATM    1  C   UNL     1      61.352   6.193   6.598  1.00  0.00    -0.090 C 
HETATM    2  C   UNL     1      60.418   5.360   6.963  1.00  0.00     0.013 C 
HETATM    3  C   UNL     1      62.441   7.165   6.173  1.00  0.00     0.327 C 
ENDROOT
BRANCH   3   4
HETATM    4  N   UNL     1      63.514   6.380   5.529  1.00  0.00    -0.059 N 
HETATM    5  C   UNL     1      64.241   7.058   4.443  1.00  0.00     0.250 C 
HETATM    6  C   UNL     1      65.127   8.207   4.861  1.00  0.00     0.168 C 
HETATM    7  S   UNL     1      66.278   7.729   6.121  1.00  0.00     0.147 S 
HETATM    8  C   UNL     1      65.352   6.671   7.218  1.00  0.00     0.168 C 
HETATM    9  O   UNL     1      66.620   8.924   6.875  1.00  0.00    -0.228 OA
HETATM   10  O   UNL     1      67.312   6.927   5.507  1.00  0.00    -0.228 OA
HETATM   11  C   UNL     1      64.440   5.733   6.458  1.00  0.00     0.250 C 
HETATM   12  H   UNL     1      62.974   5.641   5.081  1.00  0.00     0.281 HD
ENDBRANCH   3   4
TORSDOF 1
ENDMDL
