MODEL 1
REMARK VINA RESULT:      -4.6      0.000      0.000
REMARK  2 active torsions:
REMARK  status: ('A' for Active; 'I' for Inactive)
REMARK    1  A    between atoms: C_3  and  O_10 
REMARK    2  A    between atoms: C_8  and  O_11 
ROOT
HETATM    1  C   UNL     1      63.143   9.695   4.576  1.00  0.00     0.080 A 
HETATM    2  C   UNL     1      62.325   8.907   2.448  1.00  0.00     0.065 A 
HETATM    3  C   UNL     1      62.348   9.893   3.438  1.00  0.00     0.090 A 
HETATM    4  N   UNL     1      63.274  11.436   6.501  1.00  0.00    -0.191 NA
HETATM    5  C   UNL     1      63.196  10.676   5.627  1.00  0.00     0.102 C 
HETATM    6  C   UNL     1      63.060   7.727   2.608  1.00  0.00     0.070 A 
HETATM    7  C   UNL     1      63.902   8.518   4.720  1.00  0.00     0.064 A 
HETATM    8  C   UNL     1      63.852   7.518   3.746  1.00  0.00     0.091 A 
HETATM    9 CL   UNL     1      62.945   6.533   1.358  1.00  0.00    -0.081 Cl
ENDROOT
BRANCH   3  10
HETATM   10  O   UNL     1      61.628  11.057   3.386  1.00  0.00    -0.354 OA
HETATM   11  C   UNL     1      61.704  11.831   2.193  1.00  0.00     0.210 C 
ENDBRANCH   3  10
BRANCH   8  12
HETATM   12  O   UNL     1      64.518   6.323   3.822  1.00  0.00    -0.354 OA
HETATM   13  C   UNL     1      65.941   6.347   3.820  1.00  0.00     0.210 C 
ENDBRANCH   8  12
TORSDOF 2
ENDMDL
MODEL 2
REMARK VINA RESULT:      -4.5      2.084      2.467
REMARK  2 active torsions:
REMARK  status: ('A' for Active; 'I' for Inactive)
REMARK    1  A    between atoms: C_3  and  O_10 
REMARK    2  A    between atoms: C_8  and  O_11 
ROOT
HETATM    1  C   UNL     1      62.841   9.509   4.021  1.00  0.00     0.080 A 
HETATM    2  C   UNL     1      63.151   7.234   3.281  1.00  0.00     0.065 A 
HETATM    3  C   UNL     1      62.562   8.488   3.100  1.00  0.00     0.090 A 
HETATM    4  N   UNL     1      61.808  11.885   3.818  1.00  0.00    -0.191 NA
HETATM    5  C   UNL     1      62.254  10.816   3.885  1.00  0.00     0.102 C 
HETATM    6  C   UNL     1      63.980   6.994   4.382  1.00  0.00     0.070 A 
HETATM    7  C   UNL     1      63.697   9.271   5.113  1.00  0.00     0.064 A 
HETATM    8  C   UNL     1      64.259   8.006   5.311  1.00  0.00     0.091 A 
HETATM    9 CL   UNL     1      64.637   5.401   4.561  1.00  0.00    -0.081 Cl
ENDROOT
BRANCH   3  10
HETATM   10  O   UNL     1      61.705   8.799   2.078  1.00  0.00    -0.354 OA
HETATM   11  C   UNL     1      62.232   8.824   0.756  1.00  0.00     0.210 C 
ENDBRANCH   3  10
BRANCH   8  12
HETATM   12  O   UNL     1      65.064   7.670   6.367  1.00  0.00    -0.354 OA
HETATM   13  C   UNL     1      66.426   8.084   6.330  1.00  0.00     0.210 C 
ENDBRANCH   8  12
TORSDOF 2
ENDMDL
MODEL 3
REMARK VINA RESULT:      -4.5      1.934      3.453
REMARK  2 active torsions:
REMARK  status: ('A' for Active; 'I' for Inactive)
REMARK    1  A    between atoms: C_3  and  O_10 
REMARK    2  A    between atoms: C_8  and  O_11 
ROOT
HETATM    1  C   UNL     1      63.553   9.260   4.777  1.00  0.00     0.080 A 
HETATM    2  C   UNL     1      64.882   7.324   4.226  1.00  0.00     0.065 A 
HETATM    3  C   UNL     1      64.672   8.451   5.024  1.00  0.00     0.090 A 
HETATM    4  N   UNL     1      63.044  11.393   6.172  1.00  0.00    -0.191 NA
HETATM    5  C   UNL     1      63.295  10.436   5.565  1.00  0.00     0.102 C 
HETATM    6  C   UNL     1      64.005   7.027   3.177  1.00  0.00     0.070 A 
HETATM    7  C   UNL     1      62.659   8.942   3.738  1.00  0.00     0.064 A 
HETATM    8  C   UNL     1      62.888   7.833   2.919  1.00  0.00     0.091 A 
HETATM    9 CL   UNL     1      64.358   5.637   2.205  1.00  0.00    -0.081 Cl
ENDROOT
BRANCH   3  10
HETATM   10  O   UNL     1      65.501   8.843   6.042  1.00  0.00    -0.354 OA
HETATM   11  C   UNL     1      66.612   8.009   6.350  1.00  0.00     0.210 C 
ENDBRANCH   3  10
BRANCH   8  12
HETATM   12  O   UNL     1      62.100   7.473   1.858  1.00  0.00    -0.354 OA
HETATM   13  C   UNL     1      62.058   8.339   0.728  1.00  0.00     0.210 C 
ENDBRANCH   8  12
TORSDOF 2
ENDMDL
MODEL 4
REMARK VINA RESULT:      -4.4      3.349      3.996
REMARK  2 active torsions:
REMARK  status: ('A' for Active; 'I' for Inactive)
REMARK    1  A    between atoms: C_3  and  O_10 
REMARK    2  A    between atoms: C_8  and  O_11 
ROOT
HETATM    1  C   UNL     1      63.728   7.259   3.172  1.00  0.00     0.080 A 
HETATM    2  C   UNL     1      62.444   9.219   3.749  1.00  0.00     0.065 A 
HETATM    3  C   UNL     1      62.626   8.095   2.939  1.00  0.00     0.090 A 
HETATM    4  N   UNL     1      64.198   5.144   1.739  1.00  0.00    -0.191 NA
HETATM    5  C   UNL     1      63.965   6.094   2.363  1.00  0.00     0.102 C 
HETATM    6  C   UNL     1      63.368   9.522   4.755  1.00  0.00     0.070 A 
HETATM    7  C   UNL     1      64.640   7.554   4.203  1.00  0.00     0.064 A 
HETATM    8  C   UNL     1      64.477   8.697   4.991  1.00  0.00     0.091 A 
HETATM    9 CL   UNL     1      63.098  10.957   5.687  1.00  0.00    -0.081 Cl
ENDROOT
BRANCH   3  10
HETATM   10  O   UNL     1      61.798   7.745   1.905  1.00  0.00    -0.354 OA
HETATM   11  C   UNL     1      61.457   8.753   0.960  1.00  0.00     0.210 C 
ENDBRANCH   3  10
BRANCH   8  12
HETATM   12  O   UNL     1      65.336   9.087   5.983  1.00  0.00    -0.354 OA
HETATM   13  C   UNL     1      66.378   8.193   6.359  1.00  0.00     0.210 C 
ENDBRANCH   8  12
TORSDOF 2
ENDMDL
MODEL 5
REMARK VINA RESULT:      -4.2      2.152      2.823
REMARK  2 active torsions:
REMARK  status: ('A' for Active; 'I' for Inactive)
REMARK    1  A    between atoms: C_3  and  O_10 
REMARK    2  A    between atoms: C_8  and  O_11 
ROOT
HETATM    1  C   UNL     1      64.103   8.024   4.663  1.00  0.00     0.080 A 
HETATM    2  C   UNL     1      62.559   9.436   3.463  1.00  0.00     0.065 A 
HETATM    3  C   UNL     1      63.333   9.194   4.601  1.00  0.00     0.090 A 
HETATM    4  N   UNL     1      65.580   7.438   6.720  1.00  0.00    -0.191 NA
HETATM    5  C   UNL     1      64.911   7.724   5.815  1.00  0.00     0.102 C 
HETATM    6  C   UNL     1      62.530   8.507   2.417  1.00  0.00     0.070 A 
HETATM    7  C   UNL     1      64.092   7.106   3.597  1.00  0.00     0.064 A 
HETATM    8  C   UNL     1      63.292   7.332   2.473  1.00  0.00     0.091 A 
HETATM    9 CL   UNL     1      61.512   8.857   1.060  1.00  0.00    -0.081 Cl
ENDROOT
BRANCH   3  10
HETATM   10  O   UNL     1      63.388  10.025   5.689  1.00  0.00    -0.354 OA
HETATM   11  C   UNL     1      62.758  11.297   5.584  1.00  0.00     0.210 C 
ENDBRANCH   3  10
BRANCH   8  12
HETATM   12  O   UNL     1      63.182   6.475   1.411  1.00  0.00    -0.354 OA
HETATM   13  C   UNL     1      62.361   5.321   1.561  1.00  0.00     0.210 C 
ENDBRANCH   8  12
TORSDOF 2
ENDMDL
MODEL 6
REMARK VINA RESULT:      -4.1      2.748      4.217
REMARK  2 active torsions:
REMARK  status: ('A' for Active; 'I' for Inactive)
REMARK    1  A    between atoms: C_3  and  O_10 
REMARK    2  A    between atoms: C_8  and  O_11 
ROOT
HETATM    1  C   UNL     1      62.070   7.857   4.599  1.00  0.00     0.080 A 
HETATM    2  C   UNL     1      60.408   7.162   2.994  1.00  0.00     0.065 A 
HETATM    3  C   UNL     1      61.067   6.957   4.209  1.00  0.00     0.090 A 
HETATM    4  N   UNL     1      63.387   7.594   6.823  1.00  0.00    -0.191 NA
HETATM    5  C   UNL     1      62.784   7.687   5.836  1.00  0.00     0.102 C 
HETATM    6  C   UNL     1      60.767   8.232   2.166  1.00  0.00     0.070 A 
HETATM    7  C   UNL     1      62.410   8.947   3.774  1.00  0.00     0.064 A 
HETATM    8  C   UNL     1      61.773   9.132   2.544  1.00  0.00     0.091 A 
HETATM    9 CL   UNL     1      59.934   8.393   0.656  1.00  0.00    -0.081 Cl
ENDROOT
BRANCH   3  10
HETATM   10  O   UNL     1      60.812   5.915   5.061  1.00  0.00    -0.354 OA
HETATM   11  C   UNL     1      59.519   5.844   5.651  1.00  0.00     0.210 C 
ENDBRANCH   3  10
BRANCH   8  12
HETATM   12  O   UNL     1      62.069  10.134   1.658  1.00  0.00    -0.354 OA
HETATM   13  C   UNL     1      61.796  11.476   2.048  1.00  0.00     0.210 C 
ENDBRANCH   8  12
TORSDOF 2
ENDMDL
MODEL 7
REMARK VINA RESULT:      -4.1      1.871      4.244
REMARK  2 active torsions:
REMARK  status: ('A' for Active; 'I' for Inactive)
REMARK    1  A    between atoms: C_3  and  O_10 
REMARK    2  A    between atoms: C_8  and  O_11 
ROOT
HETATM    1  C   UNL     1      63.717   7.538   5.122  1.00  0.00     0.080 A 
HETATM    2  C   UNL     1      63.418   7.315   2.739  1.00  0.00     0.065 A 
HETATM    3  C   UNL     1      64.013   6.873   3.923  1.00  0.00     0.090 A 
HETATM    4  N   UNL     1      64.758   6.835   7.397  1.00  0.00    -0.191 NA
HETATM    5  C   UNL     1      64.309   7.128   6.368  1.00  0.00     0.102 C 
HETATM    6  C   UNL     1      62.566   8.425   2.747  1.00  0.00     0.070 A 
HETATM    7  C   UNL     1      62.838   8.638   5.129  1.00  0.00     0.064 A 
HETATM    8  C   UNL     1      62.269   9.100   3.939  1.00  0.00     0.091 A 
HETATM    9 CL   UNL     1      61.902   8.939   1.232  1.00  0.00    -0.081 Cl
ENDROOT
BRANCH   3  10
HETATM   10  O   UNL     1      64.892   5.826   4.003  1.00  0.00    -0.354 OA
HETATM   11  C   UNL     1      66.213   6.030   3.513  1.00  0.00     0.210 C 
ENDBRANCH   3  10
BRANCH   8  12
HETATM   12  O   UNL     1      61.442  10.187   3.843  1.00  0.00    -0.354 OA
HETATM   13  C   UNL     1      62.012  11.481   4.005  1.00  0.00     0.210 C 
ENDBRANCH   8  12
TORSDOF 2
ENDMDL
MODEL 8
REMARK VINA RESULT:      -3.9      1.923      2.310
REMARK  2 active torsions:
REMARK  status: ('A' for Active; 'I' for Inactive)
REMARK    1  A    between atoms: C_3  and  O_10 
REMARK    2  A    between atoms: C_8  and  O_11 
ROOT
HETATM    1  C   UNL     1      62.864   8.749   3.545  1.00  0.00     0.080 A 
HETATM    2  C   UNL     1      61.397   9.102   1.663  1.00  0.00     0.065 A 
HETATM    3  C   UNL     1      62.167   9.628   2.703  1.00  0.00     0.090 A 
HETATM    4  N   UNL     1      64.324   9.583   5.525  1.00  0.00    -0.191 NA
HETATM    5  C   UNL     1      63.665   9.238   4.635  1.00  0.00     0.102 C 
HETATM    6  C   UNL     1      61.297   7.718   1.487  1.00  0.00     0.070 A 
HETATM    7  C   UNL     1      62.781   7.357   3.347  1.00  0.00     0.064 A 
HETATM    8  C   UNL     1      61.983   6.831   2.328  1.00  0.00     0.091 A 
HETATM    9 CL   UNL     1      60.287   7.142   0.202  1.00  0.00    -0.081 Cl
ENDROOT
BRANCH   3  10
HETATM   10  O   UNL     1      62.288  10.965   2.976  1.00  0.00    -0.354 OA
HETATM   11  C   UNL     1      61.723  11.884   2.048  1.00  0.00     0.210 C 
ENDBRANCH   3  10
BRANCH   8  12
HETATM   12  O   UNL     1      61.807   5.494   2.090  1.00  0.00    -0.354 OA
HETATM   13  C   UNL     1      61.727   4.618   3.209  1.00  0.00     0.210 C 
ENDBRANCH   8  12
TORSDOF 2
ENDMDL
MODEL 9
REMARK VINA RESULT:      -3.9      3.519      4.223
REMARK  2 active torsions:
REMARK  status: ('A' for Active; 'I' for Inactive)
REMARK    1  A    between atoms: C_3  and  O_10 
REMARK    2  A    between atoms: C_8  and  O_11 
ROOT
HETATM    1  C   UNL     1      63.708   7.067   6.155  1.00  0.00     0.080 A 
HETATM    2  C   UNL     1      65.367   8.300   4.912  1.00  0.00     0.065 A 
HETATM    3  C   UNL     1      64.024   8.019   5.175  1.00  0.00     0.090 A 
HETATM    4  N   UNL     1      61.257   6.435   6.741  1.00  0.00    -0.191 NA
HETATM    5  C   UNL     1      62.342   6.735   6.459  1.00  0.00     0.102 C 
HETATM    6  C   UNL     1      66.380   7.617   5.594  1.00  0.00     0.070 A 
HETATM    7  C   UNL     1      64.730   6.401   6.858  1.00  0.00     0.064 A 
HETATM    8  C   UNL     1      66.074   6.658   6.570  1.00  0.00     0.091 A 
HETATM    9 CL   UNL     1      68.020   7.989   5.180  1.00  0.00    -0.081 Cl
ENDROOT
BRANCH   3  10
HETATM   10  O   UNL     1      62.970   8.606   4.527  1.00  0.00    -0.354 OA
HETATM   11  C   UNL     1      62.905   8.472   3.111  1.00  0.00     0.210 C 
ENDBRANCH   3  10
BRANCH   8  12
HETATM   12  O   UNL     1      67.132   6.028   7.168  1.00  0.00    -0.354 OA
HETATM   13  C   UNL     1      67.363   6.272   8.552  1.00  0.00     0.210 C 
ENDBRANCH   8  12
TORSDOF 2
ENDMDL
