MODEL 1
REMARK VINA RESULT:      -6.5      0.000      0.000
REMARK  3 active torsions:
REMARK  status: ('A' for Active; 'I' for Inactive)
REMARK    1  A    between atoms: C_1  and  C_2 
REMARK    2  A    between atoms: C_2  and  C_5 
REMARK    3  A    between atoms: C_3  and  C_4 
ROOT
HETATM    1  C   UNL     1      64.288   6.750   3.888  1.00  0.00     0.032 A 
HETATM    2  C   UNL     1      65.381   7.001   4.731  1.00  0.00     0.054 A 
HETATM    3  C   UNL     1      64.459   5.878   2.797  1.00  0.00     0.016 A 
HETATM    4  C   UNL     1      66.574   6.277   4.543  1.00  0.00     0.019 A 
HETATM    5  C   UNL     1      65.639   5.154   2.628  1.00  0.00     0.001 A 
HETATM    6  C   UNL     1      66.691   5.342   3.517  1.00  0.00     0.001 A 
ENDROOT
BRANCH   1   7
HETATM    7  C   UNL     1      62.956   7.392   4.064  1.00  0.00     0.193 C 
HETATM    8  O   UNL     1      62.134   6.852   4.797  1.00  0.00    -0.287 OA
BRANCH   7   9
HETATM    9  C   UNL     1      62.649   8.739   3.461  1.00  0.00     0.015 A 
HETATM   10  C   UNL     1      62.459   8.824   2.071  1.00  0.00     0.018 A 
HETATM   11  C   UNL     1      62.043  10.025   1.482  1.00  0.00     0.043 A 
HETATM   12  C   UNL     1      61.809  11.137   2.282  1.00  0.00     0.116 A 
HETATM   13  C   UNL     1      62.029  11.089   3.650  1.00  0.00     0.043 A 
HETATM   14  F   UNL     1      61.354  12.268   1.726  1.00  0.00    -0.206 F 
HETATM   15  C   UNL     1      62.482   9.900   4.236  1.00  0.00     0.018 A 
ENDBRANCH   7   9
ENDBRANCH   1   7
BRANCH   2  16
HETATM   16  C   UNL     1      65.330   7.965   5.854  1.00  0.00     0.210 C 
HETATM   17  O   UNL     1      65.526   9.162   5.821  1.00  0.00    -0.644 OA
HETATM   18  O   UNL     1      64.947   7.331   6.987  1.00  0.00    -0.644 OA
ENDBRANCH   2  16
TORSDOF 3
ENDMDL
MODEL 2
REMARK VINA RESULT:      -6.1      1.321      2.603
REMARK  3 active torsions:
REMARK  status: ('A' for Active; 'I' for Inactive)
REMARK    1  A    between atoms: C_1  and  C_2 
REMARK    2  A    between atoms: C_2  and  C_5 
REMARK    3  A    between atoms: C_3  and  C_4 
ROOT
HETATM    1  C   UNL     1      64.543   7.663   4.816  1.00  0.00     0.032 A 
HETATM    2  C   UNL     1      64.574   6.408   4.189  1.00  0.00     0.054 A 
HETATM    3  C   UNL     1      65.759   8.268   5.183  1.00  0.00     0.016 A 
HETATM    4  C   UNL     1      65.816   5.853   3.828  1.00  0.00     0.019 A 
HETATM    5  C   UNL     1      66.983   7.717   4.808  1.00  0.00     0.001 A 
HETATM    6  C   UNL     1      67.008   6.515   4.111  1.00  0.00     0.001 A 
ENDROOT
BRANCH   1   7
HETATM    7  C   UNL     1      63.280   8.379   5.150  1.00  0.00     0.193 C 
HETATM    8  O   UNL     1      62.789   8.218   6.262  1.00  0.00    -0.287 OA
BRANCH   7   9
HETATM    9  C   UNL     1      62.671   9.380   4.201  1.00  0.00     0.015 A 
HETATM   10  C   UNL     1      62.411  10.677   4.674  1.00  0.00     0.018 A 
HETATM   11  C   UNL     1      61.970  11.679   3.798  1.00  0.00     0.043 A 
HETATM   12  C   UNL     1      61.797  11.384   2.451  1.00  0.00     0.116 A 
HETATM   13  C   UNL     1      62.007  10.101   1.970  1.00  0.00     0.043 A 
HETATM   14  F   UNL     1      61.432  12.356   1.603  1.00  0.00    -0.206 F 
HETATM   15  C   UNL     1      62.410   9.090   2.851  1.00  0.00     0.018 A 
ENDBRANCH   7   9
ENDBRANCH   1   7
BRANCH   2  16
HETATM   16  C   UNL     1      63.352   5.650   3.838  1.00  0.00     0.210 C 
HETATM   17  O   UNL     1      62.764   5.627   2.777  1.00  0.00    -0.644 OA
HETATM   18  O   UNL     1      62.975   4.876   4.884  1.00  0.00    -0.644 OA
ENDBRANCH   2  16
TORSDOF 3
ENDMDL
MODEL 3
REMARK VINA RESULT:      -6.1      3.065      5.333
REMARK  3 active torsions:
REMARK  status: ('A' for Active; 'I' for Inactive)
REMARK    1  A    between atoms: C_1  and  C_2 
REMARK    2  A    between atoms: C_2  and  C_5 
REMARK    3  A    between atoms: C_3  and  C_4 
ROOT
HETATM    1  C   UNL     1      62.461   8.484   3.835  1.00  0.00     0.032 A 
HETATM    2  C   UNL     1      62.316   9.862   3.617  1.00  0.00     0.054 A 
HETATM    3  C   UNL     1      62.252   7.601   2.759  1.00  0.00     0.016 A 
HETATM    4  C   UNL     1      62.097  10.330   2.307  1.00  0.00     0.019 A 
HETATM    5  C   UNL     1      62.051   8.075   1.464  1.00  0.00     0.001 A 
HETATM    6  C   UNL     1      61.994   9.445   1.237  1.00  0.00     0.001 A 
ENDROOT
BRANCH   1   7
HETATM    7  C   UNL     1      62.789   7.896   5.163  1.00  0.00     0.193 C 
HETATM    8  O   UNL     1      61.871   7.534   5.890  1.00  0.00    -0.287 OA
BRANCH   7   9
HETATM    9  C   UNL     1      64.216   7.629   5.572  1.00  0.00     0.015 A 
HETATM   10  C   UNL     1      64.453   6.726   6.622  1.00  0.00     0.018 A 
HETATM   11  C   UNL     1      65.761   6.344   6.951  1.00  0.00     0.043 A 
HETATM   12  C   UNL     1      66.828   6.860   6.225  1.00  0.00     0.116 A 
HETATM   13  C   UNL     1      66.621   7.784   5.213  1.00  0.00     0.043 A 
HETATM   14  F   UNL     1      68.074   6.450   6.500  1.00  0.00    -0.206 F 
HETATM   15  C   UNL     1      65.317   8.196   4.908  1.00  0.00     0.018 A 
ENDBRANCH   7   9
ENDBRANCH   1   7
BRANCH   2  16
HETATM   16  C   UNL     1      62.431  10.868   4.698  1.00  0.00     0.210 C 
HETATM   17  O   UNL     1      62.926  10.731   5.797  1.00  0.00    -0.644 OA
HETATM   18  O   UNL     1      61.950  12.059   4.270  1.00  0.00    -0.644 OA
ENDBRANCH   2  16
TORSDOF 3
ENDMDL
MODEL 4
REMARK VINA RESULT:      -6.0      3.141      5.697
REMARK  3 active torsions:
REMARK  status: ('A' for Active; 'I' for Inactive)
REMARK    1  A    between atoms: C_1  and  C_2 
REMARK    2  A    between atoms: C_2  and  C_5 
REMARK    3  A    between atoms: C_3  and  C_4 
ROOT
HETATM    1  C   UNL     1      62.339   9.046   3.783  1.00  0.00     0.032 A 
HETATM    2  C   UNL     1      62.349   8.758   2.410  1.00  0.00     0.054 A 
HETATM    3  C   UNL     1      62.184  10.382   4.196  1.00  0.00     0.016 A 
HETATM    4  C   UNL     1      62.071   9.789   1.492  1.00  0.00     0.019 A 
HETATM    5  C   UNL     1      61.895  11.392   3.280  1.00  0.00     0.001 A 
HETATM    6  C   UNL     1      61.819  11.088   1.926  1.00  0.00     0.001 A 
ENDROOT
BRANCH   1   7
HETATM    7  C   UNL     1      62.525   8.009   4.837  1.00  0.00     0.193 C 
HETATM    8  O   UNL     1      61.576   7.291   5.130  1.00  0.00    -0.287 OA
BRANCH   7   9
HETATM    9  C   UNL     1      63.878   7.749   5.451  1.00  0.00     0.015 A 
HETATM   10  C   UNL     1      63.962   6.846   6.524  1.00  0.00     0.018 A 
HETATM   11  C   UNL     1      65.210   6.471   7.042  1.00  0.00     0.043 A 
HETATM   12  C   UNL     1      66.369   6.994   6.482  1.00  0.00     0.116 A 
HETATM   13  C   UNL     1      66.309   7.919   5.451  1.00  0.00     0.043 A 
HETATM   14  F   UNL     1      67.563   6.590   6.938  1.00  0.00    -0.206 F 
HETATM   15  C   UNL     1      65.062   8.324   4.958  1.00  0.00     0.018 A 
ENDBRANCH   7   9
ENDBRANCH   1   7
BRANCH   2  16
HETATM   16  C   UNL     1      62.590   7.401   1.870  1.00  0.00     0.210 C 
HETATM   17  O   UNL     1      63.605   6.739   1.935  1.00  0.00    -0.644 OA
HETATM   18  O   UNL     1      61.451   6.917   1.318  1.00  0.00    -0.644 OA
ENDBRANCH   2  16
TORSDOF 3
ENDMDL
MODEL 5
REMARK VINA RESULT:      -5.9      1.912      2.403
REMARK  3 active torsions:
REMARK  status: ('A' for Active; 'I' for Inactive)
REMARK    1  A    between atoms: C_1  and  C_2 
REMARK    2  A    between atoms: C_2  and  C_5 
REMARK    3  A    between atoms: C_3  and  C_4 
ROOT
HETATM    1  C   UNL     1      64.333   6.464   6.179  1.00  0.00     0.032 A 
HETATM    2  C   UNL     1      65.706   6.749   6.219  1.00  0.00     0.054 A 
HETATM    3  C   UNL     1      63.914   5.126   6.296  1.00  0.00     0.016 A 
HETATM    4  C   UNL     1      66.614   5.711   6.505  1.00  0.00     0.019 A 
HETATM    5  C   UNL     1      64.819   4.108   6.595  1.00  0.00     0.001 A 
HETATM    6  C   UNL     1      66.170   4.408   6.718  1.00  0.00     0.001 A 
ENDROOT
BRANCH   1   7
HETATM    7  C   UNL     1      63.288   7.506   5.980  1.00  0.00     0.193 C 
HETATM    8  O   UNL     1      62.702   7.948   6.962  1.00  0.00    -0.287 OA
BRANCH   7   9
HETATM    9  C   UNL     1      63.028   8.107   4.622  1.00  0.00     0.015 A 
HETATM   10  C   UNL     1      63.158   7.284   3.490  1.00  0.00     0.018 A 
HETATM   11  C   UNL     1      62.800   7.759   2.220  1.00  0.00     0.043 A 
HETATM   12  C   UNL     1      62.306   9.051   2.086  1.00  0.00     0.116 A 
HETATM   13  C   UNL     1      62.209   9.894   3.182  1.00  0.00     0.043 A 
HETATM   14  F   UNL     1      61.909   9.484   0.882  1.00  0.00    -0.206 F 
HETATM   15  C   UNL     1      62.602   9.435   4.445  1.00  0.00     0.018 A 
ENDBRANCH   7   9
ENDBRANCH   1   7
BRANCH   2  16
HETATM   16  C   UNL     1      66.255   8.109   6.021  1.00  0.00     0.210 C 
HETATM   17  O   UNL     1      66.421   8.977   6.853  1.00  0.00    -0.644 OA
HETATM   18  O   UNL     1      66.643   8.266   4.733  1.00  0.00    -0.644 OA
ENDBRANCH   2  16
TORSDOF 3
ENDMDL
MODEL 6
REMARK VINA RESULT:      -5.4      3.743      6.241
REMARK  3 active torsions:
REMARK  status: ('A' for Active; 'I' for Inactive)
REMARK    1  A    between atoms: C_1  and  C_2 
REMARK    2  A    between atoms: C_2  and  C_5 
REMARK    3  A    between atoms: C_3  and  C_4 
ROOT
HETATM    1  C   UNL     1      65.554   6.920   4.263  1.00  0.00     0.032 A 
HETATM    2  C   UNL     1      64.320   7.560   4.452  1.00  0.00     0.054 A 
HETATM    3  C   UNL     1      65.654   5.914   3.284  1.00  0.00     0.016 A 
HETATM    4  C   UNL     1      63.258   7.275   3.573  1.00  0.00     0.019 A 
HETATM    5  C   UNL     1      64.602   5.650   2.409  1.00  0.00     0.001 A 
HETATM    6  C   UNL     1      63.407   6.348   2.544  1.00  0.00     0.001 A 
ENDROOT
BRANCH   1   7
HETATM    7  C   UNL     1      66.764   7.222   5.076  1.00  0.00     0.193 C 
HETATM    8  O   UNL     1      67.373   8.264   4.862  1.00  0.00    -0.287 OA
BRANCH   7   9
HETATM    9  C   UNL     1      67.177   6.340   6.228  1.00  0.00     0.015 A 
HETATM   10  C   UNL     1      66.955   6.800   7.537  1.00  0.00     0.018 A 
HETATM   11  C   UNL     1      67.198   5.965   8.636  1.00  0.00     0.043 A 
HETATM   12  C   UNL     1      67.655   4.670   8.424  1.00  0.00     0.116 A 
HETATM   13  C   UNL     1      67.921   4.208   7.144  1.00  0.00     0.043 A 
HETATM   14  F   UNL     1      67.831   3.852   9.471  1.00  0.00    -0.206 F 
HETATM   15  C   UNL     1      67.715   5.054   6.047  1.00  0.00     0.018 A 
ENDBRANCH   7   9
ENDBRANCH   1   7
BRANCH   2  16
HETATM   16  C   UNL     1      64.086   8.569   5.510  1.00  0.00     0.210 C 
HETATM   17  O   UNL     1      64.396   9.742   5.506  1.00  0.00    -0.644 OA
HETATM   18  O   UNL     1      63.379   8.017   6.524  1.00  0.00    -0.644 OA
ENDBRANCH   2  16
TORSDOF 3
ENDMDL
MODEL 7
REMARK VINA RESULT:      -5.2      3.497      5.921
REMARK  3 active torsions:
REMARK  status: ('A' for Active; 'I' for Inactive)
REMARK    1  A    between atoms: C_1  and  C_2 
REMARK    2  A    between atoms: C_2  and  C_5 
REMARK    3  A    between atoms: C_3  and  C_4 
ROOT
HETATM    1  C   UNL     1      62.230   9.059   3.363  1.00  0.00     0.032 A 
HETATM    2  C   UNL     1      61.908   9.506   2.073  1.00  0.00     0.054 A 
HETATM    3  C   UNL     1      62.451  10.011   4.376  1.00  0.00     0.016 A 
HETATM    4  C   UNL     1      61.686  10.880   1.859  1.00  0.00     0.019 A 
HETATM    5  C   UNL     1      62.213  11.367   4.157  1.00  0.00     0.001 A 
HETATM    6  C   UNL     1      61.810  11.798   2.899  1.00  0.00     0.001 A 
ENDROOT
BRANCH   1   7
HETATM    7  C   UNL     1      62.391   7.620   3.713  1.00  0.00     0.193 C 
HETATM    8  O   UNL     1      63.427   7.048   3.395  1.00  0.00    -0.287 OA
BRANCH   7   9
HETATM    9  C   UNL     1      61.366   6.898   4.551  1.00  0.00     0.015 A 
HETATM   10  C   UNL     1      61.760   6.394   5.802  1.00  0.00     0.018 A 
HETATM   11  C   UNL     1      60.815   5.833   6.673  1.00  0.00     0.043 A 
HETATM   12  C   UNL     1      59.479   5.784   6.295  1.00  0.00     0.116 A 
HETATM   13  C   UNL     1      59.074   6.237   5.048  1.00  0.00     0.043 A 
HETATM   14  F   UNL     1      58.567   5.302   7.150  1.00  0.00    -0.206 F 
HETATM   15  C   UNL     1      60.022   6.762   4.162  1.00  0.00     0.018 A 
ENDBRANCH   7   9
ENDBRANCH   1   7
BRANCH   2  16
HETATM   16  C   UNL     1      61.740   8.593   0.920  1.00  0.00     0.210 C 
HETATM   17  O   UNL     1      62.601   8.126   0.204  1.00  0.00    -0.644 OA
HETATM   18  O   UNL     1      60.435   8.257   0.785  1.00  0.00    -0.644 OA
ENDBRANCH   2  16
TORSDOF 3
ENDMDL
MODEL 8
REMARK VINA RESULT:      -5.2      2.970      4.508
REMARK  3 active torsions:
REMARK  status: ('A' for Active; 'I' for Inactive)
REMARK    1  A    between atoms: C_1  and  C_2 
REMARK    2  A    between atoms: C_2  and  C_5 
REMARK    3  A    between atoms: C_3  and  C_4 
ROOT
HETATM    1  C   UNL     1      66.799   6.633   6.931  1.00  0.00     0.032 A 
HETATM    2  C   UNL     1      67.138   5.327   6.546  1.00  0.00     0.054 A 
HETATM    3  C   UNL     1      66.966   7.009   8.277  1.00  0.00     0.016 A 
HETATM    4  C   UNL     1      67.755   4.475   7.481  1.00  0.00     0.019 A 
HETATM    5  C   UNL     1      67.592   6.163   9.191  1.00  0.00     0.001 A 
HETATM    6  C   UNL     1      68.005   4.899   8.784  1.00  0.00     0.001 A 
ENDROOT
BRANCH   1   7
HETATM    7  C   UNL     1      66.232   7.641   5.993  1.00  0.00     0.193 C 
HETATM    8  O   UNL     1      67.001   8.374   5.380  1.00  0.00    -0.287 OA
BRANCH   7   9
HETATM    9  C   UNL     1      64.755   7.691   5.694  1.00  0.00     0.015 A 
HETATM   10  C   UNL     1      64.294   8.627   4.753  1.00  0.00     0.018 A 
HETATM   11  C   UNL     1      62.953   8.623   4.344  1.00  0.00     0.043 A 
HETATM   12  C   UNL     1      62.078   7.680   4.871  1.00  0.00     0.116 A 
HETATM   13  C   UNL     1      62.501   6.775   5.831  1.00  0.00     0.043 A 
HETATM   14  F   UNL     1      60.811   7.639   4.436  1.00  0.00    -0.206 F 
HETATM   15  C   UNL     1      63.831   6.801   6.269  1.00  0.00     0.018 A 
ENDBRANCH   7   9
ENDBRANCH   1   7
BRANCH   2  16
HETATM   16  C   UNL     1      66.922   4.807   5.177  1.00  0.00     0.210 C 
HETATM   17  O   UNL     1      67.630   4.950   4.202  1.00  0.00    -0.644 OA
HETATM   18  O   UNL     1      65.805   4.042   5.146  1.00  0.00    -0.644 OA
ENDBRANCH   2  16
TORSDOF 3
ENDMDL
MODEL 9
REMARK VINA RESULT:      -5.2      2.636      3.852
REMARK  3 active torsions:
REMARK  status: ('A' for Active; 'I' for Inactive)
REMARK    1  A    between atoms: C_1  and  C_2 
REMARK    2  A    between atoms: C_2  and  C_5 
REMARK    3  A    between atoms: C_3  and  C_4 
ROOT
HETATM    1  C   UNL     1      66.842   6.008   6.034  1.00  0.00     0.032 A 
HETATM    2  C   UNL     1      67.279   5.190   7.087  1.00  0.00     0.054 A 
HETATM    3  C   UNL     1      67.036   5.572   4.711  1.00  0.00     0.016 A 
HETATM    4  C   UNL     1      67.777   3.906   6.797  1.00  0.00     0.019 A 
HETATM    5  C   UNL     1      67.516   4.293   4.434  1.00  0.00     0.001 A 
HETATM    6  C   UNL     1      67.868   3.452   5.483  1.00  0.00     0.001 A 
ENDROOT
BRANCH   1   7
HETATM    7  C   UNL     1      66.212   7.342   6.243  1.00  0.00     0.193 C 
HETATM    8  O   UNL     1      66.899   8.254   6.688  1.00  0.00    -0.287 OA
BRANCH   7   9
HETATM    9  C   UNL     1      64.796   7.618   5.804  1.00  0.00     0.015 A 
HETATM   10  C   UNL     1      64.580   8.597   4.819  1.00  0.00     0.018 A 
HETATM   11  C   UNL     1      63.299   8.797   4.284  1.00  0.00     0.043 A 
HETATM   12  C   UNL     1      62.241   8.013   4.728  1.00  0.00     0.116 A 
HETATM   13  C   UNL     1      62.422   7.071   5.728  1.00  0.00     0.043 A 
HETATM   14  F   UNL     1      61.030   8.164   4.174  1.00  0.00    -0.206 F 
HETATM   15  C   UNL     1      63.693   6.896   6.291  1.00  0.00     0.018 A 
ENDBRANCH   7   9
ENDBRANCH   1   7
BRANCH   2  16
HETATM   16  C   UNL     1      67.199   5.593   8.510  1.00  0.00     0.210 C 
HETATM   17  O   UNL     1      68.019   6.205   9.162  1.00  0.00    -0.644 OA
HETATM   18  O   UNL     1      65.996   5.238   9.021  1.00  0.00    -0.644 OA
ENDBRANCH   2  16
TORSDOF 3
ENDMDL
