MODEL 1
REMARK VINA RESULT:      -5.0      0.000      0.000
REMARK  2 active torsions:
REMARK  status: ('A' for Active; 'I' for Inactive)
REMARK    1  A    between atoms: C_1  and  N_2 
REMARK    2  A    between atoms: C_7  and  N_10 
ROOT
HETATM    1  C   UNL     1      63.554   8.575   4.603  1.00  0.00     0.052 A 
HETATM    2  C   UNL     1      63.106   8.293   3.291  1.00  0.00     0.062 A 
HETATM    3  C   UNL     1      62.338   9.225   2.561  1.00  0.00     0.055 A 
HETATM    4  C   UNL     1      63.168   9.836   5.109  1.00  0.00     0.033 A 
HETATM    5  C   UNL     1      61.964  10.451   3.104  1.00  0.00     0.027 A 
HETATM    6 CL   UNL     1      63.513   6.856   2.407  1.00  0.00    -0.082 Cl
HETATM    7  C   UNL     1      62.427  10.763   4.373  1.00  0.00     0.031 A 
ENDROOT
BRANCH   1   8
HETATM    8  N   UNL     1      64.282   7.742   5.444  1.00  0.00    -0.375 N 
HETATM    9  C   UNL     1      65.652   8.023   5.909  1.00  0.00     0.149 C 
HETATM   10  C   UNL     1      66.396   6.692   6.139  1.00  0.00     0.187 C 
HETATM   11  O   UNL     1      65.689   5.814   7.029  1.00  0.00    -0.388 OA
HETATM   12  C   UNL     1      64.374   5.540   6.516  1.00  0.00     0.187 C 
HETATM   13  C   UNL     1      63.563   6.834   6.367  1.00  0.00     0.149 C 
ENDBRANCH   1   8
BRANCH   5  14
HETATM   14  N   UNL     1      61.349  11.422   2.313  1.00  0.00    -0.399 N 
HETATM   15  H   UNL     1      61.386  12.370   2.579  1.00  0.00     0.156 HD
HETATM   16  H   UNL     1      60.878  11.161   1.489  1.00  0.00     0.156 HD
ENDBRANCH   5  14
TORSDOF 2
ENDMDL
MODEL 2
REMARK VINA RESULT:      -4.6      1.771      2.569
REMARK  2 active torsions:
REMARK  status: ('A' for Active; 'I' for Inactive)
REMARK    1  A    between atoms: C_1  and  N_2 
REMARK    2  A    between atoms: C_7  and  N_10 
ROOT
HETATM    1  C   UNL     1      63.717   8.133   4.318  1.00  0.00     0.052 A 
HETATM    2  C   UNL     1      63.049   9.380   4.329  1.00  0.00     0.062 A 
HETATM    3  C   UNL     1      62.137   9.733   3.313  1.00  0.00     0.055 A 
HETATM    4  C   UNL     1      63.404   7.296   3.224  1.00  0.00     0.033 A 
HETATM    5  C   UNL     1      61.870   8.885   2.240  1.00  0.00     0.027 A 
HETATM    6 CL   UNL     1      63.188  10.552   5.601  1.00  0.00    -0.082 Cl
HETATM    7  C   UNL     1      62.483   7.642   2.233  1.00  0.00     0.031 A 
ENDROOT
BRANCH   1   8
HETATM    8  N   UNL     1      64.660   7.672   5.230  1.00  0.00    -0.375 N 
HETATM    9  C   UNL     1      64.528   6.423   6.001  1.00  0.00     0.149 C 
HETATM   10  C   UNL     1      65.254   6.579   7.352  1.00  0.00     0.187 C 
HETATM   11  O   UNL     1      66.624   6.981   7.197  1.00  0.00    -0.388 OA
HETATM   12  C   UNL     1      66.700   8.220   6.473  1.00  0.00     0.187 C 
HETATM   13  C   UNL     1      66.075   8.078   5.078  1.00  0.00     0.149 C 
ENDBRANCH   1   8
BRANCH   5  14
HETATM   14  N   UNL     1      60.847   9.179   1.337  1.00  0.00    -0.399 N 
HETATM   15  H   UNL     1      61.063   9.562   0.457  1.00  0.00     0.156 HD
HETATM   16  H   UNL     1      59.910   9.002   1.581  1.00  0.00     0.156 HD
ENDBRANCH   5  14
TORSDOF 2
ENDMDL
MODEL 3
REMARK VINA RESULT:      -4.6      3.073      4.030
REMARK  2 active torsions:
REMARK  status: ('A' for Active; 'I' for Inactive)
REMARK    1  A    between atoms: C_1  and  N_2 
REMARK    2  A    between atoms: C_7  and  N_10 
ROOT
HETATM    1  C   UNL     1      61.185   8.441   3.003  1.00  0.00     0.052 A 
HETATM    2  C   UNL     1      61.088   8.404   1.593  1.00  0.00     0.062 A 
HETATM    3  C   UNL     1      59.959   7.855   0.949  1.00  0.00     0.055 A 
HETATM    4  C   UNL     1      60.084   7.888   3.695  1.00  0.00     0.033 A 
HETATM    5  C   UNL     1      58.902   7.303   1.668  1.00  0.00     0.027 A 
HETATM    6 CL   UNL     1      62.260   9.092   0.514  1.00  0.00    -0.082 Cl
HETATM    7  C   UNL     1      58.959   7.366   3.051  1.00  0.00     0.031 A 
ENDROOT
BRANCH   1   8
HETATM    8  N   UNL     1      62.247   8.916   3.765  1.00  0.00    -0.375 N 
HETATM    9  C   UNL     1      63.563   8.259   3.856  1.00  0.00     0.149 C 
HETATM   10  C   UNL     1      64.180   8.543   5.240  1.00  0.00     0.187 C 
HETATM   11  O   UNL     1      64.252   9.948   5.532  1.00  0.00    -0.388 OA
HETATM   12  C   UNL     1      62.942  10.536   5.467  1.00  0.00     0.187 C 
HETATM   13  C   UNL     1      62.332  10.362   4.070  1.00  0.00     0.149 C 
ENDBRANCH   1   8
BRANCH   5  14
HETATM   14  N   UNL     1      57.726   6.917   1.022  1.00  0.00    -0.399 N 
HETATM   15  H   UNL     1      57.357   6.016   1.168  1.00  0.00     0.156 HD
HETATM   16  H   UNL     1      57.265   7.546   0.421  1.00  0.00     0.156 HD
ENDBRANCH   5  14
TORSDOF 2
ENDMDL
MODEL 4
REMARK VINA RESULT:      -4.5      3.236      4.763
REMARK  2 active torsions:
REMARK  status: ('A' for Active; 'I' for Inactive)
REMARK    1  A    between atoms: C_1  and  N_2 
REMARK    2  A    between atoms: C_7  and  N_10 
ROOT
HETATM    1  C   UNL     1      62.295   8.825   3.290  1.00  0.00     0.052 A 
HETATM    2  C   UNL     1      63.395   8.475   4.107  1.00  0.00     0.062 A 
HETATM    3  C   UNL     1      63.896   9.362   5.082  1.00  0.00     0.055 A 
HETATM    4  C   UNL     1      61.759  10.111   3.524  1.00  0.00     0.033 A 
HETATM    5  C   UNL     1      63.350  10.630   5.270  1.00  0.00     0.027 A 
HETATM    6 CL   UNL     1      64.179   6.927   4.081  1.00  0.00    -0.082 Cl
HETATM    7  C   UNL     1      62.246  10.976   4.507  1.00  0.00     0.031 A 
ENDROOT
BRANCH   1   8
HETATM    8  N   UNL     1      61.724   8.069   2.272  1.00  0.00    -0.375 N 
HETATM    9  C   UNL     1      60.281   7.792   2.153  1.00  0.00     0.149 C 
HETATM   10  C   UNL     1      60.079   6.424   1.470  1.00  0.00     0.187 C 
HETATM   11  O   UNL     1      60.757   6.335   0.207  1.00  0.00    -0.388 OA
HETATM   12  C   UNL     1      62.163   6.575   0.380  1.00  0.00     0.187 C 
HETATM   13  C   UNL     1      62.413   7.972   0.966  1.00  0.00     0.149 C 
ENDBRANCH   1   8
BRANCH   5  14
HETATM   14  N   UNL     1      63.749  11.425   6.345  1.00  0.00    -0.399 N 
HETATM   15  H   UNL     1      63.332  11.305   7.228  1.00  0.00     0.156 HD
HETATM   16  H   UNL     1      64.448  12.108   6.220  1.00  0.00     0.156 HD
ENDBRANCH   5  14
TORSDOF 2
ENDMDL
MODEL 5
REMARK VINA RESULT:      -4.2      2.014      2.600
REMARK  2 active torsions:
REMARK  status: ('A' for Active; 'I' for Inactive)
REMARK    1  A    between atoms: C_1  and  N_2 
REMARK    2  A    between atoms: C_7  and  N_10 
ROOT
HETATM    1  C   UNL     1      62.879   8.107   3.671  1.00  0.00     0.052 A 
HETATM    2  C   UNL     1      62.201   9.271   3.241  1.00  0.00     0.062 A 
HETATM    3  C   UNL     1      61.413   9.271   2.071  1.00  0.00     0.055 A 
HETATM    4  C   UNL     1      62.709   6.974   2.844  1.00  0.00     0.033 A 
HETATM    5  C   UNL     1      61.287   8.137   1.272  1.00  0.00     0.027 A 
HETATM    6 CL   UNL     1      62.174  10.768   4.119  1.00  0.00    -0.082 Cl
HETATM    7  C   UNL     1      61.910   6.975   1.699  1.00  0.00     0.031 A 
ENDROOT
BRANCH   1   8
HETATM    8  N   UNL     1      63.712   7.974   4.777  1.00  0.00    -0.375 N 
HETATM    9  C   UNL     1      64.821   8.891   5.096  1.00  0.00     0.149 C 
HETATM   10  C   UNL     1      65.927   8.115   5.838  1.00  0.00     0.187 C 
HETATM   11  O   UNL     1      65.433   7.432   7.001  1.00  0.00    -0.388 OA
HETATM   12  C   UNL     1      64.381   6.524   6.635  1.00  0.00     0.187 C 
HETATM   13  C   UNL     1      63.213   7.274   5.982  1.00  0.00     0.149 C 
ENDBRANCH   1   8
BRANCH   5  14
HETATM   14  N   UNL     1      60.376   8.108   0.215  1.00  0.00    -0.399 N 
HETATM   15  H   UNL     1      60.662   8.376  -0.688  1.00  0.00     0.156 HD
HETATM   16  H   UNL     1      59.448   7.821   0.372  1.00  0.00     0.156 HD
ENDBRANCH   5  14
TORSDOF 2
ENDMDL
MODEL 6
REMARK VINA RESULT:      -4.2      1.668      2.194
REMARK  2 active torsions:
REMARK  status: ('A' for Active; 'I' for Inactive)
REMARK    1  A    between atoms: C_1  and  N_2 
REMARK    2  A    between atoms: C_7  and  N_10 
ROOT
HETATM    1  C   UNL     1      64.210   7.599   5.128  1.00  0.00     0.052 A 
HETATM    2  C   UNL     1      63.162   6.834   4.564  1.00  0.00     0.062 A 
HETATM    3  C   UNL     1      62.034   7.450   3.983  1.00  0.00     0.055 A 
HETATM    4  C   UNL     1      64.029   8.999   5.068  1.00  0.00     0.033 A 
HETATM    5  C   UNL     1      61.886   8.835   3.959  1.00  0.00     0.027 A 
HETATM    6 CL   UNL     1      63.177   5.104   4.433  1.00  0.00    -0.082 Cl
HETATM    7  C   UNL     1      62.920   9.603   4.470  1.00  0.00     0.031 A 
ENDROOT
BRANCH   1   8
HETATM    8  N   UNL     1      65.354   7.127   5.761  1.00  0.00    -0.375 N 
HETATM    9  C   UNL     1      65.384   6.595   7.135  1.00  0.00     0.149 C 
HETATM   10  C   UNL     1      66.764   6.876   7.762  1.00  0.00     0.187 C 
HETATM   11  O   UNL     1      67.844   6.372   6.959  1.00  0.00    -0.388 OA
HETATM   12  C   UNL     1      67.795   6.947   5.643  1.00  0.00     0.187 C 
HETATM   13  C   UNL     1      66.472   6.604   4.945  1.00  0.00     0.149 C 
ENDBRANCH   1   8
BRANCH   5  14
HETATM   14  N   UNL     1      60.849   9.428   3.237  1.00  0.00    -0.399 N 
HETATM   15  H   UNL     1      60.154   8.868   2.823  1.00  0.00     0.156 HD
HETATM   16  H   UNL     1      60.813  10.407   3.141  1.00  0.00     0.156 HD
ENDBRANCH   5  14
TORSDOF 2
ENDMDL
MODEL 7
REMARK VINA RESULT:      -4.2      3.119      4.122
REMARK  2 active torsions:
REMARK  status: ('A' for Active; 'I' for Inactive)
REMARK    1  A    between atoms: C_1  and  N_2 
REMARK    2  A    between atoms: C_7  and  N_10 
ROOT
HETATM    1  C   UNL     1      61.276   8.284   3.097  1.00  0.00     0.052 A 
HETATM    2  C   UNL     1      60.343   7.318   3.541  1.00  0.00     0.062 A 
HETATM    3  C   UNL     1      59.310   6.855   2.700  1.00  0.00     0.055 A 
HETATM    4  C   UNL     1      61.084   8.739   1.773  1.00  0.00     0.033 A 
HETATM    5  C   UNL     1      59.143   7.344   1.406  1.00  0.00     0.027 A 
HETATM    6 CL   UNL     1      60.407   6.536   5.088  1.00  0.00    -0.082 Cl
HETATM    7  C   UNL     1      60.072   8.260   0.938  1.00  0.00     0.031 A 
ENDROOT
BRANCH   1   8
HETATM    8  N   UNL     1      62.316   8.851   3.825  1.00  0.00    -0.375 N 
HETATM    9  C   UNL     1      63.670   8.277   3.925  1.00  0.00     0.149 C 
HETATM   10  C   UNL     1      64.284   8.653   5.288  1.00  0.00     0.187 C 
HETATM   11  O   UNL     1      64.274  10.070   5.524  1.00  0.00    -0.388 OA
HETATM   12  C   UNL     1      62.931  10.576   5.454  1.00  0.00     0.187 C 
HETATM   13  C   UNL     1      62.317  10.311   4.072  1.00  0.00     0.149 C 
ENDBRANCH   1   8
BRANCH   5  14
HETATM   14  N   UNL     1      58.222   6.758   0.537  1.00  0.00    -0.399 N 
HETATM   15  H   UNL     1      57.809   5.894   0.766  1.00  0.00     0.156 HD
HETATM   16  H   UNL     1      57.986   7.207  -0.307  1.00  0.00     0.156 HD
ENDBRANCH   5  14
TORSDOF 2
ENDMDL
MODEL 8
REMARK VINA RESULT:      -4.2      3.341      5.485
REMARK  2 active torsions:
REMARK  status: ('A' for Active; 'I' for Inactive)
REMARK    1  A    between atoms: C_1  and  N_2 
REMARK    2  A    between atoms: C_7  and  N_10 
ROOT
HETATM    1  C   UNL     1      62.811   8.190   3.510  1.00  0.00     0.052 A 
HETATM    2  C   UNL     1      63.255   9.177   4.421  1.00  0.00     0.062 A 
HETATM    3  C   UNL     1      64.478   9.041   5.111  1.00  0.00     0.055 A 
HETATM    4  C   UNL     1      63.673   7.081   3.360  1.00  0.00     0.033 A 
HETATM    5  C   UNL     1      65.291   7.923   4.948  1.00  0.00     0.027 A 
HETATM    6 CL   UNL     1      62.428  10.672   4.722  1.00  0.00    -0.082 Cl
HETATM    7  C   UNL     1      64.893   6.964   4.030  1.00  0.00     0.031 A 
ENDROOT
BRANCH   1   8
HETATM    8  N   UNL     1      61.619   8.177   2.793  1.00  0.00    -0.375 N 
HETATM    9  C   UNL     1      60.297   7.909   3.386  1.00  0.00     0.149 C 
HETATM   10  C   UNL     1      59.391   7.243   2.331  1.00  0.00     0.187 C 
HETATM   11  O   UNL     1      59.299   8.011   1.121  1.00  0.00    -0.388 OA
HETATM   12  C   UNL     1      60.608   8.214   0.562  1.00  0.00     0.187 C 
HETATM   13  C   UNL     1      61.513   8.967   1.546  1.00  0.00     0.149 C 
ENDBRANCH   1   8
BRANCH   5  14
HETATM   14  N   UNL     1      66.568   7.883   5.509  1.00  0.00    -0.399 N 
HETATM   15  H   UNL     1      67.053   8.721   5.690  1.00  0.00     0.156 HD
HETATM   16  H   UNL     1      66.986   7.018   5.724  1.00  0.00     0.156 HD
ENDBRANCH   5  14
TORSDOF 2
ENDMDL
MODEL 9
REMARK VINA RESULT:      -4.2      2.670      5.263
REMARK  2 active torsions:
REMARK  status: ('A' for Active; 'I' for Inactive)
REMARK    1  A    between atoms: C_1  and  N_2 
REMARK    2  A    between atoms: C_7  and  N_10 
ROOT
HETATM    1  C   UNL     1      64.382   7.655   5.372  1.00  0.00     0.052 A 
HETATM    2  C   UNL     1      64.294   6.579   6.287  1.00  0.00     0.062 A 
HETATM    3  C   UNL     1      65.318   6.328   7.223  1.00  0.00     0.055 A 
HETATM    4  C   UNL     1      65.558   8.431   5.471  1.00  0.00     0.033 A 
HETATM    5  C   UNL     1      66.471   7.106   7.276  1.00  0.00     0.027 A 
HETATM    6 CL   UNL     1      62.920   5.530   6.432  1.00  0.00    -0.082 Cl
HETATM    7  C   UNL     1      66.558   8.190   6.416  1.00  0.00     0.031 A 
ENDROOT
BRANCH   1   8
HETATM    8  N   UNL     1      63.471   7.996   4.378  1.00  0.00    -0.375 N 
HETATM    9  C   UNL     1      63.076   7.104   3.273  1.00  0.00     0.149 C 
HETATM   10  C   UNL     1      62.717   7.953   2.037  1.00  0.00     0.187 C 
HETATM   11  O   UNL     1      61.716   8.943   2.323  1.00  0.00    -0.388 OA
HETATM   12  C   UNL     1      62.161   9.809   3.379  1.00  0.00     0.187 C 
HETATM   13  C   UNL     1      62.433   9.012   4.662  1.00  0.00     0.149 C 
ENDBRANCH   1   8
BRANCH   5  14
HETATM   14  N   UNL     1      67.393   6.946   8.312  1.00  0.00    -0.399 N 
HETATM   15  H   UNL     1      67.395   6.118   8.845  1.00  0.00     0.156 HD
HETATM   16  H   UNL     1      68.040   7.661   8.511  1.00  0.00     0.156 HD
ENDBRANCH   5  14
TORSDOF 2
ENDMDL
