MODEL 1
REMARK VINA RESULT:      -3.3      0.000      0.000
REMARK  0 active torsions:
REMARK  status: ('A' for Active; 'I' for Inactive)
ROOT
HETATM    1  C   UNL     1      66.608   6.764   7.762  1.00  0.00     0.167 C 
HETATM    2  N   UNL     1      67.658   6.784   6.915  1.00  0.00    -0.367 N 
HETATM    3  N   UNL     1      65.350   6.928   7.312  1.00  0.00    -0.367 N 
HETATM    4  S   UNL     1      66.872   6.541   9.390  1.00  0.00    -0.041 SA
HETATM    5  C   UNL     1      67.616   6.498   5.499  1.00  0.00     0.122 C 
HETATM    6  C   UNL     1      64.869   7.216   5.971  1.00  0.00     0.122 C 
HETATM    7  C   UNL     1      67.008   7.608   4.654  1.00  0.00     0.021 C 
HETATM    8  C   UNL     1      65.727   8.221   5.218  1.00  0.00     0.021 C 
HETATM    9  H   UNL     1      68.535   7.016   7.297  1.00  0.00     0.161 HD
HETATM   10  H   UNL     1      64.647   6.841   7.997  1.00  0.00     0.161 HD
ENDROOT
TORSDOF 0
ENDMDL
MODEL 2
REMARK VINA RESULT:      -3.3      0.755      2.132
REMARK  0 active torsions:
REMARK  status: ('A' for Active; 'I' for Inactive)
ROOT
HETATM    1  C   UNL     1      66.654   6.971   7.471  1.00  0.00     0.167 C 
HETATM    2  N   UNL     1      65.430   7.147   6.930  1.00  0.00    -0.367 N 
HETATM    3  N   UNL     1      67.769   7.150   6.739  1.00  0.00    -0.367 N 
HETATM    4  S   UNL     1      66.787   6.517   9.067  1.00  0.00    -0.041 SA
HETATM    5  C   UNL     1      65.118   7.957   5.775  1.00  0.00     0.122 C 
HETATM    6  C   UNL     1      67.918   7.461   5.327  1.00  0.00     0.122 C 
HETATM    7  C   UNL     1      65.536   7.341   4.447  1.00  0.00     0.021 C 
HETATM    8  C   UNL     1      66.933   6.724   4.433  1.00  0.00     0.021 C 
HETATM    9  H   UNL     1      64.680   6.678   7.362  1.00  0.00     0.161 HD
HETATM   10  H   UNL     1      68.614   7.055   7.235  1.00  0.00     0.161 HD
ENDROOT
TORSDOF 0
ENDMDL
MODEL 3
REMARK VINA RESULT:      -3.3      4.902      5.696
REMARK  0 active torsions:
REMARK  status: ('A' for Active; 'I' for Inactive)
ROOT
HETATM    1  C   UNL     1      63.443   8.750   4.040  1.00  0.00     0.167 C 
HETATM    2  N   UNL     1      63.190   8.026   2.930  1.00  0.00    -0.367 N 
HETATM    3  N   UNL     1      62.747   9.869   4.313  1.00  0.00    -0.367 N 
HETATM    4  S   UNL     1      64.642   8.259   5.085  1.00  0.00    -0.041 SA
HETATM    5  C   UNL     1      61.950   8.009   2.189  1.00  0.00     0.122 C 
HETATM    6  C   UNL     1      61.723  10.544   3.532  1.00  0.00     0.122 C 
HETATM    7  C   UNL     1      61.709   9.252   1.344  1.00  0.00     0.021 C 
HETATM    8  C   UNL     1      62.016  10.576   2.040  1.00  0.00     0.021 C 
HETATM    9  H   UNL     1      63.919   7.456   2.593  1.00  0.00     0.161 HD
HETATM   10  H   UNL     1      62.964  10.297   5.173  1.00  0.00     0.161 HD
ENDROOT
TORSDOF 0
ENDMDL
MODEL 4
REMARK VINA RESULT:      -3.2      5.205      6.013
REMARK  0 active torsions:
REMARK  status: ('A' for Active; 'I' for Inactive)
ROOT
HETATM    1  C   UNL     1      61.057   8.270   3.607  1.00  0.00     0.167 C 
HETATM    2  N   UNL     1      62.165   7.592   3.974  1.00  0.00    -0.367 N 
HETATM    3  N   UNL     1      61.059   9.614   3.531  1.00  0.00    -0.367 N 
HETATM    4  S   UNL     1      59.663   7.433   3.253  1.00  0.00    -0.041 SA
HETATM    5  C   UNL     1      63.526   8.061   3.863  1.00  0.00     0.122 C 
HETATM    6  C   UNL     1      62.107  10.565   3.863  1.00  0.00     0.122 C 
HETATM    7  C   UNL     1      63.914   9.108   4.898  1.00  0.00     0.021 C 
HETATM    8  C   UNL     1      62.878  10.207   5.124  1.00  0.00     0.021 C 
HETATM    9  H   UNL     1      62.032   6.693   4.353  1.00  0.00     0.161 HD
HETATM   10  H   UNL     1      60.223  10.015   3.200  1.00  0.00     0.161 HD
ENDROOT
TORSDOF 0
ENDMDL
MODEL 5
REMARK VINA RESULT:      -3.2     11.995     13.078
REMARK  0 active torsions:
REMARK  status: ('A' for Active; 'I' for Inactive)
ROOT
HETATM    1  C   UNL     1      56.095   2.412  13.376  1.00  0.00     0.167 C 
HETATM    2  N   UNL     1      56.207   1.375  14.231  1.00  0.00    -0.367 N 
HETATM    3  N   UNL     1      57.082   2.708  12.510  1.00  0.00    -0.367 N 
HETATM    4  S   UNL     1      54.719   3.348  13.397  1.00  0.00    -0.041 SA
HETATM    5  C   UNL     1      57.054   0.217  14.059  1.00  0.00     0.122 C 
HETATM    6  C   UNL     1      58.396   2.106  12.352  1.00  0.00     0.122 C 
HETATM    7  C   UNL     1      58.533   0.482  14.302  1.00  0.00     0.021 C 
HETATM    8  C   UNL     1      59.072   1.764  13.670  1.00  0.00     0.021 C 
HETATM    9  H   UNL     1      55.661   1.410  15.050  1.00  0.00     0.161 HD
HETATM   10  H   UNL     1      56.885   3.446  11.888  1.00  0.00     0.161 HD
ENDROOT
TORSDOF 0
ENDMDL
MODEL 6
REMARK VINA RESULT:      -3.2      7.366      7.981
REMARK  0 active torsions:
REMARK  status: ('A' for Active; 'I' for Inactive)
ROOT
HETATM    1  C   UNL     1      60.074   8.027   1.542  1.00  0.00     0.167 C 
HETATM    2  N   UNL     1      60.137   8.346   2.851  1.00  0.00    -0.367 N 
HETATM    3  N   UNL     1      61.033   8.421   0.684  1.00  0.00    -0.367 N 
HETATM    4  S   UNL     1      58.785   7.139   0.975  1.00  0.00    -0.041 SA
HETATM    5  C   UNL     1      61.333   8.673   3.591  1.00  0.00     0.122 C 
HETATM    6  C   UNL     1      62.199   9.261   0.910  1.00  0.00     0.122 C 
HETATM    7  C   UNL     1      61.889  10.061   3.302  1.00  0.00     0.021 C 
HETATM    8  C   UNL     1      61.929  10.445   1.824  1.00  0.00     0.021 C 
HETATM    9  H   UNL     1      59.287   8.358   3.348  1.00  0.00     0.161 HD
HETATM   10  H   UNL     1      60.930   8.093  -0.239  1.00  0.00     0.161 HD
ENDROOT
TORSDOF 0
ENDMDL
MODEL 7
REMARK VINA RESULT:      -3.1      3.938      4.837
REMARK  0 active torsions:
REMARK  status: ('A' for Active; 'I' for Inactive)
ROOT
HETATM    1  C   UNL     1      63.235   7.813   5.304  1.00  0.00     0.167 C 
HETATM    2  N   UNL     1      63.045   9.023   5.870  1.00  0.00    -0.367 N 
HETATM    3  N   UNL     1      63.172   7.653   3.968  1.00  0.00    -0.367 N 
HETATM    4  S   UNL     1      63.541   6.493   6.271  1.00  0.00    -0.041 SA
HETATM    5  C   UNL     1      63.235  10.302   5.227  1.00  0.00     0.122 C 
HETATM    6  C   UNL     1      62.843   8.615   2.929  1.00  0.00     0.122 C 
HETATM    7  C   UNL     1      62.138  10.675   4.239  1.00  0.00     0.021 C 
HETATM    8  C   UNL     1      61.704   9.550   3.301  1.00  0.00     0.021 C 
HETATM    9  H   UNL     1      62.750   9.034   6.809  1.00  0.00     0.161 HD
HETATM   10  H   UNL     1      63.379   6.746   3.646  1.00  0.00     0.161 HD
ENDROOT
TORSDOF 0
ENDMDL
MODEL 8
REMARK VINA RESULT:      -3.0     12.068     12.894
REMARK  0 active torsions:
REMARK  status: ('A' for Active; 'I' for Inactive)
ROOT
HETATM    1  C   UNL     1      56.516   0.690  13.855  1.00  0.00     0.167 C 
HETATM    2  N   UNL     1      56.365   1.278  12.650  1.00  0.00    -0.367 N 
HETATM    3  N   UNL     1      57.595   0.940  14.619  1.00  0.00    -0.367 N 
HETATM    4  S   UNL     1      55.355  -0.369  14.402  1.00  0.00    -0.041 SA
HETATM    5  C   UNL     1      56.973   2.518  12.225  1.00  0.00     0.122 C 
HETATM    6  C   UNL     1      58.771   1.749  14.337  1.00  0.00     0.122 C 
HETATM    7  C   UNL     1      58.457   2.408  11.903  1.00  0.00     0.021 C 
HETATM    8  C   UNL     1      59.280   1.608  12.911  1.00  0.00     0.021 C 
HETATM    9  H   UNL     1      55.786   0.820  11.999  1.00  0.00     0.161 HD
HETATM   10  H   UNL     1      57.589   0.510  15.505  1.00  0.00     0.161 HD
ENDROOT
TORSDOF 0
ENDMDL
MODEL 9
REMARK VINA RESULT:      -3.0      1.737      2.384
REMARK  0 active torsions:
REMARK  status: ('A' for Active; 'I' for Inactive)
ROOT
HETATM    1  C   UNL     1      65.499   6.883   7.059  1.00  0.00     0.167 C 
HETATM    2  N   UNL     1      65.680   8.058   6.422  1.00  0.00    -0.367 N 
HETATM    3  N   UNL     1      64.453   6.088   6.765  1.00  0.00    -0.367 N 
HETATM    4  S   UNL     1      66.580   6.410   8.233  1.00  0.00    -0.041 SA
HETATM    5  C   UNL     1      65.167   8.408   5.118  1.00  0.00     0.122 C 
HETATM    6  C   UNL     1      63.342   6.307   5.854  1.00  0.00     0.122 C 
HETATM    7  C   UNL     1      63.675   8.710   5.094  1.00  0.00     0.021 C 
HETATM    8  C   UNL     1      62.804   7.730   5.879  1.00  0.00     0.021 C 
HETATM    9  H   UNL     1      66.212   8.741   6.890  1.00  0.00     0.161 HD
HETATM   10  H   UNL     1      64.436   5.226   7.241  1.00  0.00     0.161 HD
ENDROOT
TORSDOF 0
ENDMDL
