MODEL 1
REMARK VINA RESULT:      -6.3      0.000      0.000
REMARK  2 active torsions:
REMARK  status: ('A' for Active; 'I' for Inactive)
REMARK    1  A    between atoms: C_1  and  C_5 
REMARK    2  A    between atoms: C_8  and  N_9 
ROOT
HETATM    1  C   UNL     1      64.512   8.263   5.350  1.00  0.00     0.118 A 
HETATM    2  N   UNL     1      64.285   7.629   6.491  1.00  0.00    -0.340 N 
ATOM      3  HN  UNL     1      63.408   7.594   7.009  1.00  0.00     0.167 HD
HETATM    4  N   UNL     1      65.817   8.062   4.954  1.00  0.00    -0.340 N 
HETATM    5  C   UNL     1      65.473   7.028   6.835  1.00  0.00     0.060 A 
HETATM    6  C   UNL     1      66.452   7.286   5.885  1.00  0.00     0.060 A 
HETATM    7  C   UNL     1      65.793   6.234   7.946  1.00  0.00     0.032 A 
HETATM    8  C   UNL     1      67.756   6.796   5.969  1.00  0.00     0.032 A 
HETATM    9  C   UNL     1      68.057   6.005   7.083  1.00  0.00     0.002 A 
HETATM   10  C   UNL     1      67.095   5.727   8.056  1.00  0.00     0.002 A 
HETATM   11  H   UNL     1      66.227   8.420   4.134  1.00  0.00     0.167 HD
ENDROOT
BRANCH   1  12
HETATM   12  C   UNL     1      63.542   9.037   4.561  1.00  0.00     0.034 A 
HETATM   13  C   UNL     1      63.230  10.376   4.895  1.00  0.00     0.039 A 
HETATM   14  C   UNL     1      62.235  11.047   4.169  1.00  0.00     0.030 A 
HETATM   15  C   UNL     1      61.620  10.449   3.069  1.00  0.00     0.002 A 
HETATM   16  C   UNL     1      61.971   9.157   2.696  1.00  0.00     0.001 A 
HETATM   17  C   UNL     1      62.923   8.455   3.438  1.00  0.00     0.017 A 
BRANCH  13  18
HETATM   18  N   UNL     1      63.715  10.977   6.077  1.00  0.00    -0.398 N 
HETATM   19  H   UNL     1      63.593  10.526   6.944  1.00  0.00     0.156 HD
HETATM   20  H   UNL     1      64.174  11.846   6.034  1.00  0.00     0.156 HD
ENDBRANCH  13  18
ENDBRANCH   1  12
TORSDOF 2
ENDMDL
MODEL 2
REMARK VINA RESULT:      -6.1      0.948      2.255
REMARK  2 active torsions:
REMARK  status: ('A' for Active; 'I' for Inactive)
REMARK    1  A    between atoms: C_1  and  C_5 
REMARK    2  A    between atoms: C_8  and  N_9 
ROOT
HETATM    1  C   UNL     1      64.673   8.166   5.404  1.00  0.00     0.118 A 
HETATM    2  N   UNL     1      65.945   8.004   5.073  1.00  0.00    -0.340 N 
ATOM      3  HN  UNL     1      66.430   8.421   4.278  1.00  0.00     0.167 HD
HETATM    4  N   UNL     1      64.393   7.455   6.550  1.00  0.00    -0.340 N 
HETATM    5  C   UNL     1      66.479   7.160   6.017  1.00  0.00     0.060 A 
HETATM    6  C   UNL     1      65.523   6.800   6.957  1.00  0.00     0.060 A 
HETATM    7  C   UNL     1      67.784   6.660   6.145  1.00  0.00     0.032 A 
HETATM    8  C   UNL     1      65.784   5.957   8.039  1.00  0.00     0.032 A 
HETATM    9  C   UNL     1      67.090   5.469   8.151  1.00  0.00     0.002 A 
HETATM   10  C   UNL     1      68.075   5.812   7.223  1.00  0.00     0.002 A 
HETATM   11  H   UNL     1      63.519   7.422   7.004  1.00  0.00     0.167 HD
ENDROOT
BRANCH   1  12
HETATM   12  C   UNL     1      63.679   9.004   4.714  1.00  0.00     0.034 A 
HETATM   13  C   UNL     1      63.066   8.574   3.514  1.00  0.00     0.039 A 
HETATM   14  C   UNL     1      62.191   9.441   2.845  1.00  0.00     0.030 A 
HETATM   15  C   UNL     1      61.847  10.679   3.391  1.00  0.00     0.002 A 
HETATM   16  C   UNL     1      62.397  11.078   4.603  1.00  0.00     0.001 A 
HETATM   17  C   UNL     1      63.308  10.249   5.259  1.00  0.00     0.017 A 
BRANCH  13  18
HETATM   18  N   UNL     1      63.482   7.401   2.849  1.00  0.00    -0.398 N 
HETATM   19  H   UNL     1      63.726   7.435   1.896  1.00  0.00     0.156 HD
HETATM   20  H   UNL     1      63.528   6.547   3.338  1.00  0.00     0.156 HD
ENDBRANCH  13  18
ENDBRANCH   1  12
TORSDOF 2
ENDMDL
MODEL 3
REMARK VINA RESULT:      -5.8      0.948      5.987
REMARK  2 active torsions:
REMARK  status: ('A' for Active; 'I' for Inactive)
REMARK    1  A    between atoms: C_1  and  C_5 
REMARK    2  A    between atoms: C_8  and  N_9 
ROOT
HETATM    1  C   UNL     1      64.924   7.738   5.507  1.00  0.00     0.118 A 
HETATM    2  N   UNL     1      64.386   7.325   4.369  1.00  0.00    -0.340 N 
ATOM      3  HN  UNL     1      64.563   6.442   3.892  1.00  0.00     0.167 HD
HETATM    4  N   UNL     1      64.423   8.978   5.839  1.00  0.00    -0.340 N 
HETATM    5  C   UNL     1      63.539   8.330   3.962  1.00  0.00     0.060 A 
HETATM    6  C   UNL     1      63.546   9.380   4.869  1.00  0.00     0.060 A 
HETATM    7  C   UNL     1      62.720   8.414   2.827  1.00  0.00     0.032 A 
HETATM    8  C   UNL     1      62.775  10.534   4.719  1.00  0.00     0.032 A 
HETATM    9  C   UNL     1      61.963  10.601   3.581  1.00  0.00     0.002 A 
HETATM   10  C   UNL     1      61.934   9.561   2.649  1.00  0.00     0.002 A 
HETATM   11  H   UNL     1      64.659   9.493   6.645  1.00  0.00     0.167 HD
ENDROOT
BRANCH   1  12
HETATM   12  C   UNL     1      65.879   7.004   6.351  1.00  0.00     0.034 A 
HETATM   13  C   UNL     1      67.223   6.822   5.947  1.00  0.00     0.039 A 
HETATM   14  C   UNL     1      68.075   6.041   6.741  1.00  0.00     0.030 A 
HETATM   15  C   UNL     1      67.645   5.522   7.963  1.00  0.00     0.002 A 
HETATM   16  C   UNL     1      66.345   5.753   8.395  1.00  0.00     0.001 A 
HETATM   17  C   UNL     1      65.467   6.487   7.594  1.00  0.00     0.017 A 
BRANCH  13  18
HETATM   18  N   UNL     1      67.667   7.202   4.663  1.00  0.00    -0.398 N 
HETATM   19  H   UNL     1      68.203   6.576   4.122  1.00  0.00     0.156 HD
HETATM   20  H   UNL     1      67.444   8.092   4.307  1.00  0.00     0.156 HD
ENDBRANCH  13  18
ENDBRANCH   1  12
TORSDOF 2
ENDMDL
MODEL 4
REMARK VINA RESULT:      -5.7      1.010      5.878
REMARK  2 active torsions:
REMARK  status: ('A' for Active; 'I' for Inactive)
REMARK    1  A    between atoms: C_1  and  C_5 
REMARK    2  A    between atoms: C_8  and  N_9 
ROOT
HETATM    1  C   UNL     1      64.610   7.856   5.295  1.00  0.00     0.118 A 
HETATM    2  N   UNL     1      64.122   9.025   5.686  1.00  0.00    -0.340 N 
ATOM      3  HN  UNL     1      64.305   9.501   6.569  1.00  0.00     0.167 HD
HETATM    4  N   UNL     1      64.145   7.553   4.034  1.00  0.00    -0.340 N 
HETATM    5  C   UNL     1      63.319   9.464   4.660  1.00  0.00     0.060 A 
HETATM    6  C   UNL     1      63.316   8.556   3.610  1.00  0.00     0.060 A 
HETATM    7  C   UNL     1      62.562  10.639   4.548  1.00  0.00     0.032 A 
HETATM    8  C   UNL     1      62.594   8.743   2.430  1.00  0.00     0.032 A 
HETATM    9  C   UNL     1      61.846   9.921   2.335  1.00  0.00     0.002 A 
HETATM   10  C   UNL     1      61.828  10.855   3.373  1.00  0.00     0.002 A 
HETATM   11  H   UNL     1      64.372   6.744   3.520  1.00  0.00     0.167 HD
ENDROOT
BRANCH   1  12
HETATM   12  C   UNL     1      65.545   6.996   6.036  1.00  0.00     0.034 A 
HETATM   13  C   UNL     1      66.942   7.090   5.834  1.00  0.00     0.039 A 
HETATM   14  C   UNL     1      67.790   6.191   6.496  1.00  0.00     0.030 A 
HETATM   15  C   UNL     1      67.287   5.273   7.418  1.00  0.00     0.002 A 
HETATM   16  C   UNL     1      65.921   5.221   7.669  1.00  0.00     0.001 A 
HETATM   17  C   UNL     1      65.056   6.075   6.982  1.00  0.00     0.017 A 
BRANCH  13  18
HETATM   18  N   UNL     1      67.490   7.898   4.814  1.00  0.00    -0.398 N 
HETATM   19  H   UNL     1      67.393   8.877   4.856  1.00  0.00     0.156 HD
HETATM   20  H   UNL     1      67.967   7.483   4.060  1.00  0.00     0.156 HD
ENDBRANCH  13  18
ENDBRANCH   1  12
TORSDOF 2
ENDMDL
MODEL 5
REMARK VINA RESULT:      -5.1      1.876      2.510
REMARK  2 active torsions:
REMARK  status: ('A' for Active; 'I' for Inactive)
REMARK    1  A    between atoms: C_1  and  C_5 
REMARK    2  A    between atoms: C_8  and  N_9 
ROOT
HETATM    1  C   UNL     1      63.326   7.734   4.471  1.00  0.00     0.118 A 
HETATM    2  N   UNL     1      64.598   7.424   4.679  1.00  0.00    -0.340 N 
ATOM      3  HN  UNL     1      65.415   7.950   4.370  1.00  0.00     0.167 HD
HETATM    4  N   UNL     1      62.512   6.788   5.055  1.00  0.00    -0.340 N 
HETATM    5  C   UNL     1      64.591   6.251   5.395  1.00  0.00     0.060 A 
HETATM    6  C   UNL     1      63.292   5.830   5.644  1.00  0.00     0.060 A 
HETATM    7  C   UNL     1      65.661   5.484   5.879  1.00  0.00     0.032 A 
HETATM    8  C   UNL     1      62.979   4.672   6.358  1.00  0.00     0.032 A 
HETATM    9  C   UNL     1      64.059   3.920   6.834  1.00  0.00     0.002 A 
HETATM   10  C   UNL     1      65.378   4.316   6.601  1.00  0.00     0.002 A 
HETATM   11  H   UNL     1      61.528   6.800   5.050  1.00  0.00     0.167 HD
ENDROOT
BRANCH   1  12
HETATM   12  C   UNL     1      62.808   8.919   3.770  1.00  0.00     0.034 A 
HETATM   13  C   UNL     1      62.693  10.166   4.429  1.00  0.00     0.039 A 
HETATM   14  C   UNL     1      62.112  11.246   3.749  1.00  0.00     0.030 A 
HETATM   15  C   UNL     1      61.735  11.135   2.410  1.00  0.00     0.002 A 
HETATM   16  C   UNL     1      61.907   9.931   1.740  1.00  0.00     0.001 A 
HETATM   17  C   UNL     1      62.438   8.829   2.415  1.00  0.00     0.017 A 
BRANCH  13  18
HETATM   18  N   UNL     1      62.925  10.295   5.815  1.00  0.00    -0.398 N 
HETATM   19  H   UNL     1      62.716   9.548   6.421  1.00  0.00     0.156 HD
HETATM   20  H   UNL     1      63.293  11.133   6.177  1.00  0.00     0.156 HD
ENDBRANCH  13  18
ENDBRANCH   1  12
TORSDOF 2
ENDMDL
MODEL 6
REMARK VINA RESULT:      -5.1      1.927      2.539
REMARK  2 active torsions:
REMARK  status: ('A' for Active; 'I' for Inactive)
REMARK    1  A    between atoms: C_1  and  C_5 
REMARK    2  A    between atoms: C_8  and  N_9 
ROOT
HETATM    1  C   UNL     1      64.709   6.758   6.125  1.00  0.00     0.118 A 
HETATM    2  N   UNL     1      65.178   7.293   7.242  1.00  0.00    -0.340 N 
ATOM      3  HN  UNL     1      64.863   8.153   7.690  1.00  0.00     0.167 HD
HETATM    4  N   UNL     1      65.380   5.587   5.848  1.00  0.00    -0.340 N 
HETATM    5  C   UNL     1      66.178   6.454   7.674  1.00  0.00     0.060 A 
HETATM    6  C   UNL     1      66.325   5.375   6.814  1.00  0.00     0.060 A 
HETATM    7  C   UNL     1      67.005   6.544   8.804  1.00  0.00     0.032 A 
HETATM    8  C   UNL     1      67.259   4.356   7.007  1.00  0.00     0.032 A 
HETATM    9  C   UNL     1      68.075   4.461   8.139  1.00  0.00     0.002 A 
HETATM   10  C   UNL     1      67.953   5.535   9.024  1.00  0.00     0.002 A 
HETATM   11  H   UNL     1      65.208   4.998   5.078  1.00  0.00     0.167 HD
ENDROOT
BRANCH   1  12
HETATM   12  C   UNL     1      63.609   7.271   5.293  1.00  0.00     0.034 A 
HETATM   13  C   UNL     1      62.274   6.854   5.508  1.00  0.00     0.039 A 
HETATM   14  C   UNL     1      61.270   7.300   4.637  1.00  0.00     0.030 A 
HETATM   15  C   UNL     1      61.552   8.218   3.623  1.00  0.00     0.002 A 
HETATM   16  C   UNL     1      62.851   8.680   3.450  1.00  0.00     0.001 A 
HETATM   17  C   UNL     1      63.873   8.209   4.276  1.00  0.00     0.017 A 
BRANCH  13  18
HETATM   18  N   UNL     1      61.957   5.826   6.422  1.00  0.00    -0.398 N 
HETATM   19  H   UNL     1      62.516   5.016   6.464  1.00  0.00     0.156 HD
HETATM   20  H   UNL     1      61.177   5.917   7.015  1.00  0.00     0.156 HD
ENDBRANCH  13  18
ENDBRANCH   1  12
TORSDOF 2
ENDMDL
MODEL 7
REMARK VINA RESULT:      -4.8      1.505      6.076
REMARK  2 active torsions:
REMARK  status: ('A' for Active; 'I' for Inactive)
REMARK    1  A    between atoms: C_1  and  C_5 
REMARK    2  A    between atoms: C_8  and  N_9 
ROOT
HETATM    1  C   UNL     1      64.793   6.846   6.111  1.00  0.00     0.118 A 
HETATM    2  N   UNL     1      63.610   6.254   6.032  1.00  0.00    -0.340 N 
ATOM      3  HN  UNL     1      63.317   5.402   6.509  1.00  0.00     0.167 HD
HETATM    4  N   UNL     1      64.801   7.983   5.334  1.00  0.00    -0.340 N 
HETATM    5  C   UNL     1      62.858   7.022   5.174  1.00  0.00     0.060 A 
HETATM    6  C   UNL     1      63.584   8.114   4.721  1.00  0.00     0.060 A 
HETATM    7  C   UNL     1      61.536   6.853   4.737  1.00  0.00     0.032 A 
HETATM    8  C   UNL     1      63.072   9.072   3.844  1.00  0.00     0.032 A 
HETATM    9  C   UNL     1      61.751   8.888   3.420  1.00  0.00     0.002 A 
HETATM   10  C   UNL     1      60.994   7.800   3.857  1.00  0.00     0.002 A 
HETATM   11  H   UNL     1      65.560   8.602   5.235  1.00  0.00     0.167 HD
ENDROOT
BRANCH   1  12
HETATM   12  C   UNL     1      65.941   6.420   6.927  1.00  0.00     0.034 A 
HETATM   13  C   UNL     1      67.041   5.746   6.347  1.00  0.00     0.039 A 
HETATM   14  C   UNL     1      68.072   5.282   7.175  1.00  0.00     0.030 A 
HETATM   15  C   UNL     1      68.075   5.556   8.544  1.00  0.00     0.002 A 
HETATM   16  C   UNL     1      67.028   6.275   9.108  1.00  0.00     0.001 A 
HETATM   17  C   UNL     1      65.967   6.702   8.307  1.00  0.00     0.017 A 
BRANCH  13  18
HETATM   18  N   UNL     1      67.023   5.322   5.001  1.00  0.00    -0.398 N 
HETATM   19  H   UNL     1      66.214   5.451   4.455  1.00  0.00     0.156 HD
HETATM   20  H   UNL     1      67.818   4.894   4.609  1.00  0.00     0.156 HD
ENDBRANCH  13  18
ENDBRANCH   1  12
TORSDOF 2
ENDMDL
MODEL 8
REMARK VINA RESULT:      -4.7      5.276      6.624
REMARK  2 active torsions:
REMARK  status: ('A' for Active; 'I' for Inactive)
REMARK    1  A    between atoms: C_1  and  C_5 
REMARK    2  A    between atoms: C_8  and  N_9 
ROOT
HETATM    1  C   UNL     1      59.699   7.418   3.483  1.00  0.00     0.118 A 
HETATM    2  N   UNL     1      58.432   7.774   3.628  1.00  0.00    -0.340 N 
ATOM      3  HN  UNL     1      57.901   8.411   3.033  1.00  0.00     0.167 HD
HETATM    4  N   UNL     1      60.053   6.530   4.475  1.00  0.00    -0.340 N 
HETATM    5  C   UNL     1      57.976   7.112   4.743  1.00  0.00     0.060 A 
HETATM    6  C   UNL     1      58.977   6.324   5.294  1.00  0.00     0.060 A 
HETATM    7  C   UNL     1      56.710   7.128   5.347  1.00  0.00     0.032 A 
HETATM    8  C   UNL     1      58.799   5.533   6.430  1.00  0.00     0.032 A 
HETATM    9  C   UNL     1      57.529   5.559   7.018  1.00  0.00     0.002 A 
HETATM   10  C   UNL     1      56.501   6.342   6.489  1.00  0.00     0.002 A 
HETATM   11  H   UNL     1      60.938   6.111   4.578  1.00  0.00     0.167 HD
ENDROOT
BRANCH   1  12
HETATM   12  C   UNL     1      60.620   7.840   2.415  1.00  0.00     0.034 A 
HETATM   13  C   UNL     1      61.406   9.009   2.547  1.00  0.00     0.039 A 
HETATM   14  C   UNL     1      62.203   9.422   1.470  1.00  0.00     0.030 A 
HETATM   15  C   UNL     1      62.303   8.649   0.312  1.00  0.00     0.002 A 
HETATM   16  C   UNL     1      61.583   7.466   0.204  1.00  0.00     0.001 A 
HETATM   17  C   UNL     1      60.745   7.065   1.246  1.00  0.00     0.017 A 
BRANCH  13  18
HETATM   18  N   UNL     1      61.237   9.897   3.631  1.00  0.00    -0.398 N 
HETATM   19  H   UNL     1      61.799   9.806   4.434  1.00  0.00     0.156 HD
HETATM   20  H   UNL     1      60.555  10.606   3.586  1.00  0.00     0.156 HD
ENDBRANCH  13  18
ENDBRANCH   1  12
TORSDOF 2
ENDMDL
MODEL 9
REMARK VINA RESULT:      -4.5      4.594      5.644
REMARK  2 active torsions:
REMARK  status: ('A' for Active; 'I' for Inactive)
REMARK    1  A    between atoms: C_1  and  C_5 
REMARK    2  A    between atoms: C_8  and  N_9 
ROOT
HETATM    1  C   UNL     1      60.738   6.968   3.903  1.00  0.00     0.118 A 
HETATM    2  N   UNL     1      61.399   6.548   4.971  1.00  0.00    -0.340 N 
ATOM      3  HN  UNL     1      62.410   6.543   5.103  1.00  0.00     0.167 HD
HETATM    4  N   UNL     1      59.382   6.830   4.108  1.00  0.00    -0.340 N 
HETATM    5  C   UNL     1      60.447   6.120   5.865  1.00  0.00     0.060 A 
HETATM    6  C   UNL     1      59.170   6.286   5.345  1.00  0.00     0.060 A 
HETATM    7  C   UNL     1      60.595   5.581   7.151  1.00  0.00     0.032 A 
HETATM    8  C   UNL     1      58.006   5.945   6.035  1.00  0.00     0.032 A 
HETATM    9  C   UNL     1      58.172   5.410   7.317  1.00  0.00     0.002 A 
HETATM   10  C   UNL     1      59.443   5.230   7.869  1.00  0.00     0.002 A 
HETATM   11  H   UNL     1      58.678   7.082   3.467  1.00  0.00     0.167 HD
ENDROOT
BRANCH   1  12
HETATM   12  C   UNL     1      61.311   7.546   2.678  1.00  0.00     0.034 A 
HETATM   13  C   UNL     1      61.584   8.931   2.580  1.00  0.00     0.039 A 
HETATM   14  C   UNL     1      62.049   9.451   1.364  1.00  0.00     0.030 A 
HETATM   15  C   UNL     1      62.333   8.614   0.284  1.00  0.00     0.002 A 
HETATM   16  C   UNL     1      62.128   7.244   0.397  1.00  0.00     0.001 A 
HETATM   17  C   UNL     1      61.619   6.713   1.584  1.00  0.00     0.017 A 
BRANCH  13  18
HETATM   18  N   UNL     1      61.185   9.836   3.586  1.00  0.00    -0.398 N 
HETATM   19  H   UNL     1      60.586   9.538   4.308  1.00  0.00     0.156 HD
HETATM   20  H   UNL     1      61.504  10.767   3.565  1.00  0.00     0.156 HD
ENDBRANCH  13  18
ENDBRANCH   1  12
TORSDOF 2
ENDMDL
