MODEL 1
REMARK VINA RESULT:      -5.0      0.000      0.000
REMARK  1 active torsions:
REMARK  status: ('A' for Active; 'I' for Inactive)
REMARK    1  A    between atoms: C_1  and  C_5 
ROOT
HETATM    1  C   UNL     1      65.089   8.135   5.506  1.00  0.00     0.191 A 
HETATM    2  N   UNL     1      64.663   7.575   4.386  1.00  0.00    -0.337 N 
ATOM      3  HN  UNL     1      65.007   6.713   3.961  1.00  0.00     0.167 HD
HETATM    4  N   UNL     1      64.383   9.290   5.764  1.00  0.00    -0.337 N 
HETATM    5  C   UNL     1      63.666   8.387   3.912  1.00  0.00     0.060 A 
HETATM    6  C   UNL     1      63.467   9.471   4.759  1.00  0.00     0.060 A 
HETATM    7  C   UNL     1      62.882   8.260   2.758  1.00  0.00     0.032 A 
HETATM    8  C   UNL     1      62.508  10.460   4.521  1.00  0.00     0.032 A 
HETATM    9  C   UNL     1      61.734  10.318   3.363  1.00  0.00     0.002 A 
HETATM   10  C   UNL     1      61.915   9.238   2.495  1.00  0.00     0.002 A 
HETATM   11  H   UNL     1      64.514   9.884   6.538  1.00  0.00     0.167 HD
ENDROOT
BRANCH   1  12
HETATM   12  C   UNL     1      66.157   7.666   6.435  1.00  0.00     0.449 C 
HETATM   13  F   UNL     1      67.051   6.840   5.837  1.00  0.00    -0.163 F 
HETATM   14  F   UNL     1      66.860   8.699   6.969  1.00  0.00    -0.163 F 
HETATM   15  F   UNL     1      65.631   6.982   7.487  1.00  0.00    -0.163 F 
ENDBRANCH   1  12
TORSDOF 1
ENDMDL
MODEL 2
REMARK VINA RESULT:      -5.0      0.853      2.039
REMARK  1 active torsions:
REMARK  status: ('A' for Active; 'I' for Inactive)
REMARK    1  A    between atoms: C_1  and  C_5 
ROOT
HETATM    1  C   UNL     1      64.364   8.098   5.353  1.00  0.00     0.191 A 
HETATM    2  N   UNL     1      63.825   9.277   5.619  1.00  0.00    -0.337 N 
ATOM      3  HN  UNL     1      63.922   9.816   6.480  1.00  0.00     0.167 HD
HETATM    4  N   UNL     1      64.013   7.684   4.087  1.00  0.00    -0.337 N 
HETATM    5  C   UNL     1      63.109   9.626   4.503  1.00  0.00     0.060 A 
HETATM    6  C   UNL     1      63.211   8.645   3.524  1.00  0.00     0.060 A 
HETATM    7  C   UNL     1      62.344  10.773   4.254  1.00  0.00     0.032 A 
HETATM    8  C   UNL     1      62.583   8.741   2.279  1.00  0.00     0.032 A 
HETATM    9  C   UNL     1      61.821   9.893   2.047  1.00  0.00     0.002 A 
HETATM   10  C   UNL     1      61.701  10.893   3.015  1.00  0.00     0.002 A 
HETATM   11  H   UNL     1      64.289   6.842   3.658  1.00  0.00     0.167 HD
ENDROOT
BRANCH   1  12
HETATM   12  C   UNL     1      65.247   7.262   6.216  1.00  0.00     0.449 C 
HETATM   13  F   UNL     1      66.352   7.924   6.637  1.00  0.00    -0.163 F 
HETATM   14  F   UNL     1      64.601   6.811   7.323  1.00  0.00    -0.163 F 
HETATM   15  F   UNL     1      65.679   6.155   5.552  1.00  0.00    -0.163 F 
ENDBRANCH   1  12
TORSDOF 1
ENDMDL
MODEL 3
REMARK VINA RESULT:      -4.6      3.107      4.947
REMARK  1 active torsions:
REMARK  status: ('A' for Active; 'I' for Inactive)
REMARK    1  A    between atoms: C_1  and  C_5 
ROOT
HETATM    1  C   UNL     1      63.574   8.875   4.397  1.00  0.00     0.191 A 
HETATM    2  N   UNL     1      64.371   9.157   5.415  1.00  0.00    -0.337 N 
ATOM      3  HN  UNL     1      64.261   9.914   6.090  1.00  0.00     0.167 HD
HETATM    4  N   UNL     1      64.042   7.777   3.709  1.00  0.00    -0.337 N 
HETATM    5  C   UNL     1      65.375   8.223   5.378  1.00  0.00     0.060 A 
HETATM    6  C   UNL     1      65.192   7.343   4.318  1.00  0.00     0.060 A 
HETATM    7  C   UNL     1      66.480   8.066   6.224  1.00  0.00     0.032 A 
HETATM    8  C   UNL     1      66.066   6.287   4.045  1.00  0.00     0.032 A 
HETATM    9  C   UNL     1      67.167   6.145   4.898  1.00  0.00     0.002 A 
HETATM   10  C   UNL     1      67.373   7.018   5.970  1.00  0.00     0.002 A 
HETATM   11  H   UNL     1      63.624   7.373   2.915  1.00  0.00     0.167 HD
ENDROOT
BRANCH   1  12
HETATM   12  C   UNL     1      62.322   9.567   3.975  1.00  0.00     0.449 C 
HETATM   13  F   UNL     1      61.230   8.767   4.040  1.00  0.00    -0.163 F 
HETATM   14  F   UNL     1      62.064  10.664   4.734  1.00  0.00    -0.163 F 
HETATM   15  F   UNL     1      62.412  10.008   2.690  1.00  0.00    -0.163 F 
ENDBRANCH   1  12
TORSDOF 1
ENDMDL
MODEL 4
REMARK VINA RESULT:      -4.4      1.946      2.709
REMARK  1 active torsions:
REMARK  status: ('A' for Active; 'I' for Inactive)
REMARK    1  A    between atoms: C_1  and  C_5 
ROOT
HETATM    1  C   UNL     1      65.768   6.718   7.245  1.00  0.00     0.191 A 
HETATM    2  N   UNL     1      64.682   6.042   6.907  1.00  0.00    -0.337 N 
ATOM      3  HN  UNL     1      64.396   5.127   7.255  1.00  0.00     0.167 HD
HETATM    4  N   UNL     1      65.817   7.919   6.572  1.00  0.00    -0.337 N 
HETATM    5  C   UNL     1      64.021   6.823   5.995  1.00  0.00     0.060 A 
HETATM    6  C   UNL     1      64.709   8.008   5.767  1.00  0.00     0.060 A 
HETATM    7  C   UNL     1      62.819   6.581   5.317  1.00  0.00     0.032 A 
HETATM    8  C   UNL     1      64.260   8.993   4.883  1.00  0.00     0.032 A 
HETATM    9  C   UNL     1      63.058   8.735   4.212  1.00  0.00     0.002 A 
HETATM   10  C   UNL     1      62.348   7.551   4.423  1.00  0.00     0.002 A 
HETATM   11  H   UNL     1      66.525   8.597   6.653  1.00  0.00     0.167 HD
ENDROOT
BRANCH   1  12
HETATM   12  C   UNL     1      66.840   6.337   8.210  1.00  0.00     0.449 C 
HETATM   13  F   UNL     1      67.152   7.337   9.072  1.00  0.00    -0.163 F 
HETATM   14  F   UNL     1      66.494   5.256   8.957  1.00  0.00    -0.163 F 
HETATM   15  F   UNL     1      67.989   6.000   7.564  1.00  0.00    -0.163 F 
ENDBRANCH   1  12
TORSDOF 1
ENDMDL
MODEL 5
REMARK VINA RESULT:      -4.4      2.753      5.384
REMARK  1 active torsions:
REMARK  status: ('A' for Active; 'I' for Inactive)
REMARK    1  A    between atoms: C_1  and  C_5 
ROOT
HETATM    1  C   UNL     1      64.898   7.294   5.649  1.00  0.00     0.191 A 
HETATM    2  N   UNL     1      65.646   6.277   5.252  1.00  0.00    -0.337 N 
ATOM      3  HN  UNL     1      65.638   5.831   4.335  1.00  0.00     0.167 HD
HETATM    4  N   UNL     1      65.192   7.625   6.954  1.00  0.00    -0.337 N 
HETATM    5  C   UNL     1      66.432   5.945   6.325  1.00  0.00     0.060 A 
HETATM    6  C   UNL     1      66.170   6.777   7.407  1.00  0.00     0.060 A 
HETATM    7  C   UNL     1      67.399   4.939   6.446  1.00  0.00     0.032 A 
HETATM    8  C   UNL     1      66.831   6.665   8.633  1.00  0.00     0.032 A 
HETATM    9  C   UNL     1      67.793   5.653   8.738  1.00  0.00     0.002 A 
HETATM   10  C   UNL     1      68.075   4.803   7.665  1.00  0.00     0.002 A 
HETATM   11  H   UNL     1      64.771   8.348   7.474  1.00  0.00     0.167 HD
ENDROOT
BRANCH   1  12
HETATM   12  C   UNL     1      63.872   8.053   4.878  1.00  0.00     0.449 C 
HETATM   13  F   UNL     1      63.984   9.395   5.031  1.00  0.00    -0.163 F 
HETATM   14  F   UNL     1      63.937   7.792   3.547  1.00  0.00    -0.163 F 
HETATM   15  F   UNL     1      62.612   7.715   5.269  1.00  0.00    -0.163 F 
ENDBRANCH   1  12
TORSDOF 1
ENDMDL
MODEL 6
REMARK VINA RESULT:      -4.3      1.530      2.074
REMARK  1 active torsions:
REMARK  status: ('A' for Active; 'I' for Inactive)
REMARK    1  A    between atoms: C_1  and  C_5 
ROOT
HETATM    1  C   UNL     1      65.402   7.796   6.081  1.00  0.00     0.191 A 
HETATM    2  N   UNL     1      65.183   8.324   4.888  1.00  0.00    -0.337 N 
ATOM      3  HN  UNL     1      65.851   8.837   4.311  1.00  0.00     0.167 HD
HETATM    4  N   UNL     1      64.264   7.177   6.548  1.00  0.00    -0.337 N 
HETATM    5  C   UNL     1      63.877   8.043   4.584  1.00  0.00     0.060 A 
HETATM    6  C   UNL     1      63.275   7.321   5.608  1.00  0.00     0.060 A 
HETATM    7  C   UNL     1      63.133   8.373   3.443  1.00  0.00     0.032 A 
HETATM    8  C   UNL     1      61.945   6.896   5.562  1.00  0.00     0.032 A 
HETATM    9  C   UNL     1      61.216   7.236   4.416  1.00  0.00     0.002 A 
HETATM   10  C   UNL     1      61.797   7.962   3.373  1.00  0.00     0.002 A 
HETATM   11  H   UNL     1      64.174   6.711   7.411  1.00  0.00     0.167 HD
ENDROOT
BRANCH   1  12
HETATM   12  C   UNL     1      66.658   7.799   6.885  1.00  0.00     0.449 C 
HETATM   13  F   UNL     1      66.547   7.093   8.037  1.00  0.00    -0.163 F 
HETATM   14  F   UNL     1      67.708   7.282   6.195  1.00  0.00    -0.163 F 
HETATM   15  F   UNL     1      67.019   9.065   7.232  1.00  0.00    -0.163 F 
ENDBRANCH   1  12
TORSDOF 1
ENDMDL
MODEL 7
REMARK VINA RESULT:      -4.1      5.104      6.114
REMARK  1 active torsions:
REMARK  status: ('A' for Active; 'I' for Inactive)
REMARK    1  A    between atoms: C_1  and  C_5 
ROOT
HETATM    1  C   UNL     1      60.701   8.567   2.122  1.00  0.00     0.191 A 
HETATM    2  N   UNL     1      60.275   8.354   3.356  1.00  0.00    -0.337 N 
ATOM      3  HN  UNL     1      60.764   8.583   4.222  1.00  0.00     0.167 HD
HETATM    4  N   UNL     1      59.766   8.129   1.209  1.00  0.00    -0.337 N 
HETATM    5  C   UNL     1      59.043   7.765   3.235  1.00  0.00     0.060 A 
HETATM    6  C   UNL     1      58.697   7.613   1.898  1.00  0.00     0.060 A 
HETATM    7  C   UNL     1      58.158   7.331   4.230  1.00  0.00     0.032 A 
HETATM    8  C   UNL     1      57.491   7.042   1.481  1.00  0.00     0.032 A 
HETATM    9  C   UNL     1      56.619   6.612   2.489  1.00  0.00     0.002 A 
HETATM   10  C   UNL     1      56.944   6.752   3.840  1.00  0.00     0.002 A 
HETATM   11  H   UNL     1      59.850   8.178   0.230  1.00  0.00     0.167 HD
ENDROOT
BRANCH   1  12
HETATM   12  C   UNL     1      61.978   9.191   1.671  1.00  0.00     0.449 C 
HETATM   13  F   UNL     1      62.216   9.009   0.349  1.00  0.00    -0.163 F 
HETATM   14  F   UNL     1      62.002  10.530   1.904  1.00  0.00    -0.163 F 
HETATM   15  F   UNL     1      63.044   8.671   2.339  1.00  0.00    -0.163 F 
ENDBRANCH   1  12
TORSDOF 1
ENDMDL
MODEL 8
REMARK VINA RESULT:      -4.1      3.118      4.104
REMARK  1 active torsions:
REMARK  status: ('A' for Active; 'I' for Inactive)
REMARK    1  A    between atoms: C_1  and  C_5 
ROOT
HETATM    1  C   UNL     1      63.119   7.025   2.507  1.00  0.00     0.191 A 
HETATM    2  N   UNL     1      63.181   7.593   3.701  1.00  0.00    -0.337 N 
ATOM      3  HN  UNL     1      63.496   7.161   4.570  1.00  0.00     0.167 HD
HETATM    4  N   UNL     1      62.647   7.921   1.573  1.00  0.00    -0.337 N 
HETATM    5  C   UNL     1      62.735   8.878   3.532  1.00  0.00     0.060 A 
HETATM    6  C   UNL     1      62.395   9.113   2.205  1.00  0.00     0.060 A 
HETATM    7  C   UNL     1      62.594   9.906   4.473  1.00  0.00     0.032 A 
HETATM    8  C   UNL     1      61.913  10.342   1.747  1.00  0.00     0.032 A 
HETATM    9  C   UNL     1      61.777  11.358   2.700  1.00  0.00     0.002 A 
HETATM   10  C   UNL     1      62.111  11.147   4.041  1.00  0.00     0.002 A 
HETATM   11  H   UNL     1      62.512   7.738   0.615  1.00  0.00     0.167 HD
ENDROOT
BRANCH   1  12
HETATM   12  C   UNL     1      63.493   5.636   2.116  1.00  0.00     0.449 C 
HETATM   13  F   UNL     1      62.434   4.790   2.100  1.00  0.00    -0.163 F 
HETATM   14  F   UNL     1      64.064   5.588   0.884  1.00  0.00    -0.163 F 
HETATM   15  F   UNL     1      64.405   5.109   2.977  1.00  0.00    -0.163 F 
ENDBRANCH   1  12
TORSDOF 1
ENDMDL
MODEL 9
REMARK VINA RESULT:      -4.0     12.801     13.716
REMARK  1 active torsions:
REMARK  status: ('A' for Active; 'I' for Inactive)
REMARK    1  A    between atoms: C_1  and  C_5 
ROOT
HETATM    1  C   UNL     1      55.629   2.933  13.459  1.00  0.00     0.191 A 
HETATM    2  N   UNL     1      56.265   2.226  14.379  1.00  0.00    -0.337 N 
ATOM      3  HN  UNL     1      55.971   2.068  15.344  1.00  0.00     0.167 HD
HETATM    4  N   UNL     1      56.328   2.916  12.272  1.00  0.00    -0.337 N 
HETATM    5  C   UNL     1      57.398   1.749  13.773  1.00  0.00     0.060 A 
HETATM    6  C   UNL     1      57.462   2.165  12.448  1.00  0.00     0.060 A 
HETATM    7  C   UNL     1      58.422   0.948  14.295  1.00  0.00     0.032 A 
HETATM    8  C   UNL     1      58.511   1.821  11.591  1.00  0.00     0.032 A 
HETATM    9  C   UNL     1      59.527   1.022  12.130  1.00  0.00     0.002 A 
HETATM   10  C   UNL     1      59.486   0.592  13.458  1.00  0.00     0.002 A 
HETATM   11  H   UNL     1      56.060   3.367  11.439  1.00  0.00     0.167 HD
ENDROOT
BRANCH   1  12
HETATM   12  C   UNL     1      54.336   3.667  13.577  1.00  0.00     0.449 C 
HETATM   13  F   UNL     1      54.439   4.801  14.313  1.00  0.00    -0.163 F 
HETATM   14  F   UNL     1      53.836   4.019  12.364  1.00  0.00    -0.163 F 
HETATM   15  F   UNL     1      53.383   2.896  14.170  1.00  0.00    -0.163 F 
ENDBRANCH   1  12
TORSDOF 1
ENDMDL
