MODEL 1
REMARK VINA RESULT:      -5.6      0.000      0.000
REMARK  4 active torsions:
REMARK  status: ('A' for Active; 'I' for Inactive)
REMARK    1  A    between atoms: C_1  and  C_6 
REMARK    2  A    between atoms: C_2  and  N_7 
REMARK    3  A    between atoms: C_6  and  O_9 
REMARK    4  A    between atoms: O_9  and  C_12 
ROOT
HETATM    1  C   UNL     1      63.508   9.177   4.865  1.00  0.00     0.080 A 
HETATM    2  C   UNL     1      63.034  10.468   5.064  1.00  0.00     0.085 A 
HETATM    3  S   UNL     1      61.998  10.985   3.798  1.00  0.00    -0.076 SA
HETATM    4  C   UNL     1      63.018   8.644   3.603  1.00  0.00    -0.026 A 
HETATM    5  C   UNL     1      62.172   9.525   2.959  1.00  0.00    -0.008 A 
HETATM    6  C   UNL     1      63.327   7.293   3.016  1.00  0.00     0.041 C 
HETATM    7  C   UNL     1      61.505   9.288   1.638  1.00  0.00     0.047 C 
HETATM    8  C   UNL     1      62.982   7.224   1.522  1.00  0.00     0.005 C 
HETATM    9  C   UNL     1      61.596   7.809   1.234  1.00  0.00     0.005 C 
ENDROOT
BRANCH   1  10
HETATM   10  C   UNL     1      64.389   8.433   5.781  1.00  0.00     0.296 C 
HETATM   11  O   UNL     1      64.036   7.412   6.361  1.00  0.00    -0.259 OA
BRANCH  10  12
HETATM   12  O   UNL     1      65.638   8.976   5.927  1.00  0.00    -0.318 OA
BRANCH  12  13
HETATM   13  C   UNL     1      66.701   8.030   6.115  1.00  0.00     0.174 C 
HETATM   14  C   UNL     1      67.317   7.630   4.785  1.00  0.00     0.034 C 
ENDBRANCH  12  13
ENDBRANCH  10  12
ENDBRANCH   1  10
BRANCH   2  15
HETATM   15  N   UNL     1      63.279  11.317   6.085  1.00  0.00    -0.393 N 
HETATM   16  H   UNL     1      63.172  12.287   5.956  1.00  0.00     0.156 HD
HETATM   17  H   UNL     1      63.566  10.965   6.960  1.00  0.00     0.156 HD
ENDBRANCH   2  15
TORSDOF 4
ENDMDL
MODEL 2
REMARK VINA RESULT:      -5.3      2.177      2.854
REMARK  4 active torsions:
REMARK  status: ('A' for Active; 'I' for Inactive)
REMARK    1  A    between atoms: C_1  and  C_6 
REMARK    2  A    between atoms: C_2  and  N_7 
REMARK    3  A    between atoms: C_6  and  O_9 
REMARK    4  A    between atoms: O_9  and  C_12 
ROOT
HETATM    1  C   UNL     1      63.743   7.840   4.488  1.00  0.00     0.080 A 
HETATM    2  C   UNL     1      63.762   6.699   3.696  1.00  0.00     0.085 A 
HETATM    3  S   UNL     1      63.031   6.954   2.166  1.00  0.00    -0.076 SA
HETATM    4  C   UNL     1      63.062   8.925   3.800  1.00  0.00    -0.026 A 
HETATM    5  C   UNL     1      62.661   8.566   2.529  1.00  0.00    -0.008 A 
HETATM    6  C   UNL     1      62.810  10.310   4.333  1.00  0.00     0.041 C 
HETATM    7  C   UNL     1      61.927   9.446   1.563  1.00  0.00     0.047 C 
HETATM    8  C   UNL     1      61.734  11.049   3.525  1.00  0.00     0.005 C 
HETATM    9  C   UNL     1      61.967  10.913   2.016  1.00  0.00     0.005 C 
ENDROOT
BRANCH   1  10
HETATM   10  C   UNL     1      64.317   7.959   5.839  1.00  0.00     0.296 C 
HETATM   11  O   UNL     1      63.849   7.382   6.814  1.00  0.00    -0.259 OA
BRANCH  10  12
HETATM   12  O   UNL     1      65.421   8.766   5.914  1.00  0.00    -0.318 OA
BRANCH  12  13
HETATM   13  C   UNL     1      66.644   8.102   6.268  1.00  0.00     0.174 C 
HETATM   14  C   UNL     1      67.447   7.741   5.030  1.00  0.00     0.034 C 
ENDBRANCH  12  13
ENDBRANCH  10  12
ENDBRANCH   1  10
BRANCH   2  15
HETATM   15  N   UNL     1      64.266   5.477   3.975  1.00  0.00    -0.393 N 
HETATM   16  H   UNL     1      63.823   4.903   4.641  1.00  0.00     0.156 HD
HETATM   17  H   UNL     1      65.076   5.161   3.513  1.00  0.00     0.156 HD
ENDBRANCH   2  15
TORSDOF 4
ENDMDL
MODEL 3
REMARK VINA RESULT:      -5.3      1.036      1.389
REMARK  4 active torsions:
REMARK  status: ('A' for Active; 'I' for Inactive)
REMARK    1  A    between atoms: C_1  and  C_6 
REMARK    2  A    between atoms: C_2  and  N_7 
REMARK    3  A    between atoms: C_6  and  O_9 
REMARK    4  A    between atoms: O_9  and  C_12 
ROOT
HETATM    1  C   UNL     1      63.603   9.194   4.878  1.00  0.00     0.080 A 
HETATM    2  C   UNL     1      63.092  10.473   5.067  1.00  0.00     0.085 A 
HETATM    3  S   UNL     1      61.995  10.927   3.829  1.00  0.00    -0.076 SA
HETATM    4  C   UNL     1      63.086   8.617   3.647  1.00  0.00    -0.026 A 
HETATM    5  C   UNL     1      62.188   9.455   3.015  1.00  0.00    -0.008 A 
HETATM    6  C   UNL     1      63.419   7.265   3.077  1.00  0.00     0.041 C 
HETATM    7  C   UNL     1      61.483   9.167   1.724  1.00  0.00     0.047 C 
HETATM    8  C   UNL     1      63.024   7.150   1.598  1.00  0.00     0.005 C 
HETATM    9  C   UNL     1      61.609   7.683   1.349  1.00  0.00     0.005 C 
ENDROOT
BRANCH   1  10
HETATM   10  C   UNL     1      64.540   8.500   5.776  1.00  0.00     0.296 C 
HETATM   11  O   UNL     1      65.700   8.863   5.936  1.00  0.00    -0.259 OA
BRANCH  10  12
HETATM   12  O   UNL     1      64.006   7.416   6.421  1.00  0.00    -0.318 OA
BRANCH  12  13
HETATM   13  C   UNL     1      64.954   6.420   6.836  1.00  0.00     0.174 C 
HETATM   14  C   UNL     1      64.982   5.254   5.862  1.00  0.00     0.034 C 
ENDBRANCH  12  13
ENDBRANCH  10  12
ENDBRANCH   1  10
BRANCH   2  15
HETATM   15  N   UNL     1      63.345  11.352   6.060  1.00  0.00    -0.393 N 
HETATM   16  H   UNL     1      63.704  11.033   6.920  1.00  0.00     0.156 HD
HETATM   17  H   UNL     1      63.170  12.311   5.925  1.00  0.00     0.156 HD
ENDBRANCH   2  15
TORSDOF 4
ENDMDL
MODEL 4
REMARK VINA RESULT:      -5.0      2.454      3.335
REMARK  4 active torsions:
REMARK  status: ('A' for Active; 'I' for Inactive)
REMARK    1  A    between atoms: C_1  and  C_6 
REMARK    2  A    between atoms: C_2  and  N_7 
REMARK    3  A    between atoms: C_6  and  O_9 
REMARK    4  A    between atoms: O_9  and  C_12 
ROOT
HETATM    1  C   UNL     1      64.476   7.763   4.832  1.00  0.00     0.080 A 
HETATM    2  C   UNL     1      64.494   6.624   4.036  1.00  0.00     0.085 A 
HETATM    3  S   UNL     1      63.502   6.783   2.646  1.00  0.00    -0.076 SA
HETATM    4  C   UNL     1      63.575   8.759   4.273  1.00  0.00    -0.026 A 
HETATM    5  C   UNL     1      63.018   8.346   3.079  1.00  0.00    -0.008 A 
HETATM    6  C   UNL     1      63.259  10.111   4.852  1.00  0.00     0.041 C 
HETATM    7  C   UNL     1      62.044   9.130   2.252  1.00  0.00     0.047 C 
HETATM    8  C   UNL     1      61.992  10.719   4.234  1.00  0.00     0.005 C 
HETATM    9  C   UNL     1      61.992  10.596   2.707  1.00  0.00     0.005 C 
ENDROOT
BRANCH   1  10
HETATM   10  C   UNL     1      65.242   7.957   6.074  1.00  0.00     0.296 C 
HETATM   11  O   UNL     1      66.104   8.820   6.196  1.00  0.00    -0.259 OA
BRANCH  10  12
HETATM   12  O   UNL     1      64.909   7.093   7.083  1.00  0.00    -0.318 OA
BRANCH  12  13
HETATM   13  C   UNL     1      65.969   6.233   7.530  1.00  0.00     0.174 C 
HETATM   14  C   UNL     1      66.388   6.575   8.949  1.00  0.00     0.034 C 
ENDBRANCH  12  13
ENDBRANCH  10  12
ENDBRANCH   1  10
BRANCH   2  15
HETATM   15  N   UNL     1      65.169   5.468   4.219  1.00  0.00    -0.393 N 
HETATM   16  H   UNL     1      64.716   4.691   4.617  1.00  0.00     0.156 HD
HETATM   17  H   UNL     1      66.116   5.404   3.954  1.00  0.00     0.156 HD
ENDBRANCH   2  15
TORSDOF 4
ENDMDL
MODEL 5
REMARK VINA RESULT:      -4.4      4.052      6.207
REMARK  4 active torsions:
REMARK  status: ('A' for Active; 'I' for Inactive)
REMARK    1  A    between atoms: C_1  and  C_6 
REMARK    2  A    between atoms: C_2  and  N_7 
REMARK    3  A    between atoms: C_6  and  O_9 
REMARK    4  A    between atoms: O_9  and  C_12 
ROOT
HETATM    1  C   UNL     1      67.188   6.490   6.367  1.00  0.00     0.080 A 
HETATM    2  C   UNL     1      67.398   6.268   7.723  1.00  0.00     0.085 A 
HETATM    3  S   UNL     1      67.799   4.636   8.063  1.00  0.00    -0.076 SA
HETATM    4  C   UNL     1      67.328   5.249   5.622  1.00  0.00    -0.026 A 
HETATM    5  C   UNL     1      67.683   4.191   6.434  1.00  0.00    -0.008 A 
HETATM    6  C   UNL     1      67.150   5.066   4.139  1.00  0.00     0.041 C 
HETATM    7  C   UNL     1      67.898   2.777   5.983  1.00  0.00     0.047 C 
HETATM    8  C   UNL     1      66.974   3.589   3.760  1.00  0.00     0.005 C 
HETATM    9  C   UNL     1      68.011   2.699   4.453  1.00  0.00     0.005 C 
ENDROOT
BRANCH   1  10
HETATM   10  C   UNL     1      66.861   7.785   5.748  1.00  0.00     0.296 C 
HETATM   11  O   UNL     1      67.584   8.329   4.921  1.00  0.00    -0.259 OA
BRANCH  10  12
HETATM   12  O   UNL     1      65.678   8.331   6.172  1.00  0.00    -0.318 OA
BRANCH  12  13
HETATM   13  C   UNL     1      64.495   7.641   5.741  1.00  0.00     0.174 C 
HETATM   14  C   UNL     1      64.133   8.016   4.314  1.00  0.00     0.034 C 
ENDBRANCH  12  13
ENDBRANCH  10  12
ENDBRANCH   1  10
BRANCH   2  15
HETATM   15  N   UNL     1      67.330   7.144   8.749  1.00  0.00    -0.393 N 
HETATM   16  H   UNL     1      68.131   7.332   9.290  1.00  0.00     0.156 HD
HETATM   17  H   UNL     1      66.479   7.593   8.957  1.00  0.00     0.156 HD
ENDBRANCH   2  15
TORSDOF 4
ENDMDL
MODEL 6
REMARK VINA RESULT:      -4.3      2.675      3.294
REMARK  4 active torsions:
REMARK  status: ('A' for Active; 'I' for Inactive)
REMARK    1  A    between atoms: C_1  and  C_6 
REMARK    2  A    between atoms: C_2  and  N_7 
REMARK    3  A    between atoms: C_6  and  O_9 
REMARK    4  A    between atoms: O_9  and  C_12 
ROOT
HETATM    1  C   UNL     1      62.261   6.963   4.465  1.00  0.00     0.080 A 
HETATM    2  C   UNL     1      61.667   5.874   3.838  1.00  0.00     0.085 A 
HETATM    3  S   UNL     1      61.027   6.277   2.298  1.00  0.00    -0.076 SA
HETATM    4  C   UNL     1      62.130   8.156   3.643  1.00  0.00    -0.026 A 
HETATM    5  C   UNL     1      61.506   7.894   2.440  1.00  0.00    -0.008 A 
HETATM    6  C   UNL     1      62.617   9.539   3.982  1.00  0.00     0.041 C 
HETATM    7  C   UNL     1      61.209   8.904   1.371  1.00  0.00     0.047 C 
HETATM    8  C   UNL     1      61.966  10.610   3.095  1.00  0.00     0.005 C 
HETATM    9  C   UNL     1      61.983  10.207   1.616  1.00  0.00     0.005 C 
ENDROOT
BRANCH   1  10
HETATM   10  C   UNL     1      62.927   6.942   5.777  1.00  0.00     0.296 C 
HETATM   11  O   UNL     1      62.414   7.400   6.792  1.00  0.00    -0.259 OA
BRANCH  10  12
HETATM   12  O   UNL     1      64.169   6.364   5.770  1.00  0.00    -0.318 OA
BRANCH  12  13
HETATM   13  C   UNL     1      65.166   7.042   6.552  1.00  0.00     0.174 C 
HETATM   14  C   UNL     1      65.912   8.067   5.715  1.00  0.00     0.034 C 
ENDBRANCH  12  13
ENDBRANCH  10  12
ENDBRANCH   1  10
BRANCH   2  15
HETATM   15  N   UNL     1      61.543   4.603   4.276  1.00  0.00    -0.393 N 
HETATM   16  H   UNL     1      62.342   4.037   4.375  1.00  0.00     0.156 HD
HETATM   17  H   UNL     1      60.653   4.242   4.497  1.00  0.00     0.156 HD
ENDBRANCH   2  15
TORSDOF 4
ENDMDL
MODEL 7
REMARK VINA RESULT:      -4.3      2.617      4.574
REMARK  4 active torsions:
REMARK  status: ('A' for Active; 'I' for Inactive)
REMARK    1  A    between atoms: C_1  and  C_6 
REMARK    2  A    between atoms: C_2  and  N_7 
REMARK    3  A    between atoms: C_6  and  O_9 
REMARK    4  A    between atoms: O_9  and  C_12 
ROOT
HETATM    1  C   UNL     1      63.735   7.989   3.940  1.00  0.00     0.080 A 
HETATM    2  C   UNL     1      64.201   8.769   4.991  1.00  0.00     0.085 A 
HETATM    3  S   UNL     1      65.731   8.245   5.564  1.00  0.00    -0.076 SA
HETATM    4  C   UNL     1      64.670   6.913   3.651  1.00  0.00    -0.026 A 
HETATM    5  C   UNL     1      65.795   6.973   4.449  1.00  0.00    -0.008 A 
HETATM    6  C   UNL     1      64.515   5.843   2.605  1.00  0.00     0.041 C 
HETATM    7  C   UNL     1      66.945   6.011   4.412  1.00  0.00     0.047 C 
HETATM    8  C   UNL     1      65.468   4.663   2.844  1.00  0.00     0.005 C 
HETATM    9  C   UNL     1      66.892   5.140   3.149  1.00  0.00     0.005 C 
ENDROOT
BRANCH   1  10
HETATM   10  C   UNL     1      62.473   8.195   3.209  1.00  0.00     0.296 C 
HETATM   11  O   UNL     1      61.373   7.986   3.708  1.00  0.00    -0.259 OA
BRANCH  10  12
HETATM   12  O   UNL     1      62.632   8.645   1.925  1.00  0.00    -0.318 OA
BRANCH  12  13
HETATM   13  C   UNL     1      61.640   9.580   1.475  1.00  0.00     0.174 C 
HETATM   14  C   UNL     1      61.923  10.975   2.008  1.00  0.00     0.034 C 
ENDBRANCH  12  13
ENDBRANCH  10  12
ENDBRANCH   1  10
BRANCH   2  15
HETATM   15  N   UNL     1      63.621   9.836   5.582  1.00  0.00    -0.393 N 
HETATM   16  H   UNL     1      63.543  10.687   5.093  1.00  0.00     0.156 HD
HETATM   17  H   UNL     1      63.276   9.762   6.502  1.00  0.00     0.156 HD
ENDBRANCH   2  15
TORSDOF 4
ENDMDL
MODEL 8
REMARK VINA RESULT:      -4.2      1.961      2.459
REMARK  4 active torsions:
REMARK  status: ('A' for Active; 'I' for Inactive)
REMARK    1  A    between atoms: C_1  and  C_6 
REMARK    2  A    between atoms: C_2  and  N_7 
REMARK    3  A    between atoms: C_6  and  O_9 
REMARK    4  A    between atoms: O_9  and  C_12 
ROOT
HETATM    1  C   UNL     1      63.536   7.102   4.258  1.00  0.00     0.080 A 
HETATM    2  C   UNL     1      63.670   7.941   5.359  1.00  0.00     0.085 A 
HETATM    3  S   UNL     1      63.047   9.511   5.062  1.00  0.00    -0.076 SA
HETATM    4  C   UNL     1      62.937   7.819   3.143  1.00  0.00    -0.026 A 
HETATM    5  C   UNL     1      62.608   9.118   3.475  1.00  0.00    -0.008 A 
HETATM    6  C   UNL     1      62.653   7.271   1.771  1.00  0.00     0.041 C 
HETATM    7  C   UNL     1      61.985  10.124   2.555  1.00  0.00     0.047 C 
HETATM    8  C   UNL     1      62.403   8.387   0.747  1.00  0.00     0.005 C 
HETATM    9  C   UNL     1      61.437   9.446   1.290  1.00  0.00     0.005 C 
ENDROOT
BRANCH   1  10
HETATM   10  C   UNL     1      63.942   5.688   4.200  1.00  0.00     0.296 C 
HETATM   11  O   UNL     1      63.173   4.788   3.880  1.00  0.00    -0.259 OA
BRANCH  10  12
HETATM   12  O   UNL     1      65.251   5.463   4.531  1.00  0.00    -0.318 OA
BRANCH  12  13
HETATM   13  C   UNL     1      66.218   6.019   3.626  1.00  0.00     0.174 C 
HETATM   14  C   UNL     1      67.181   6.941   4.354  1.00  0.00     0.034 C 
ENDBRANCH  12  13
ENDBRANCH  10  12
ENDBRANCH   1  10
BRANCH   2  15
HETATM   15  N   UNL     1      64.203   7.676   6.571  1.00  0.00    -0.393 N 
HETATM   16  H   UNL     1      63.777   8.031   7.384  1.00  0.00     0.156 HD
HETATM   17  H   UNL     1      65.018   7.128   6.641  1.00  0.00     0.156 HD
ENDBRANCH   2  15
TORSDOF 4
ENDMDL
MODEL 9
REMARK VINA RESULT:      -4.0     10.341     11.637
REMARK  4 active torsions:
REMARK  status: ('A' for Active; 'I' for Inactive)
REMARK    1  A    between atoms: C_1  and  C_6 
REMARK    2  A    between atoms: C_2  and  N_7 
REMARK    3  A    between atoms: C_6  and  O_9 
REMARK    4  A    between atoms: O_9  and  C_12 
ROOT
HETATM    1  C   UNL     1      58.741   2.150  10.334  1.00  0.00     0.080 A 
HETATM    2  C   UNL     1      59.514   1.374   9.479  1.00  0.00     0.085 A 
HETATM    3  S   UNL     1      60.195   0.012  10.269  1.00  0.00    -0.076 SA
HETATM    4  C   UNL     1      58.766   1.601  11.681  1.00  0.00    -0.026 A 
HETATM    5  C   UNL     1      59.498   0.432  11.753  1.00  0.00    -0.008 A 
HETATM    6  C   UNL     1      58.080   2.165  12.895  1.00  0.00     0.041 C 
HETATM    7  C   UNL     1      59.729  -0.379  12.993  1.00  0.00     0.047 C 
HETATM    8  C   UNL     1      58.640   1.576  14.197  1.00  0.00     0.005 C 
HETATM    9  C   UNL     1      58.774   0.051  14.117  1.00  0.00     0.005 C 
ENDROOT
BRANCH   1  10
HETATM   10  C   UNL     1      57.998   3.364   9.959  1.00  0.00     0.296 C 
HETATM   11  O   UNL     1      56.815   3.348   9.639  1.00  0.00    -0.259 OA
BRANCH  10  12
HETATM   12  O   UNL     1      58.740   4.515  10.000  1.00  0.00    -0.318 OA
BRANCH  12  13
HETATM   13  C   UNL     1      58.987   5.132   8.727  1.00  0.00     0.174 C 
HETATM   14  C   UNL     1      58.625   6.608   8.757  1.00  0.00     0.034 C 
ENDBRANCH  12  13
ENDBRANCH  10  12
ENDBRANCH   1  10
BRANCH   2  15
HETATM   15  N   UNL     1      59.776   1.557   8.166  1.00  0.00    -0.393 N 
HETATM   16  H   UNL     1      59.402   2.336   7.694  1.00  0.00     0.156 HD
HETATM   17  H   UNL     1      60.339   0.911   7.682  1.00  0.00     0.156 HD
ENDBRANCH   2  15
TORSDOF 4
ENDMDL
