MODEL 1
REMARK VINA RESULT:      -5.0      0.000      0.000
REMARK  1 active torsions:
REMARK  status: ('A' for Active; 'I' for Inactive)
REMARK    1  A    between atoms: C_4  and  O_10 
ROOT
HETATM    1  C   UNL     1      63.152   9.124   4.708  1.00  0.00     0.079 A 
HETATM    2  N   UNL     1      64.374   7.500   6.315  1.00  0.00    -0.191 NA
HETATM    3  C   UNL     1      63.820   8.207   5.580  1.00  0.00     0.102 C 
HETATM    4  C   UNL     1      62.794  10.409   5.133  1.00  0.00     0.086 A 
HETATM    5  C   UNL     1      62.863   8.728   3.395  1.00  0.00     0.049 A 
HETATM    6  C   UNL     1      62.150  11.288   4.261  1.00  0.00     0.040 A 
HETATM    7  C   UNL     1      62.239   9.619   2.522  1.00  0.00     0.035 A 
HETATM    8  C   UNL     1      61.878  10.895   2.950  1.00  0.00     0.026 A 
HETATM    9 CL   UNL     1      61.924   9.142   0.900  1.00  0.00    -0.084 Cl
ENDROOT
BRANCH   4  10
HETATM   10  O   UNL     1      63.043  10.897   6.386  1.00  0.00    -0.359 OA
HETATM   11  H   UNL     1      63.474  10.359   7.021  1.00  0.00     0.217 HD
ENDBRANCH   4  10
TORSDOF 1
ENDMDL
MODEL 2
REMARK VINA RESULT:      -4.9      2.237      2.727
REMARK  1 active torsions:
REMARK  status: ('A' for Active; 'I' for Inactive)
REMARK    1  A    between atoms: C_4  and  O_10 
ROOT
HETATM    1  C   UNL     1      62.679   9.911   4.012  1.00  0.00     0.079 A 
HETATM    2  N   UNL     1      63.112  11.149   6.247  1.00  0.00    -0.191 NA
HETATM    3  C   UNL     1      62.923  10.571   5.257  1.00  0.00     0.102 C 
HETATM    4  C   UNL     1      61.982  10.541   2.974  1.00  0.00     0.086 A 
HETATM    5  C   UNL     1      63.163   8.609   3.825  1.00  0.00     0.049 A 
HETATM    6  C   UNL     1      61.764   9.878   1.765  1.00  0.00     0.040 A 
HETATM    7  C   UNL     1      62.960   7.961   2.606  1.00  0.00     0.035 A 
HETATM    8  C   UNL     1      62.260   8.588   1.578  1.00  0.00     0.026 A 
HETATM    9 CL   UNL     1      63.592   6.378   2.369  1.00  0.00    -0.084 Cl
ENDROOT
BRANCH   4  10
HETATM   10  O   UNL     1      61.482  11.812   3.050  1.00  0.00    -0.359 OA
HETATM   11  H   UNL     1      60.810  12.087   2.458  1.00  0.00     0.217 HD
ENDBRANCH   4  10
TORSDOF 1
ENDMDL
MODEL 3
REMARK VINA RESULT:      -4.5      2.280      2.842
REMARK  1 active torsions:
REMARK  status: ('A' for Active; 'I' for Inactive)
REMARK    1  A    between atoms: C_4  and  O_10 
ROOT
HETATM    1  C   UNL     1      62.545   8.593   4.097  1.00  0.00     0.079 A 
HETATM    2  N   UNL     1      62.900   7.915   6.572  1.00  0.00    -0.191 NA
HETATM    3  C   UNL     1      62.745   8.244   5.470  1.00  0.00     0.102 C 
HETATM    4  C   UNL     1      62.596   7.631   3.082  1.00  0.00     0.086 A 
HETATM    5  C   UNL     1      62.276   9.929   3.767  1.00  0.00     0.049 A 
HETATM    6  C   UNL     1      62.389   7.996   1.751  1.00  0.00     0.040 A 
HETATM    7  C   UNL     1      62.049  10.282   2.436  1.00  0.00     0.035 A 
HETATM    8  C   UNL     1      62.108   9.324   1.428  1.00  0.00     0.026 A 
HETATM    9 CL   UNL     1      61.680  11.916   2.042  1.00  0.00    -0.084 Cl
ENDROOT
BRANCH   4  10
HETATM   10  O   UNL     1      62.836   6.302   3.300  1.00  0.00    -0.359 OA
HETATM   11  H   UNL     1      62.616   5.672   2.642  1.00  0.00     0.217 HD
ENDBRANCH   4  10
TORSDOF 1
ENDMDL
MODEL 4
REMARK VINA RESULT:      -4.3      3.118      3.731
REMARK  1 active torsions:
REMARK  status: ('A' for Active; 'I' for Inactive)
REMARK    1  A    between atoms: C_4  and  O_10 
ROOT
HETATM    1  C   UNL     1      62.391   9.263   2.788  1.00  0.00     0.079 A 
HETATM    2  N   UNL     1      61.597   8.529   0.434  1.00  0.00    -0.191 NA
HETATM    3  C   UNL     1      61.972   8.840   1.488  1.00  0.00     0.102 C 
HETATM    4  C   UNL     1      62.005  10.502   3.315  1.00  0.00     0.086 A 
HETATM    5  C   UNL     1      63.195   8.410   3.556  1.00  0.00     0.049 A 
HETATM    6  C   UNL     1      62.422  10.888   4.589  1.00  0.00     0.040 A 
HETATM    7  C   UNL     1      63.590   8.794   4.838  1.00  0.00     0.035 A 
HETATM    8  C   UNL     1      63.210  10.030   5.356  1.00  0.00     0.026 A 
HETATM    9 CL   UNL     1      64.544   7.725   5.791  1.00  0.00    -0.084 Cl
ENDROOT
BRANCH   4  10
HETATM   10  O   UNL     1      61.212  11.399   2.654  1.00  0.00    -0.359 OA
HETATM   11  H   UNL     1      60.969  11.242   1.763  1.00  0.00     0.217 HD
ENDBRANCH   4  10
TORSDOF 1
ENDMDL
MODEL 5
REMARK VINA RESULT:      -4.3      2.451      3.396
REMARK  1 active torsions:
REMARK  status: ('A' for Active; 'I' for Inactive)
REMARK    1  A    between atoms: C_4  and  O_10 
ROOT
HETATM    1  C   UNL     1      63.190   9.105   3.998  1.00  0.00     0.079 A 
HETATM    2  N   UNL     1      61.641  11.181   4.094  1.00  0.00    -0.191 NA
HETATM    3  C   UNL     1      62.326  10.246   4.027  1.00  0.00     0.102 C 
HETATM    4  C   UNL     1      64.256   8.971   4.895  1.00  0.00     0.086 A 
HETATM    5  C   UNL     1      62.950   8.094   3.057  1.00  0.00     0.049 A 
HETATM    6  C   UNL     1      65.079   7.845   4.852  1.00  0.00     0.040 A 
HETATM    7  C   UNL     1      63.764   6.961   3.034  1.00  0.00     0.035 A 
HETATM    8  C   UNL     1      64.828   6.834   3.924  1.00  0.00     0.026 A 
HETATM    9 CL   UNL     1      63.441   5.704   1.904  1.00  0.00    -0.084 Cl
ENDROOT
BRANCH   4  10
HETATM   10  O   UNL     1      64.564   9.893   5.858  1.00  0.00    -0.359 OA
HETATM   11  H   UNL     1      63.894  10.447   6.208  1.00  0.00     0.217 HD
ENDBRANCH   4  10
TORSDOF 1
ENDMDL
MODEL 6
REMARK VINA RESULT:      -4.3      1.808      2.167
REMARK  1 active torsions:
REMARK  status: ('A' for Active; 'I' for Inactive)
REMARK    1  A    between atoms: C_4  and  O_10 
ROOT
HETATM    1  C   UNL     1      62.574   8.568   3.910  1.00  0.00     0.079 A 
HETATM    2  N   UNL     1      62.805   6.042   3.382  1.00  0.00    -0.191 NA
HETATM    3  C   UNL     1      62.686   7.176   3.597  1.00  0.00     0.102 C 
HETATM    4  C   UNL     1      62.888   9.060   5.183  1.00  0.00     0.086 A 
HETATM    5  C   UNL     1      62.153   9.458   2.913  1.00  0.00     0.049 A 
HETATM    6  C   UNL     1      62.778  10.423   5.460  1.00  0.00     0.040 A 
HETATM    7  C   UNL     1      62.066  10.822   3.192  1.00  0.00     0.035 A 
HETATM    8  C   UNL     1      62.373  11.308   4.461  1.00  0.00     0.026 A 
HETATM    9 CL   UNL     1      61.588  11.915   1.952  1.00  0.00    -0.084 Cl
ENDROOT
BRANCH   4  10
HETATM   10  O   UNL     1      63.321   8.278   6.218  1.00  0.00    -0.359 OA
HETATM   11  H   UNL     1      63.439   8.651   7.069  1.00  0.00     0.217 HD
ENDBRANCH   4  10
TORSDOF 1
ENDMDL
MODEL 7
REMARK VINA RESULT:      -4.2      1.895      2.722
REMARK  1 active torsions:
REMARK  status: ('A' for Active; 'I' for Inactive)
REMARK    1  A    between atoms: C_4  and  O_10 
ROOT
HETATM    1  C   UNL     1      63.130   9.488   4.523  1.00  0.00     0.079 A 
HETATM    2  N   UNL     1      63.077  11.354   6.320  1.00  0.00    -0.191 NA
HETATM    3  C   UNL     1      63.093  10.535   5.497  1.00  0.00     0.102 C 
HETATM    4  C   UNL     1      63.856   8.311   4.742  1.00  0.00     0.086 A 
HETATM    5  C   UNL     1      62.410   9.641   3.331  1.00  0.00     0.049 A 
HETATM    6  C   UNL     1      63.870   7.301   3.779  1.00  0.00     0.040 A 
HETATM    7  C   UNL     1      62.411   8.617   2.383  1.00  0.00     0.035 A 
HETATM    8  C   UNL     1      63.140   7.450   2.600  1.00  0.00     0.026 A 
HETATM    9 CL   UNL     1      61.493   8.794   0.938  1.00  0.00    -0.084 Cl
ENDROOT
BRANCH   4  10
HETATM   10  O   UNL     1      64.578   8.058   5.876  1.00  0.00    -0.359 OA
HETATM   11  H   UNL     1      64.506   7.226   6.301  1.00  0.00     0.217 HD
ENDBRANCH   4  10
TORSDOF 1
ENDMDL
MODEL 8
REMARK VINA RESULT:      -4.0      3.431      4.407
REMARK  1 active torsions:
REMARK  status: ('A' for Active; 'I' for Inactive)
REMARK    1  A    between atoms: C_4  and  O_10 
ROOT
HETATM    1  C   UNL     1      63.220   9.102   4.103  1.00  0.00     0.079 A 
HETATM    2  N   UNL     1      61.617  11.134   3.985  1.00  0.00    -0.191 NA
HETATM    3  C   UNL     1      62.342  10.230   4.062  1.00  0.00     0.102 C 
HETATM    4  C   UNL     1      63.118   8.060   3.174  1.00  0.00     0.086 A 
HETATM    5  C   UNL     1      64.215   9.050   5.089  1.00  0.00     0.049 A 
HETATM    6  C   UNL     1      63.993   6.975   3.230  1.00  0.00     0.040 A 
HETATM    7  C   UNL     1      65.100   7.971   5.125  1.00  0.00     0.035 A 
HETATM    8  C   UNL     1      64.991   6.933   4.203  1.00  0.00     0.026 A 
HETATM    9 CL   UNL     1      66.345   7.932   6.313  1.00  0.00    -0.084 Cl
ENDROOT
BRANCH   4  10
HETATM   10  O   UNL     1      62.193   8.024   2.166  1.00  0.00    -0.359 OA
HETATM   11  H   UNL     1      61.493   8.645   2.151  1.00  0.00     0.217 HD
ENDBRANCH   4  10
TORSDOF 1
ENDMDL
MODEL 9
REMARK VINA RESULT:      -4.0      1.420      1.751
REMARK  1 active torsions:
REMARK  status: ('A' for Active; 'I' for Inactive)
REMARK    1  A    between atoms: C_4  and  O_10 
ROOT
HETATM    1  C   UNL     1      64.124   8.278   4.746  1.00  0.00     0.079 A 
HETATM    2  N   UNL     1      65.864   7.822   6.611  1.00  0.00    -0.191 NA
HETATM    3  C   UNL     1      65.086   8.002   5.768  1.00  0.00     0.102 C 
HETATM    4  C   UNL     1      63.282   9.395   4.817  1.00  0.00     0.086 A 
HETATM    5  C   UNL     1      64.034   7.418   3.644  1.00  0.00     0.049 A 
HETATM    6  C   UNL     1      62.357   9.648   3.804  1.00  0.00     0.040 A 
HETATM    7  C   UNL     1      63.121   7.689   2.624  1.00  0.00     0.035 A 
HETATM    8  C   UNL     1      62.281   8.797   2.701  1.00  0.00     0.026 A 
HETATM    9 CL   UNL     1      63.044   6.651   1.254  1.00  0.00    -0.084 Cl
ENDROOT
BRANCH   4  10
HETATM   10  O   UNL     1      63.301  10.302   5.840  1.00  0.00    -0.359 OA
HETATM   11  H   UNL     1      63.853  11.057   5.787  1.00  0.00     0.217 HD
ENDBRANCH   4  10
TORSDOF 1
ENDMDL
