MODEL 1
REMARK VINA RESULT:      -4.7      0.000      0.000
REMARK  4 active torsions:
REMARK  status: ('A' for Active; 'I' for Inactive)
REMARK    1  A    between atoms: C_1  and  C_6 
REMARK    2  A    between atoms: C_3  and  C_7 
REMARK    3  A    between atoms: C_4  and  N_9 
REMARK    4  A    between atoms: C_6  and  O_10 
ROOT
HETATM    1  C   UNL     1      64.444   8.550   5.067  1.00  0.00     0.106 A 
HETATM    2  S   UNL     1      64.036   7.448   3.806  1.00  0.00    -0.086 SA
HETATM    3  C   UNL     1      62.800   8.463   3.172  1.00  0.00    -0.007 A 
HETATM    4  C   UNL     1      63.630   9.662   5.009  1.00  0.00     0.050 A 
HETATM    5  C   UNL     1      62.696   9.609   3.946  1.00  0.00     0.045 A 
ENDROOT
BRANCH   1   6
HETATM    6  C   UNL     1      65.517   8.201   5.983  1.00  0.00     0.302 C 
HETATM    7  O   UNL     1      66.291   8.978   6.538  1.00  0.00    -0.259 OA
BRANCH   6   8
HETATM    8  O   UNL     1      65.564   6.842   6.164  1.00  0.00    -0.322 OA
HETATM    9  C   UNL     1      65.664   6.421   7.523  1.00  0.00     0.213 C 
ENDBRANCH   6   8
ENDBRANCH   1   6
BRANCH   4  10
HETATM   10  N   UNL     1      63.675  10.712   5.850  1.00  0.00    -0.398 N 
HETATM   11  H   UNL     1      64.495  11.251   5.922  1.00  0.00     0.156 HD
HETATM   12  H   UNL     1      62.887  10.943   6.393  1.00  0.00     0.156 HD
ENDBRANCH   4  10
BRANCH   3  13
HETATM   13  C   UNL     1      61.938   8.073   1.962  1.00  0.00    -0.018 C 
HETATM   14  C   UNL     1      62.013   9.185   0.900  1.00  0.00     0.020 C 
HETATM   15  C   UNL     1      62.475   6.762   1.341  1.00  0.00     0.020 C 
HETATM   16  C   UNL     1      60.458   7.835   2.319  1.00  0.00     0.020 C 
ENDBRANCH   3  13
TORSDOF 4
ENDMDL
MODEL 2
REMARK VINA RESULT:      -4.6      0.332      1.171
REMARK  4 active torsions:
REMARK  status: ('A' for Active; 'I' for Inactive)
REMARK    1  A    between atoms: C_1  and  C_6 
REMARK    2  A    between atoms: C_3  and  C_7 
REMARK    3  A    between atoms: C_4  and  N_9 
REMARK    4  A    between atoms: C_6  and  O_10 
ROOT
HETATM    1  C   UNL     1      64.546   8.353   4.999  1.00  0.00     0.106 A 
HETATM    2  S   UNL     1      64.276   7.271   3.685  1.00  0.00    -0.086 SA
HETATM    3  C   UNL     1      62.983   8.205   3.041  1.00  0.00    -0.007 A 
HETATM    4  C   UNL     1      63.645   9.396   4.950  1.00  0.00     0.050 A 
HETATM    5  C   UNL     1      62.756   9.307   3.850  1.00  0.00     0.045 A 
ENDROOT
BRANCH   1   6
HETATM    6  C   UNL     1      65.611   8.058   5.943  1.00  0.00     0.302 C 
HETATM    7  O   UNL     1      66.297   8.873   6.556  1.00  0.00    -0.259 OA
BRANCH   6   8
HETATM    8  O   UNL     1      65.767   6.701   6.075  1.00  0.00    -0.322 OA
HETATM    9  C   UNL     1      65.563   6.200   7.395  1.00  0.00     0.213 C 
ENDBRANCH   6   8
ENDBRANCH   1   6
BRANCH   4  10
HETATM   10  N   UNL     1      63.572  10.413   5.829  1.00  0.00    -0.398 N 
HETATM   11  H   UNL     1      62.767  10.978   5.862  1.00  0.00     0.156 HD
HETATM   12  H   UNL     1      64.323  10.591   6.440  1.00  0.00     0.156 HD
ENDBRANCH   4  10
BRANCH   3  13
HETATM   13  C   UNL     1      62.200   7.792   1.786  1.00  0.00    -0.018 C 
HETATM   14  C   UNL     1      62.863   6.556   1.151  1.00  0.00     0.020 C 
HETATM   15  C   UNL     1      60.747   7.426   2.173  1.00  0.00     0.020 C 
HETATM   16  C   UNL     1      62.120   8.906   0.724  1.00  0.00     0.020 C 
ENDBRANCH   3  13
TORSDOF 4
ENDMDL
MODEL 3
REMARK VINA RESULT:      -4.6      1.943      2.529
REMARK  4 active torsions:
REMARK  status: ('A' for Active; 'I' for Inactive)
REMARK    1  A    between atoms: C_1  and  C_6 
REMARK    2  A    between atoms: C_3  and  C_7 
REMARK    3  A    between atoms: C_4  and  N_9 
REMARK    4  A    between atoms: C_6  and  O_10 
ROOT
HETATM    1  C   UNL     1      65.062   7.789   5.099  1.00  0.00     0.106 A 
HETATM    2  S   UNL     1      63.887   9.041   4.950  1.00  0.00    -0.086 SA
HETATM    3  C   UNL     1      63.194   8.369   3.526  1.00  0.00    -0.007 A 
HETATM    4  C   UNL     1      64.933   6.890   4.061  1.00  0.00     0.050 A 
HETATM    5  C   UNL     1      63.885   7.222   3.168  1.00  0.00     0.045 A 
ENDROOT
BRANCH   1   6
HETATM    6  C   UNL     1      65.991   7.829   6.216  1.00  0.00     0.302 C 
HETATM    7  O   UNL     1      66.529   8.827   6.689  1.00  0.00    -0.259 OA
BRANCH   6   8
HETATM    8  O   UNL     1      66.204   6.564   6.702  1.00  0.00    -0.322 OA
HETATM    9  C   UNL     1      66.085   6.437   8.118  1.00  0.00     0.213 C 
ENDBRANCH   6   8
ENDBRANCH   1   6
BRANCH   4  10
HETATM   10  N   UNL     1      65.697   5.798   3.870  1.00  0.00    -0.398 N 
HETATM   11  H   UNL     1      66.225   5.430   4.614  1.00  0.00     0.156 HD
HETATM   12  H   UNL     1      65.726   5.366   2.986  1.00  0.00     0.156 HD
ENDBRANCH   4  10
BRANCH   3  13
HETATM   13  C   UNL     1      62.023   9.024   2.778  1.00  0.00    -0.018 C 
HETATM   14  C   UNL     1      60.717   8.289   3.127  1.00  0.00     0.020 C 
HETATM   15  C   UNL     1      61.887  10.502   3.213  1.00  0.00     0.020 C 
HETATM   16  C   UNL     1      62.197   9.016   1.246  1.00  0.00     0.020 C 
ENDBRANCH   3  13
TORSDOF 4
ENDMDL
MODEL 4
REMARK VINA RESULT:      -4.3      2.400      3.109
REMARK  4 active torsions:
REMARK  status: ('A' for Active; 'I' for Inactive)
REMARK    1  A    between atoms: C_1  and  C_6 
REMARK    2  A    between atoms: C_3  and  C_7 
REMARK    3  A    between atoms: C_4  and  N_9 
REMARK    4  A    between atoms: C_6  and  O_10 
ROOT
HETATM    1  C   UNL     1      65.613   6.715   7.149  1.00  0.00     0.106 A 
HETATM    2  S   UNL     1      64.128   6.233   6.419  1.00  0.00    -0.086 SA
HETATM    3  C   UNL     1      64.227   7.423   5.181  1.00  0.00    -0.007 A 
HETATM    4  C   UNL     1      66.157   7.781   6.464  1.00  0.00     0.050 A 
HETATM    5  C   UNL     1      65.370   8.187   5.358  1.00  0.00     0.045 A 
ENDROOT
BRANCH   1   6
HETATM    6  C   UNL     1      66.083   5.997   8.323  1.00  0.00     0.302 C 
HETATM    7  O   UNL     1      66.663   6.476   9.293  1.00  0.00    -0.259 OA
BRANCH   6   8
HETATM    8  O   UNL     1      65.788   4.661   8.213  1.00  0.00    -0.322 OA
HETATM    9  C   UNL     1      66.879   3.838   7.803  1.00  0.00     0.213 C 
ENDBRANCH   6   8
ENDBRANCH   1   6
BRANCH   4  10
HETATM   10  N   UNL     1      67.308   8.407   6.772  1.00  0.00    -0.398 N 
HETATM   11  H   UNL     1      67.463   9.331   6.467  1.00  0.00     0.156 HD
HETATM   12  H   UNL     1      67.995   7.944   7.303  1.00  0.00     0.156 HD
ENDBRANCH   4  10
BRANCH   3  13
HETATM   13  C   UNL     1      63.146   7.598   4.103  1.00  0.00    -0.018 C 
HETATM   14  C   UNL     1      62.926   9.098   3.836  1.00  0.00     0.020 C 
HETATM   15  C   UNL     1      63.608   6.927   2.787  1.00  0.00     0.020 C 
HETATM   16  C   UNL     1      61.795   6.964   4.486  1.00  0.00     0.020 C 
ENDBRANCH   3  13
TORSDOF 4
ENDMDL
MODEL 5
REMARK VINA RESULT:      -4.3      1.825      2.676
REMARK  4 active torsions:
REMARK  status: ('A' for Active; 'I' for Inactive)
REMARK    1  A    between atoms: C_1  and  C_6 
REMARK    2  A    between atoms: C_3  and  C_7 
REMARK    3  A    between atoms: C_4  and  N_9 
REMARK    4  A    between atoms: C_6  and  O_10 
ROOT
HETATM    1  C   UNL     1      65.141   6.958   4.590  1.00  0.00     0.106 A 
HETATM    2  S   UNL     1      63.912   6.921   3.382  1.00  0.00    -0.086 SA
HETATM    3  C   UNL     1      63.312   8.480   3.792  1.00  0.00    -0.007 A 
HETATM    4  C   UNL     1      65.072   8.136   5.303  1.00  0.00     0.050 A 
HETATM    5  C   UNL     1      64.034   8.991   4.859  1.00  0.00     0.045 A 
ENDROOT
BRANCH   1   6
HETATM    6  C   UNL     1      66.038   5.820   4.712  1.00  0.00     0.302 C 
HETATM    7  O   UNL     1      65.792   4.655   4.411  1.00  0.00    -0.259 OA
BRANCH   6   8
HETATM    8  O   UNL     1      67.245   6.220   5.227  1.00  0.00    -0.322 OA
HETATM    9  C   UNL     1      67.745   5.406   6.287  1.00  0.00     0.213 C 
ENDBRANCH   6   8
ENDBRANCH   1   6
BRANCH   4  10
HETATM   10  N   UNL     1      65.879   8.485   6.322  1.00  0.00    -0.398 N 
HETATM   11  H   UNL     1      65.492   8.805   7.169  1.00  0.00     0.156 HD
HETATM   12  H   UNL     1      66.856   8.419   6.223  1.00  0.00     0.156 HD
ENDBRANCH   4  10
BRANCH   3  13
HETATM   13  C   UNL     1      62.114   9.127   3.081  1.00  0.00    -0.018 C 
HETATM   14  C   UNL     1      60.830   8.356   3.436  1.00  0.00     0.020 C 
HETATM   15  C   UNL     1      61.956  10.592   3.553  1.00  0.00     0.020 C 
HETATM   16  C   UNL     1      62.260   9.158   1.547  1.00  0.00     0.020 C 
ENDBRANCH   3  13
TORSDOF 4
ENDMDL
MODEL 6
REMARK VINA RESULT:      -4.0      2.660      5.057
REMARK  4 active torsions:
REMARK  status: ('A' for Active; 'I' for Inactive)
REMARK    1  A    between atoms: C_1  and  C_6 
REMARK    2  A    between atoms: C_3  and  C_7 
REMARK    3  A    between atoms: C_4  and  N_9 
REMARK    4  A    between atoms: C_6  and  O_10 
ROOT
HETATM    1  C   UNL     1      63.431   8.466   3.985  1.00  0.00     0.106 A 
HETATM    2  S   UNL     1      64.324   7.059   3.544  1.00  0.00    -0.086 SA
HETATM    3  C   UNL     1      65.463   7.253   4.819  1.00  0.00    -0.007 A 
HETATM    4  C   UNL     1      64.013   9.078   5.075  1.00  0.00     0.050 A 
HETATM    5  C   UNL     1      65.165   8.398   5.540  1.00  0.00     0.045 A 
ENDROOT
BRANCH   1   6
HETATM    6  C   UNL     1      62.256   8.823   3.206  1.00  0.00     0.302 C 
HETATM    7  O   UNL     1      61.219   9.328   3.631  1.00  0.00    -0.259 OA
BRANCH   6   8
HETATM    8  O   UNL     1      62.450   8.514   1.884  1.00  0.00    -0.322 OA
HETATM    9  C   UNL     1      61.330   8.770   1.037  1.00  0.00     0.213 C 
ENDBRANCH   6   8
ENDBRANCH   1   6
BRANCH   4  10
HETATM   10  N   UNL     1      63.575  10.203   5.671  1.00  0.00    -0.398 N 
HETATM   11  H   UNL     1      64.221  10.854   6.028  1.00  0.00     0.156 HD
HETATM   12  H   UNL     1      62.609  10.376   5.748  1.00  0.00     0.156 HD
ENDBRANCH   4  10
BRANCH   3  13
HETATM   13  C   UNL     1      66.644   6.295   5.035  1.00  0.00    -0.018 C 
HETATM   14  C   UNL     1      66.951   5.555   3.721  1.00  0.00     0.020 C 
HETATM   15  C   UNL     1      67.899   7.099   5.451  1.00  0.00     0.020 C 
HETATM   16  C   UNL     1      66.388   5.250   6.139  1.00  0.00     0.020 C 
ENDBRANCH   3  13
TORSDOF 4
ENDMDL
MODEL 7
REMARK VINA RESULT:      -4.0      2.868      5.316
REMARK  4 active torsions:
REMARK  status: ('A' for Active; 'I' for Inactive)
REMARK    1  A    between atoms: C_1  and  C_6 
REMARK    2  A    between atoms: C_3  and  C_7 
REMARK    3  A    between atoms: C_4  and  N_9 
REMARK    4  A    between atoms: C_6  and  O_10 
ROOT
HETATM    1  C   UNL     1      62.643   8.606   4.564  1.00  0.00     0.106 A 
HETATM    2  S   UNL     1      64.293   8.896   4.971  1.00  0.00    -0.086 SA
HETATM    3  C   UNL     1      64.499   7.346   5.689  1.00  0.00    -0.007 A 
HETATM    4  C   UNL     1      62.260   7.352   4.992  1.00  0.00     0.050 A 
HETATM    5  C   UNL     1      63.305   6.645   5.635  1.00  0.00     0.045 A 
ENDROOT
BRANCH   1   6
HETATM    6  C   UNL     1      61.899   9.646   3.872  1.00  0.00     0.302 C 
HETATM    7  O   UNL     1      61.769  10.815   4.227  1.00  0.00    -0.259 OA
BRANCH   6   8
HETATM    8  O   UNL     1      61.334   9.145   2.727  1.00  0.00    -0.322 OA
HETATM    9  C   UNL     1      61.986   9.532   1.518  1.00  0.00     0.213 C 
ENDBRANCH   6   8
ENDBRANCH   1   6
BRANCH   4  10
HETATM   10  N   UNL     1      61.037   6.811   4.842  1.00  0.00    -0.398 N 
HETATM   11  H   UNL     1      60.808   6.334   4.012  1.00  0.00     0.156 HD
HETATM   12  H   UNL     1      60.371   6.891   5.562  1.00  0.00     0.156 HD
ENDBRANCH   4  10
BRANCH   3  13
HETATM   13  C   UNL     1      65.820   6.892   6.328  1.00  0.00    -0.018 C 
HETATM   14  C   UNL     1      66.347   5.649   5.587  1.00  0.00     0.020 C 
HETATM   15  C   UNL     1      66.873   8.019   6.208  1.00  0.00     0.020 C 
HETATM   16  C   UNL     1      65.688   6.552   7.825  1.00  0.00     0.020 C 
ENDBRANCH   3  13
TORSDOF 4
ENDMDL
MODEL 8
REMARK VINA RESULT:      -3.9      1.937      2.166
REMARK  4 active torsions:
REMARK  status: ('A' for Active; 'I' for Inactive)
REMARK    1  A    between atoms: C_1  and  C_6 
REMARK    2  A    between atoms: C_3  and  C_7 
REMARK    3  A    between atoms: C_4  and  N_9 
REMARK    4  A    between atoms: C_6  and  O_10 
ROOT
HETATM    1  C   UNL     1      63.324   7.319   5.120  1.00  0.00     0.106 A 
HETATM    2  S   UNL     1      63.679   8.024   3.588  1.00  0.00    -0.086 SA
HETATM    3  C   UNL     1      62.055   7.898   3.034  1.00  0.00    -0.007 A 
HETATM    4  C   UNL     1      61.990   6.977   5.189  1.00  0.00     0.050 A 
HETATM    5  C   UNL     1      61.275   7.295   4.008  1.00  0.00     0.045 A 
ENDROOT
BRANCH   1   6
HETATM    6  C   UNL     1      64.398   7.171   6.089  1.00  0.00     0.302 C 
HETATM    7  O   UNL     1      64.278   7.066   7.307  1.00  0.00    -0.259 OA
BRANCH   6   8
HETATM    8  O   UNL     1      65.614   7.162   5.454  1.00  0.00    -0.322 OA
HETATM    9  C   UNL     1      66.615   7.975   6.063  1.00  0.00     0.213 C 
ENDBRANCH   6   8
ENDBRANCH   1   6
BRANCH   4  10
HETATM   10  N   UNL     1      61.382   6.399   6.241  1.00  0.00    -0.398 N 
HETATM   11  H   UNL     1      60.399   6.403   6.306  1.00  0.00     0.156 HD
HETATM   12  H   UNL     1      61.918   5.969   6.946  1.00  0.00     0.156 HD
ENDBRANCH   4  10
BRANCH   3  13
HETATM   13  C   UNL     1      61.613   8.352   1.634  1.00  0.00    -0.018 C 
HETATM   14  C   UNL     1      61.878   9.861   1.478  1.00  0.00     0.020 C 
HETATM   15  C   UNL     1      62.428   7.595   0.559  1.00  0.00     0.020 C 
HETATM   16  C   UNL     1      60.123   8.084   1.349  1.00  0.00     0.020 C 
ENDBRANCH   3  13
TORSDOF 4
ENDMDL
MODEL 9
REMARK VINA RESULT:      -3.7      3.256      3.980
REMARK  4 active torsions:
REMARK  status: ('A' for Active; 'I' for Inactive)
REMARK    1  A    between atoms: C_1  and  C_6 
REMARK    2  A    between atoms: C_3  and  C_7 
REMARK    3  A    between atoms: C_4  and  N_9 
REMARK    4  A    between atoms: C_6  and  O_10 
ROOT
HETATM    1  C   UNL     1      61.226   6.798   5.120  1.00  0.00     0.106 A 
HETATM    2  S   UNL     1      60.505   6.753   3.555  1.00  0.00    -0.086 SA
HETATM    3  C   UNL     1      61.633   7.867   2.887  1.00  0.00    -0.007 A 
HETATM    4  C   UNL     1      62.295   7.668   5.127  1.00  0.00     0.050 A 
HETATM    5  C   UNL     1      62.520   8.279   3.869  1.00  0.00     0.045 A 
ENDROOT
BRANCH   1   6
HETATM    6  C   UNL     1      60.658   5.977   6.177  1.00  0.00     0.302 C 
HETATM    7  O   UNL     1      60.725   6.186   7.386  1.00  0.00    -0.259 OA
BRANCH   6   8
HETATM    8  O   UNL     1      60.009   4.893   5.641  1.00  0.00    -0.322 OA
HETATM    9  C   UNL     1      58.741   4.604   6.226  1.00  0.00     0.213 C 
ENDBRANCH   6   8
ENDBRANCH   1   6
BRANCH   4  10
HETATM   10  N   UNL     1      63.075   7.945   6.189  1.00  0.00    -0.398 N 
HETATM   11  H   UNL     1      63.379   7.219   6.780  1.00  0.00     0.156 HD
HETATM   12  H   UNL     1      63.341   8.874   6.376  1.00  0.00     0.156 HD
ENDBRANCH   4  10
BRANCH   3  13
HETATM   13  C   UNL     1      61.575   8.339   1.426  1.00  0.00    -0.018 C 
HETATM   14  C   UNL     1      60.121   8.272   0.923  1.00  0.00     0.020 C 
HETATM   15  C   UNL     1      62.061   9.805   1.331  1.00  0.00     0.020 C 
HETATM   16  C   UNL     1      62.460   7.504   0.480  1.00  0.00     0.020 C 
ENDBRANCH   3  13
TORSDOF 4
ENDMDL
