MODEL 1
REMARK VINA RESULT:      -3.7      0.000      0.000
REMARK  0 active torsions:
REMARK  status: ('A' for Active; 'I' for Inactive)
ROOT
HETATM    1  N   UNL     1      63.132   9.432   5.562  1.00  0.00    -0.284 N 
ATOM      2  HN  UNL     1      63.634   8.848   6.231  1.00  0.00     0.188 HD
HETATM    3  C   UNL     1      62.285  11.216   4.441  1.00  0.00     0.068 A 
HETATM    4  C   UNL     1      63.077  10.758   5.513  1.00  0.00     0.114 A 
HETATM    5  N   UNL     1      62.374   9.038   4.524  1.00  0.00    -0.306 N 
HETATM    6  C   UNL     1      61.841  10.075   3.816  1.00  0.00     0.113 A 
HETATM    7  N   UNL     1      63.694  11.564   6.377  1.00  0.00    -0.384 N 
HETATM    8  C   UNL     1      62.189   7.635   4.249  1.00  0.00     0.177 C 
HETATM    9  H   UNL     1      63.612  12.541   6.284  1.00  0.00     0.157 HD
HETATM   10  H   UNL     1      64.233  11.183   7.107  1.00  0.00     0.157 HD
ENDROOT
TORSDOF 0
ENDMDL
MODEL 2
REMARK VINA RESULT:      -3.6      1.576      2.233
REMARK  0 active torsions:
REMARK  status: ('A' for Active; 'I' for Inactive)
ROOT
HETATM    1  N   UNL     1      62.337  11.757   4.433  1.00  0.00    -0.284 N 
ATOM      2  HN  UNL     1      62.146  12.759   4.450  1.00  0.00     0.188 HD
HETATM    3  C   UNL     1      62.960   9.653   5.019  1.00  0.00     0.068 A 
HETATM    4  C   UNL     1      62.836  11.003   5.406  1.00  0.00     0.114 A 
HETATM    5  N   UNL     1      62.145  10.894   3.421  1.00  0.00    -0.306 N 
HETATM    6  C   UNL     1      62.503   9.613   3.723  1.00  0.00     0.113 A 
HETATM    7  N   UNL     1      63.181  11.465   6.608  1.00  0.00    -0.384 N 
HETATM    8  C   UNL     1      61.606  11.354   2.165  1.00  0.00     0.177 C 
HETATM    9  H   UNL     1      63.545  10.850   7.286  1.00  0.00     0.157 HD
HETATM   10  H   UNL     1      63.071  12.420   6.818  1.00  0.00     0.157 HD
ENDROOT
TORSDOF 0
ENDMDL
MODEL 3
REMARK VINA RESULT:      -3.2      1.478      2.405
REMARK  0 active torsions:
REMARK  status: ('A' for Active; 'I' for Inactive)
ROOT
HETATM    1  N   UNL     1      62.631   9.282   3.603  1.00  0.00    -0.284 N 
ATOM      2  HN  UNL     1      62.612   8.511   2.935  1.00  0.00     0.188 HD
HETATM    3  C   UNL     1      62.315  11.292   4.610  1.00  0.00     0.068 A 
HETATM    4  C   UNL     1      62.084  10.486   3.478  1.00  0.00     0.114 A 
HETATM    5  N   UNL     1      63.215   9.315   4.813  1.00  0.00    -0.306 N 
HETATM    6  C   UNL     1      63.053  10.505   5.462  1.00  0.00     0.113 A 
HETATM    7  N   UNL     1      61.399  10.888   2.407  1.00  0.00    -0.384 N 
HETATM    8  C   UNL     1      63.928   8.165   5.310  1.00  0.00     0.177 C 
HETATM    9  H   UNL     1      61.019  11.796   2.379  1.00  0.00     0.157 HD
HETATM   10  H   UNL     1      61.273  10.278   1.646  1.00  0.00     0.157 HD
ENDROOT
TORSDOF 0
ENDMDL
MODEL 4
REMARK VINA RESULT:      -3.2      1.555      2.119
REMARK  0 active torsions:
REMARK  status: ('A' for Active; 'I' for Inactive)
ROOT
HETATM    1  N   UNL     1      62.789   8.979   3.439  1.00  0.00    -0.284 N 
ATOM      2  HN  UNL     1      63.147   8.031   3.325  1.00  0.00     0.188 HD
HETATM    3  C   UNL     1      62.190  10.984   4.320  1.00  0.00     0.068 A 
HETATM    4  C   UNL     1      62.758   9.714   4.545  1.00  0.00     0.114 A 
HETATM    5  N   UNL     1      62.239   9.775   2.505  1.00  0.00    -0.306 N 
HETATM    6  C   UNL     1      61.862  10.995   2.985  1.00  0.00     0.113 A 
HETATM    7  N   UNL     1      63.207   9.301   5.730  1.00  0.00    -0.384 N 
HETATM    8  C   UNL     1      62.096   9.312   1.147  1.00  0.00     0.177 C 
HETATM    9  H   UNL     1      63.154   9.898   6.512  1.00  0.00     0.157 HD
HETATM   10  H   UNL     1      63.592   8.400   5.824  1.00  0.00     0.157 HD
ENDROOT
TORSDOF 0
ENDMDL
MODEL 5
REMARK VINA RESULT:      -3.1      2.707      3.116
REMARK  0 active torsions:
REMARK  status: ('A' for Active; 'I' for Inactive)
ROOT
HETATM    1  N   UNL     1      61.315   9.801   3.362  1.00  0.00    -0.284 N 
ATOM      2  HN  UNL     1      60.956  10.220   4.219  1.00  0.00     0.188 HD
HETATM    3  C   UNL     1      62.140   9.508   1.266  1.00  0.00     0.068 A 
HETATM    4  C   UNL     1      61.693  10.416   2.246  1.00  0.00     0.114 A 
HETATM    5  N   UNL     1      61.516   8.499   3.097  1.00  0.00    -0.306 N 
HETATM    6  C   UNL     1      62.014   8.268   1.848  1.00  0.00     0.113 A 
HETATM    7  N   UNL     1      61.653  11.737   2.071  1.00  0.00    -0.384 N 
HETATM    8  C   UNL     1      61.212   7.498   4.090  1.00  0.00     0.177 C 
HETATM    9  H   UNL     1      61.949  12.129   1.218  1.00  0.00     0.157 HD
HETATM   10  H   UNL     1      61.329  12.320   2.795  1.00  0.00     0.157 HD
ENDROOT
TORSDOF 0
ENDMDL
MODEL 6
REMARK VINA RESULT:      -2.9      4.455      4.995
REMARK  0 active torsions:
REMARK  status: ('A' for Active; 'I' for Inactive)
ROOT
HETATM    1  N   UNL     1      65.707   7.819   6.776  1.00  0.00    -0.284 N 
ATOM      2  HN  UNL     1      64.990   8.009   7.476  1.00  0.00     0.188 HD
HETATM    3  C   UNL     1      67.632   7.180   5.755  1.00  0.00     0.068 A 
HETATM    4  C   UNL     1      66.916   7.300   6.962  1.00  0.00     0.114 A 
HETATM    5  N   UNL     1      65.648   8.034   5.450  1.00  0.00    -0.306 N 
HETATM    6  C   UNL     1      66.783   7.665   4.789  1.00  0.00     0.113 A 
HETATM    7  N   UNL     1      67.398   6.938   8.151  1.00  0.00    -0.384 N 
HETATM    8  C   UNL     1      64.464   8.604   4.857  1.00  0.00     0.177 C 
HETATM    9  H   UNL     1      68.305   6.559   8.219  1.00  0.00     0.157 HD
HETATM   10  H   UNL     1      66.849   7.048   8.960  1.00  0.00     0.157 HD
ENDROOT
TORSDOF 0
ENDMDL
MODEL 7
REMARK VINA RESULT:      -2.9     12.215     13.042
REMARK  0 active torsions:
REMARK  status: ('A' for Active; 'I' for Inactive)
ROOT
HETATM    1  N   UNL     1      57.145   1.907  14.335  1.00  0.00    -0.284 N 
ATOM      2  HN  UNL     1      57.414   1.566  15.258  1.00  0.00     0.188 HD
HETATM    3  C   UNL     1      55.955   2.735  12.586  1.00  0.00     0.068 A 
HETATM    4  C   UNL     1      55.952   2.338  13.938  1.00  0.00     0.114 A 
HETATM    5  N   UNL     1      57.912   2.023  13.238  1.00  0.00    -0.306 N 
HETATM    6  C   UNL     1      57.243   2.519  12.156  1.00  0.00     0.113 A 
HETATM    7  N   UNL     1      54.876   2.388  14.724  1.00  0.00    -0.384 N 
HETATM    8  C   UNL     1      59.302   1.641  13.277  1.00  0.00     0.177 C 
HETATM    9  H   UNL     1      54.021   2.720  14.367  1.00  0.00     0.157 HD
HETATM   10  H   UNL     1      54.938   2.095  15.662  1.00  0.00     0.157 HD
ENDROOT
TORSDOF 0
ENDMDL
MODEL 8
REMARK VINA RESULT:      -2.7      3.320      4.085
REMARK  0 active torsions:
REMARK  status: ('A' for Active; 'I' for Inactive)
ROOT
HETATM    1  N   UNL     1      65.142   8.522   5.748  1.00  0.00    -0.284 N 
ATOM      2  HN  UNL     1      65.281   9.423   5.291  1.00  0.00     0.188 HD
HETATM    3  C   UNL     1      65.470   6.617   6.940  1.00  0.00     0.068 A 
HETATM    4  C   UNL     1      66.021   7.819   6.454  1.00  0.00     0.114 A 
HETATM    5  N   UNL     1      64.028   7.771   5.778  1.00  0.00    -0.306 N 
HETATM    6  C   UNL     1      64.173   6.612   6.484  1.00  0.00     0.113 A 
HETATM    7  N   UNL     1      67.279   8.202   6.676  1.00  0.00    -0.384 N 
HETATM    8  C   UNL     1      62.833   8.213   5.104  1.00  0.00     0.177 C 
HETATM    9  H   UNL     1      67.880   7.633   7.209  1.00  0.00     0.157 HD
HETATM   10  H   UNL     1      67.606   9.054   6.308  1.00  0.00     0.157 HD
ENDROOT
TORSDOF 0
ENDMDL
MODEL 9
REMARK VINA RESULT:      -2.7     12.076     12.897
REMARK  0 active torsions:
REMARK  status: ('A' for Active; 'I' for Inactive)
ROOT
HETATM    1  N   UNL     1      57.199   1.812  14.227  1.00  0.00    -0.284 N 
ATOM      2  HN  UNL     1      57.286   1.492  15.191  1.00  0.00     0.188 HD
HETATM    3  C   UNL     1      57.670   2.477  12.107  1.00  0.00     0.068 A 
HETATM    4  C   UNL     1      58.171   2.047  13.352  1.00  0.00     0.114 A 
HETATM    5  N   UNL     1      56.075   2.092  13.545  1.00  0.00    -0.306 N 
HETATM    6  C   UNL     1      56.304   2.497  12.262  1.00  0.00     0.113 A 
HETATM    7  N   UNL     1      59.469   1.899  13.619  1.00  0.00    -0.384 N 
HETATM    8  C   UNL     1      54.787   1.955  14.177  1.00  0.00     0.177 C 
HETATM    9  H   UNL     1      60.139   2.090  12.924  1.00  0.00     0.157 HD
HETATM   10  H   UNL     1      59.757   1.596  14.510  1.00  0.00     0.157 HD
ENDROOT
TORSDOF 0
ENDMDL
