MODEL 1
REMARK VINA RESULT:      -4.8      0.000      0.000
REMARK  1 active torsions:
REMARK  status: ('A' for Active; 'I' for Inactive)
REMARK    1  A    between atoms: C_3  and  C_9 
ROOT
HETATM    1  N   UNL     1      66.816   6.889   6.317  1.00  0.00    -0.197 NA
HETATM    2  C   UNL     1      65.660   6.949   6.404  1.00  0.00     0.065 C 
HETATM    3  C   UNL     1      64.198   6.986   6.537  1.00  0.00     0.188 C 
ENDROOT
BRANCH   3   4
HETATM    4  C   UNL     1      63.603   7.801   5.436  1.00  0.00     0.065 A 
HETATM    5  N   UNL     1      63.172   9.035   5.585  1.00  0.00    -0.352 N 
HETATM    6  C   UNL     1      62.715   9.529   4.373  1.00  0.00     0.050 A 
ATOM      7  HN  UNL     1      63.173   9.552   6.464  1.00  0.00     0.166 HD
HETATM    8  C   UNL     1      62.769   8.633   3.304  1.00  0.00     0.033 A 
HETATM    9  C   UNL     1      62.222  10.829   4.145  1.00  0.00     0.031 A 
HETATM   10  S   UNL     1      63.420   7.139   3.859  1.00  0.00    -0.074 SA
HETATM   11  C   UNL     1      62.342   8.991   2.014  1.00  0.00     0.021 A 
HETATM   12  C   UNL     1      61.862  10.290   1.812  1.00  0.00     0.002 A 
HETATM   13  C   UNL     1      61.804  11.201   2.864  1.00  0.00     0.002 A 
ENDBRANCH   3   4
TORSDOF 1
ENDMDL
MODEL 2
REMARK VINA RESULT:      -4.7      1.401      1.613
REMARK  1 active torsions:
REMARK  status: ('A' for Active; 'I' for Inactive)
REMARK    1  A    between atoms: C_3  and  C_9 
ROOT
HETATM    1  N   UNL     1      66.110   6.826   8.704  1.00  0.00    -0.197 NA
HETATM    2  C   UNL     1      66.277   6.902   7.558  1.00  0.00     0.065 C 
HETATM    3  C   UNL     1      66.531   6.995   6.115  1.00  0.00     0.188 C 
ENDROOT
BRANCH   3   4
HETATM    4  C   UNL     1      65.392   7.683   5.437  1.00  0.00     0.065 A 
HETATM    5  N   UNL     1      64.841   8.796   5.870  1.00  0.00    -0.352 N 
HETATM    6  C   UNL     1      63.838   9.200   5.003  1.00  0.00     0.050 A 
ATOM      7  HN  UNL     1      65.113   9.290   6.720  1.00  0.00     0.166 HD
HETATM    8  C   UNL     1      63.606   8.350   3.920  1.00  0.00     0.033 A 
HETATM    9  C   UNL     1      63.063  10.371   5.126  1.00  0.00     0.031 A 
HETATM   10  S   UNL     1      64.693   7.019   4.012  1.00  0.00    -0.074 SA
HETATM   11  C   UNL     1      62.621   8.628   2.957  1.00  0.00     0.021 A 
HETATM   12  C   UNL     1      61.870   9.800   3.098  1.00  0.00     0.002 A 
HETATM   13  C   UNL     1      62.088  10.664   4.168  1.00  0.00     0.002 A 
ENDBRANCH   3   4
TORSDOF 1
ENDMDL
MODEL 3
REMARK VINA RESULT:      -4.6      2.961      5.159
REMARK  1 active torsions:
REMARK  status: ('A' for Active; 'I' for Inactive)
REMARK    1  A    between atoms: C_3  and  C_9 
ROOT
HETATM    1  N   UNL     1      57.712   7.512   1.293  1.00  0.00    -0.197 NA
HETATM    2  C   UNL     1      58.783   7.753   0.913  1.00  0.00     0.065 C 
HETATM    3  C   UNL     1      60.128   8.033   0.398  1.00  0.00     0.188 C 
ENDROOT
BRANCH   3   4
HETATM    4  C   UNL     1      61.051   8.366   1.524  1.00  0.00     0.065 A 
HETATM    5  N   UNL     1      60.975   9.470   2.235  1.00  0.00    -0.352 N 
HETATM    6  C   UNL     1      61.943   9.464   3.227  1.00  0.00     0.050 A 
ATOM      7  HN  UNL     1      60.302  10.220   2.079  1.00  0.00     0.166 HD
HETATM    8  C   UNL     1      62.786   8.352   3.233  1.00  0.00     0.033 A 
HETATM    9  C   UNL     1      62.130  10.463   4.203  1.00  0.00     0.031 A 
HETATM   10  S   UNL     1      62.327   7.296   1.953  1.00  0.00    -0.074 SA
HETATM   11  C   UNL     1      63.814   8.206   4.180  1.00  0.00     0.021 A 
HETATM   12  C   UNL     1      63.975   9.208   5.143  1.00  0.00     0.002 A 
HETATM   13  C   UNL     1      63.142  10.324   5.157  1.00  0.00     0.002 A 
ENDBRANCH   3   4
TORSDOF 1
ENDMDL
MODEL 4
REMARK VINA RESULT:      -4.6      2.450      6.257
REMARK  1 active torsions:
REMARK  status: ('A' for Active; 'I' for Inactive)
REMARK    1  A    between atoms: C_3  and  C_9 
ROOT
HETATM    1  N   UNL     1      63.216   9.938   5.555  1.00  0.00    -0.197 NA
HETATM    2  C   UNL     1      63.756   9.030   5.075  1.00  0.00     0.065 C 
HETATM    3  C   UNL     1      64.407   7.877   4.440  1.00  0.00     0.188 C 
ENDROOT
BRANCH   3   4
HETATM    4  C   UNL     1      65.305   7.192   5.416  1.00  0.00     0.065 A 
HETATM    5  N   UNL     1      65.566   7.649   6.622  1.00  0.00    -0.352 N 
HETATM    6  C   UNL     1      66.398   6.768   7.294  1.00  0.00     0.050 A 
ATOM      7  HN  UNL     1      65.207   8.523   7.006  1.00  0.00     0.166 HD
HETATM    8  C   UNL     1      66.802   5.650   6.563  1.00  0.00     0.033 A 
HETATM    9  C   UNL     1      66.850   6.911   8.622  1.00  0.00     0.031 A 
HETATM   10  S   UNL     1      66.099   5.725   4.994  1.00  0.00    -0.074 SA
HETATM   11  C   UNL     1      67.646   4.670   7.112  1.00  0.00     0.021 A 
HETATM   12  C   UNL     1      68.075   4.831   8.434  1.00  0.00     0.002 A 
HETATM   13  C   UNL     1      67.681   5.936   9.183  1.00  0.00     0.002 A 
ENDBRANCH   3   4
TORSDOF 1
ENDMDL
MODEL 5
REMARK VINA RESULT:      -4.4      1.553      5.172
REMARK  1 active torsions:
REMARK  status: ('A' for Active; 'I' for Inactive)
REMARK    1  A    between atoms: C_3  and  C_9 
ROOT
HETATM    1  N   UNL     1      61.808  11.532   4.150  1.00  0.00    -0.197 NA
HETATM    2  C   UNL     1      62.129  10.482   3.773  1.00  0.00     0.065 C 
HETATM    3  C   UNL     1      62.500   9.153   3.271  1.00  0.00     0.188 C 
ENDROOT
BRANCH   3   4
HETATM    4  C   UNL     1      63.352   8.445   4.272  1.00  0.00     0.065 A 
HETATM    5  N   UNL     1      64.553   8.846   4.630  1.00  0.00    -0.352 N 
HETATM    6  C   UNL     1      65.066   8.003   5.603  1.00  0.00     0.050 A 
ATOM      7  HN  UNL     1      65.036   9.660   4.248  1.00  0.00     0.166 HD
HETATM    8  C   UNL     1      64.250   6.925   5.950  1.00  0.00     0.033 A 
HETATM    9  C   UNL     1      66.309   8.150   6.250  1.00  0.00     0.031 A 
HETATM   10  S   UNL     1      62.802   6.999   5.022  1.00  0.00    -0.074 SA
HETATM   11  C   UNL     1      64.636   5.985   6.921  1.00  0.00     0.021 A 
HETATM   12  C   UNL     1      65.871   6.157   7.555  1.00  0.00     0.002 A 
HETATM   13  C   UNL     1      66.699   7.227   7.226  1.00  0.00     0.002 A 
ENDBRANCH   3   4
TORSDOF 1
ENDMDL
MODEL 6
REMARK VINA RESULT:      -4.3      2.646      3.971
REMARK  1 active torsions:
REMARK  status: ('A' for Active; 'I' for Inactive)
REMARK    1  A    between atoms: C_3  and  C_9 
ROOT
HETATM    1  N   UNL     1      67.315   3.669   8.857  1.00  0.00    -0.197 NA
HETATM    2  C   UNL     1      67.424   4.799   8.615  1.00  0.00     0.065 C 
HETATM    3  C   UNL     1      67.584   6.233   8.346  1.00  0.00     0.188 C 
ENDROOT
BRANCH   3   4
HETATM    4  C   UNL     1      66.496   6.710   7.441  1.00  0.00     0.065 A 
HETATM    5  N   UNL     1      65.293   6.180   7.394  1.00  0.00    -0.352 N 
HETATM    6  C   UNL     1      64.504   6.869   6.487  1.00  0.00     0.050 A 
ATOM      7  HN  UNL     1      64.986   5.378   7.945  1.00  0.00     0.166 HD
HETATM    8  C   UNL     1      65.142   7.911   5.811  1.00  0.00     0.033 A 
HETATM    9  C   UNL     1      63.148   6.608   6.207  1.00  0.00     0.031 A 
HETATM   10  S   UNL     1      66.773   8.012   6.352  1.00  0.00    -0.074 SA
HETATM   11  C   UNL     1      64.470   8.699   4.861  1.00  0.00     0.021 A 
HETATM   12  C   UNL     1      63.122   8.424   4.607  1.00  0.00     0.002 A 
HETATM   13  C   UNL     1      62.466   7.392   5.272  1.00  0.00     0.002 A 
ENDBRANCH   3   4
TORSDOF 1
ENDMDL
MODEL 7
REMARK VINA RESULT:      -4.1      1.995      2.257
REMARK  1 active torsions:
REMARK  status: ('A' for Active; 'I' for Inactive)
REMARK    1  A    between atoms: C_3  and  C_9 
ROOT
HETATM    1  N   UNL     1      62.150   4.086   4.653  1.00  0.00    -0.197 NA
HETATM    2  C   UNL     1      62.939   4.937   4.620  1.00  0.00     0.065 C 
HETATM    3  C   UNL     1      63.959   5.993   4.612  1.00  0.00     0.188 C 
ENDROOT
BRANCH   3   4
HETATM    4  C   UNL     1      63.392   7.249   4.035  1.00  0.00     0.065 A 
HETATM    5  N   UNL     1      63.140   8.333   4.738  1.00  0.00    -0.352 N 
HETATM    6  C   UNL     1      62.659   9.335   3.910  1.00  0.00     0.050 A 
ATOM      7  HN  UNL     1      63.279   8.422   5.744  1.00  0.00     0.166 HD
HETATM    8  C   UNL     1      62.509   8.981   2.568  1.00  0.00     0.033 A 
HETATM    9  C   UNL     1      62.325  10.645   4.309  1.00  0.00     0.031 A 
HETATM   10  S   UNL     1      62.998   7.344   2.364  1.00  0.00    -0.074 SA
HETATM   11  C   UNL     1      62.032   9.892   1.611  1.00  0.00     0.021 A 
HETATM   12  C   UNL     1      61.714  11.188   2.030  1.00  0.00     0.002 A 
HETATM   13  C   UNL     1      61.860  11.563   3.363  1.00  0.00     0.002 A 
ENDBRANCH   3   4
TORSDOF 1
ENDMDL
MODEL 8
REMARK VINA RESULT:      -4.1      3.465      6.596
REMARK  1 active torsions:
REMARK  status: ('A' for Active; 'I' for Inactive)
REMARK    1  A    between atoms: C_3  and  C_9 
ROOT
HETATM    1  N   UNL     1      60.852   5.768   6.659  1.00  0.00    -0.197 NA
HETATM    2  C   UNL     1      61.825   6.309   6.330  1.00  0.00     0.065 C 
HETATM    3  C   UNL     1      63.036   7.004   5.876  1.00  0.00     0.188 C 
ENDROOT
BRANCH   3   4
HETATM    4  C   UNL     1      64.236   6.451   6.571  1.00  0.00     0.065 A 
HETATM    5  N   UNL     1      65.055   7.171   7.308  1.00  0.00    -0.352 N 
HETATM    6  C   UNL     1      66.044   6.363   7.847  1.00  0.00     0.050 A 
ATOM      7  HN  UNL     1      64.974   8.176   7.460  1.00  0.00     0.166 HD
HETATM    8  C   UNL     1      65.988   5.018   7.473  1.00  0.00     0.033 A 
HETATM    9  C   UNL     1      67.067   6.782   8.720  1.00  0.00     0.031 A 
HETATM   10  S   UNL     1      64.644   4.787   6.422  1.00  0.00    -0.074 SA
HETATM   11  C   UNL     1      66.922   4.079   7.940  1.00  0.00     0.021 A 
HETATM   12  C   UNL     1      67.924   4.520   8.812  1.00  0.00     0.002 A 
HETATM   13  C   UNL     1      67.996   5.854   9.200  1.00  0.00     0.002 A 
ENDBRANCH   3   4
TORSDOF 1
ENDMDL
MODEL 9
REMARK VINA RESULT:      -4.0      2.865      4.286
REMARK  1 active torsions:
REMARK  status: ('A' for Active; 'I' for Inactive)
REMARK    1  A    between atoms: C_3  and  C_9 
ROOT
HETATM    1  N   UNL     1      61.177   4.510   1.046  1.00  0.00    -0.197 NA
HETATM    2  C   UNL     1      61.916   5.377   0.825  1.00  0.00     0.065 C 
HETATM    3  C   UNL     1      62.876   6.447   0.525  1.00  0.00     0.188 C 
ENDROOT
BRANCH   3   4
HETATM    4  C   UNL     1      62.729   7.560   1.510  1.00  0.00     0.065 A 
HETATM    5  N   UNL     1      63.198   7.522   2.739  1.00  0.00    -0.352 N 
HETATM    6  C   UNL     1      62.935   8.719   3.385  1.00  0.00     0.050 A 
ATOM      7  HN  UNL     1      63.683   6.727   3.154  1.00  0.00     0.166 HD
HETATM    8  C   UNL     1      62.219   9.657   2.639  1.00  0.00     0.033 A 
HETATM    9  C   UNL     1      63.328   9.052   4.697  1.00  0.00     0.031 A 
HETATM   10  S   UNL     1      61.885   8.997   1.085  1.00  0.00    -0.074 SA
HETATM   11  C   UNL     1      61.879  10.917   3.161  1.00  0.00     0.021 A 
HETATM   12  C   UNL     1      62.287  11.225   4.463  1.00  0.00     0.002 A 
HETATM   13  C   UNL     1      63.005  10.306   5.224  1.00  0.00     0.002 A 
ENDBRANCH   3   4
TORSDOF 1
ENDMDL
