MODEL 1
REMARK VINA RESULT:      -4.5      0.000      0.000
REMARK  2 active torsions:
REMARK  status: ('A' for Active; 'I' for Inactive)
REMARK    1  A    between atoms: C_1  and  C_5 
REMARK    2  A    between atoms: C_2  and  N_8 
REMARK       I    between atoms: C_5  and  N_9 
ROOT
HETATM    1  C   UNL     1      63.825   9.029   4.749  1.00  0.00     0.071 A 
HETATM    2  C   UNL     1      63.247  10.260   5.039  1.00  0.00     0.084 A 
HETATM    3  S   UNL     1      61.998  10.664   3.943  1.00  0.00    -0.083 SA
HETATM    4  C   UNL     1      63.193   8.417   3.591  1.00  0.00    -0.037 A 
HETATM    5  C   UNL     1      62.178   9.205   3.088  1.00  0.00     0.059 A 
HETATM    6  C   UNL     1      63.605   7.110   2.988  1.00  0.00     0.050 C 
ENDROOT
BRANCH   1   7
HETATM    7  C   UNL     1      64.926   8.413   5.496  1.00  0.00     0.252 C 
HETATM    8  O   UNL     1      66.109   8.665   5.299  1.00  0.00    -0.268 OA
HETATM    9  N   UNL     1      64.568   7.557   6.499  1.00  0.00    -0.366 N 
HETATM   10  H   UNL     1      63.618   7.354   6.658  1.00  0.00     0.159 HD
HETATM   11  H   UNL     1      65.261   7.143   7.063  1.00  0.00     0.159 HD
ENDBRANCH   1   7
BRANCH   2  12
HETATM   12  N   UNL     1      63.534  11.123   6.048  1.00  0.00    -0.393 N 
HETATM   13  H   UNL     1      62.872  11.799   6.321  1.00  0.00     0.156 HD
HETATM   14  H   UNL     1      64.404  11.073   6.507  1.00  0.00     0.156 HD
ENDBRANCH   2  12
TORSDOF 2
ENDMDL
MODEL 2
REMARK VINA RESULT:      -4.2      1.211      1.270
REMARK  2 active torsions:
REMARK  status: ('A' for Active; 'I' for Inactive)
REMARK    1  A    between atoms: C_1  and  C_5 
REMARK    2  A    between atoms: C_2  and  N_8 
REMARK       I    between atoms: C_5  and  N_9 
ROOT
HETATM    1  C   UNL     1      62.972   9.466   4.229  1.00  0.00     0.071 A 
HETATM    2  C   UNL     1      62.450  10.752   4.142  1.00  0.00     0.084 A 
HETATM    3  S   UNL     1      61.700  11.046   2.633  1.00  0.00    -0.083 SA
HETATM    4  C   UNL     1      62.725   8.719   3.006  1.00  0.00    -0.037 A 
HETATM    5  C   UNL     1      62.025   9.470   2.084  1.00  0.00     0.059 A 
HETATM    6  C   UNL     1      63.194   7.321   2.754  1.00  0.00     0.050 C 
ENDROOT
BRANCH   1   7
HETATM    7  C   UNL     1      63.683   8.918   5.389  1.00  0.00     0.252 C 
HETATM    8  O   UNL     1      64.861   9.148   5.637  1.00  0.00    -0.268 OA
HETATM    9  N   UNL     1      62.941   8.156   6.246  1.00  0.00    -0.366 N 
HETATM   10  H   UNL     1      61.995   7.971   6.046  1.00  0.00     0.159 HD
HETATM   11  H   UNL     1      63.352   7.794   7.064  1.00  0.00     0.159 HD
ENDBRANCH   1   7
BRANCH   2  12
HETATM   12  N   UNL     1      62.450  11.740   5.074  1.00  0.00    -0.393 N 
HETATM   13  H   UNL     1      61.668  12.331   5.166  1.00  0.00     0.156 HD
HETATM   14  H   UNL     1      63.233  11.867   5.657  1.00  0.00     0.156 HD
ENDBRANCH   2  12
TORSDOF 2
ENDMDL
MODEL 3
REMARK VINA RESULT:      -4.2      2.716      3.629
REMARK  2 active torsions:
REMARK  status: ('A' for Active; 'I' for Inactive)
REMARK    1  A    between atoms: C_1  and  C_5 
REMARK    2  A    between atoms: C_2  and  N_8 
REMARK       I    between atoms: C_5  and  N_9 
ROOT
HETATM    1  C   UNL     1      62.455   9.821   3.451  1.00  0.00     0.071 A 
HETATM    2  C   UNL     1      63.183   9.302   4.516  1.00  0.00     0.084 A 
HETATM    3  S   UNL     1      63.621   7.668   4.265  1.00  0.00    -0.083 SA
HETATM    4  C   UNL     1      62.276   8.825   2.407  1.00  0.00    -0.037 A 
HETATM    5  C   UNL     1      62.885   7.630   2.733  1.00  0.00     0.059 A 
HETATM    6  C   UNL     1      61.502   9.045   1.145  1.00  0.00     0.050 C 
ENDROOT
BRANCH   1   7
HETATM    7  C   UNL     1      61.927  11.187   3.373  1.00  0.00     0.252 C 
HETATM    8  O   UNL     1      61.784  11.919   4.346  1.00  0.00    -0.268 OA
HETATM    9  N   UNL     1      61.642  11.652   2.121  1.00  0.00    -0.366 N 
HETATM   10  H   UNL     1      61.756  11.063   1.339  1.00  0.00     0.159 HD
HETATM   11  H   UNL     1      61.322  12.575   1.999  1.00  0.00     0.159 HD
ENDBRANCH   1   7
BRANCH   2  12
HETATM   12  N   UNL     1      63.580   9.915   5.661  1.00  0.00    -0.393 N 
HETATM   13  H   UNL     1      64.448   9.688   6.067  1.00  0.00     0.156 HD
HETATM   14  H   UNL     1      63.000  10.588   6.087  1.00  0.00     0.156 HD
ENDBRANCH   2  12
TORSDOF 2
ENDMDL
MODEL 4
REMARK VINA RESULT:      -4.0      1.593      2.656
REMARK  2 active torsions:
REMARK  status: ('A' for Active; 'I' for Inactive)
REMARK    1  A    between atoms: C_1  and  C_5 
REMARK    2  A    between atoms: C_2  and  N_8 
REMARK       I    between atoms: C_5  and  N_9 
ROOT
HETATM    1  C   UNL     1      63.484   8.885   4.343  1.00  0.00     0.071 A 
HETATM    2  C   UNL     1      63.078   8.199   3.203  1.00  0.00     0.084 A 
HETATM    3  S   UNL     1      61.839   9.021   2.359  1.00  0.00    -0.083 SA
HETATM    4  C   UNL     1      62.742  10.127   4.495  1.00  0.00    -0.037 A 
HETATM    5  C   UNL     1      61.841  10.311   3.466  1.00  0.00     0.059 A 
HETATM    6  C   UNL     1      62.903  11.079   5.638  1.00  0.00     0.050 C 
ENDROOT
BRANCH   1   7
HETATM    7  C   UNL     1      64.517   8.434   5.280  1.00  0.00     0.252 C 
HETATM    8  O   UNL     1      65.697   8.756   5.201  1.00  0.00    -0.268 OA
HETATM    9  N   UNL     1      64.090   7.655   6.318  1.00  0.00    -0.366 N 
HETATM   10  H   UNL     1      63.142   7.395   6.381  1.00  0.00     0.159 HD
HETATM   11  H   UNL     1      64.730   7.354   7.003  1.00  0.00     0.159 HD
ENDBRANCH   1   7
BRANCH   2  12
HETATM   12  N   UNL     1      63.541   7.024   2.702  1.00  0.00    -0.393 N 
HETATM   13  H   UNL     1      63.288   6.173   3.127  1.00  0.00     0.156 HD
HETATM   14  H   UNL     1      64.131   7.024   1.913  1.00  0.00     0.156 HD
ENDBRANCH   2  12
TORSDOF 2
ENDMDL
MODEL 5
REMARK VINA RESULT:      -4.0      2.637      3.255
REMARK  2 active torsions:
REMARK  status: ('A' for Active; 'I' for Inactive)
REMARK    1  A    between atoms: C_1  and  C_5 
REMARK    2  A    between atoms: C_2  and  N_8 
REMARK       I    between atoms: C_5  and  N_9 
ROOT
HETATM    1  C   UNL     1      62.352  10.112   3.610  1.00  0.00     0.071 A 
HETATM    2  C   UNL     1      61.937  10.477   2.333  1.00  0.00     0.084 A 
HETATM    3  S   UNL     1      61.894   9.145   1.262  1.00  0.00    -0.083 SA
HETATM    4  C   UNL     1      62.627   8.686   3.681  1.00  0.00    -0.037 A 
HETATM    5  C   UNL     1      62.392   8.061   2.474  1.00  0.00     0.059 A 
HETATM    6  C   UNL     1      63.133   7.978   4.898  1.00  0.00     0.050 C 
ENDROOT
BRANCH   1   7
HETATM    7  C   UNL     1      62.502  11.029   4.745  1.00  0.00     0.252 C 
HETATM    8  O   UNL     1      61.916  12.102   4.837  1.00  0.00    -0.268 OA
HETATM    9  N   UNL     1      63.306  10.601   5.762  1.00  0.00    -0.366 N 
HETATM   10  H   UNL     1      63.777   9.739   5.688  1.00  0.00     0.159 HD
HETATM   11  H   UNL     1      63.414  11.153   6.570  1.00  0.00     0.159 HD
ENDBRANCH   1   7
BRANCH   2  12
HETATM   12  N   UNL     1      61.564  11.698   1.871  1.00  0.00    -0.393 N 
HETATM   13  H   UNL     1      62.175  12.216   1.298  1.00  0.00     0.156 HD
HETATM   14  H   UNL     1      60.683  12.067   2.109  1.00  0.00     0.156 HD
ENDBRANCH   2  12
TORSDOF 2
ENDMDL
MODEL 6
REMARK VINA RESULT:      -3.9      3.301      3.901
REMARK  2 active torsions:
REMARK  status: ('A' for Active; 'I' for Inactive)
REMARK    1  A    between atoms: C_1  and  C_5 
REMARK    2  A    between atoms: C_2  and  N_8 
REMARK       I    between atoms: C_5  and  N_9 
ROOT
HETATM    1  C   UNL     1      62.078   9.417   2.589  1.00  0.00     0.071 A 
HETATM    2  C   UNL     1      61.984  10.713   3.087  1.00  0.00     0.084 A 
HETATM    3  S   UNL     1      62.575  10.836   4.687  1.00  0.00    -0.083 SA
HETATM    4  C   UNL     1      62.666   8.522   3.573  1.00  0.00    -0.037 A 
HETATM    5  C   UNL     1      62.993   9.188   4.736  1.00  0.00     0.059 A 
HETATM    6  C   UNL     1      62.868   7.053   3.373  1.00  0.00     0.050 C 
ENDROOT
BRANCH   1   7
HETATM    7  C   UNL     1      61.644   8.989   1.255  1.00  0.00     0.252 C 
HETATM    8  O   UNL     1      62.404   8.844   0.305  1.00  0.00    -0.268 OA
HETATM    9  N   UNL     1      60.317   8.692   1.120  1.00  0.00    -0.366 N 
HETATM   10  H   UNL     1      59.706   8.809   1.883  1.00  0.00     0.159 HD
HETATM   11  H   UNL     1      59.973   8.361   0.259  1.00  0.00     0.159 HD
ENDBRANCH   1   7
BRANCH   2  12
HETATM   12  N   UNL     1      61.520  11.833   2.474  1.00  0.00    -0.393 N 
HETATM   13  H   UNL     1      60.570  11.901   2.226  1.00  0.00     0.156 HD
HETATM   14  H   UNL     1      62.134  12.577   2.277  1.00  0.00     0.156 HD
ENDBRANCH   2  12
TORSDOF 2
ENDMDL
MODEL 7
REMARK VINA RESULT:      -3.7      4.584      5.732
REMARK  2 active torsions:
REMARK  status: ('A' for Active; 'I' for Inactive)
REMARK    1  A    between atoms: C_1  and  C_5 
REMARK    2  A    between atoms: C_2  and  N_8 
REMARK       I    between atoms: C_5  and  N_9 
ROOT
HETATM    1  C   UNL     1      66.799   6.448   7.141  1.00  0.00     0.071 A 
HETATM    2  C   UNL     1      67.045   6.044   8.450  1.00  0.00     0.084 A 
HETATM    3  S   UNL     1      67.961   4.602   8.521  1.00  0.00    -0.083 SA
HETATM    4  C   UNL     1      67.403   5.528   6.190  1.00  0.00    -0.037 A 
HETATM    5  C   UNL     1      68.075   4.505   6.827  1.00  0.00     0.059 A 
HETATM    6  C   UNL     1      67.291   5.648   4.703  1.00  0.00     0.050 C 
ENDROOT
BRANCH   1   7
HETATM    7  C   UNL     1      66.033   7.636   6.752  1.00  0.00     0.252 C 
HETATM    8  O   UNL     1      66.530   8.744   6.587  1.00  0.00    -0.268 OA
HETATM    9  N   UNL     1      64.701   7.443   6.515  1.00  0.00    -0.366 N 
HETATM   10  H   UNL     1      64.301   6.553   6.648  1.00  0.00     0.159 HD
HETATM   11  H   UNL     1      64.142   8.193   6.211  1.00  0.00     0.159 HD
ENDBRANCH   1   7
BRANCH   2  12
HETATM   12  N   UNL     1      66.677   6.642   9.613  1.00  0.00    -0.393 N 
HETATM   13  H   UNL     1      67.119   6.392  10.456  1.00  0.00     0.156 HD
HETATM   14  H   UNL     1      65.967   7.325   9.612  1.00  0.00     0.156 HD
ENDBRANCH   2  12
TORSDOF 2
ENDMDL
MODEL 8
REMARK VINA RESULT:      -3.7      3.277      4.096
REMARK  2 active torsions:
REMARK  status: ('A' for Active; 'I' for Inactive)
REMARK    1  A    between atoms: C_1  and  C_5 
REMARK    2  A    between atoms: C_2  and  N_8 
REMARK       I    between atoms: C_5  and  N_9 
ROOT
HETATM    1  C   UNL     1      61.909   9.081   3.604  1.00  0.00     0.071 A 
HETATM    2  C   UNL     1      60.974   8.167   3.131  1.00  0.00     0.084 A 
HETATM    3  S   UNL     1      61.398   6.553   3.509  1.00  0.00    -0.083 SA
HETATM    4  C   UNL     1      62.991   8.406   4.303  1.00  0.00    -0.037 A 
HETATM    5  C   UNL     1      62.805   7.039   4.330  1.00  0.00     0.059 A 
HETATM    6  C   UNL     1      64.181   9.094   4.895  1.00  0.00     0.050 C 
ENDROOT
BRANCH   1   7
HETATM    7  C   UNL     1      61.834  10.535   3.430  1.00  0.00     0.252 C 
HETATM    8  O   UNL     1      61.833  11.334   4.359  1.00  0.00    -0.268 OA
HETATM    9  N   UNL     1      61.823  10.987   2.141  1.00  0.00    -0.366 N 
HETATM   10  H   UNL     1      61.824  10.346   1.394  1.00  0.00     0.159 HD
HETATM   11  H   UNL     1      61.815  11.955   1.959  1.00  0.00     0.159 HD
ENDBRANCH   1   7
BRANCH   2  12
HETATM   12  N   UNL     1      59.817   8.397   2.457  1.00  0.00    -0.393 N 
HETATM   13  H   UNL     1      59.449   7.706   1.860  1.00  0.00     0.156 HD
HETATM   14  H   UNL     1      59.347   9.255   2.565  1.00  0.00     0.156 HD
ENDBRANCH   2  12
TORSDOF 2
ENDMDL
MODEL 9
REMARK VINA RESULT:      -3.6      1.872      2.873
REMARK  2 active torsions:
REMARK  status: ('A' for Active; 'I' for Inactive)
REMARK    1  A    between atoms: C_1  and  C_5 
REMARK    2  A    between atoms: C_2  and  N_8 
REMARK       I    between atoms: C_5  and  N_9 
ROOT
HETATM    1  C   UNL     1      62.566   8.704   4.624  1.00  0.00     0.071 A 
HETATM    2  C   UNL     1      62.135   7.470   5.098  1.00  0.00     0.084 A 
HETATM    3  S   UNL     1      60.823   6.851   4.193  1.00  0.00    -0.083 SA
HETATM    4  C   UNL     1      61.780   9.124   3.475  1.00  0.00    -0.037 A 
HETATM    5  C   UNL     1      60.824   8.187   3.142  1.00  0.00     0.059 A 
HETATM    6  C   UNL     1      61.956  10.423   2.753  1.00  0.00     0.050 C 
ENDROOT
BRANCH   1   7
HETATM    7  C   UNL     1      63.661   9.495   5.195  1.00  0.00     0.252 C 
HETATM    8  O   UNL     1      64.843   9.180   5.115  1.00  0.00    -0.268 OA
HETATM    9  N   UNL     1      63.307  10.671   5.793  1.00  0.00    -0.366 N 
HETATM   10  H   UNL     1      62.358  10.925   5.857  1.00  0.00     0.159 HD
HETATM   11  H   UNL     1      64.001  11.265   6.159  1.00  0.00     0.159 HD
ENDBRANCH   1   7
BRANCH   2  12
HETATM   12  N   UNL     1      62.623   6.732   6.129  1.00  0.00    -0.393 N 
HETATM   13  H   UNL     1      63.049   7.178   6.896  1.00  0.00     0.156 HD
HETATM   14  H   UNL     1      62.551   5.750   6.109  1.00  0.00     0.156 HD
ENDBRANCH   2  12
TORSDOF 2
ENDMDL
