MODEL 1
REMARK VINA RESULT:      -4.2      0.000      0.000
REMARK  2 active torsions:
REMARK  status: ('A' for Active; 'I' for Inactive)
REMARK    1  A    between atoms: C_1  and  C_5 
REMARK    2  A    between atoms: C_2  and  N_8 
ROOT
HETATM    1  C   UNL     1      63.712   9.350   4.809  1.00  0.00     0.076 A 
HETATM    2  C   UNL     1      63.251  10.590   5.217  1.00  0.00     0.047 A 
HETATM    3  S   UNL     1      62.801   8.785   3.463  1.00  0.00    -0.096 SA
HETATM    4  C   UNL     1      62.164  11.064   4.433  1.00  0.00     0.037 A 
HETATM    5  C   UNL     1      61.819  10.177   3.443  1.00  0.00     0.053 A 
ENDROOT
BRANCH   1   6
HETATM    6  C   UNL     1      64.802   8.556   5.372  1.00  0.00     0.164 C 
HETATM    7  O   UNL     1      65.675   9.040   6.100  1.00  0.00    -0.292 OA
HETATM    8  C   UNL     1      64.864   7.077   5.051  1.00  0.00     0.097 C 
ENDBRANCH   1   6
BRANCH   2   9
HETATM    9  N   UNL     1      63.757  11.298   6.242  1.00  0.00    -0.398 N 
HETATM   10  H   UNL     1      63.558  11.035   7.169  1.00  0.00     0.156 HD
HETATM   11  H   UNL     1      64.327  12.082   6.065  1.00  0.00     0.156 HD
ENDBRANCH   2   9
TORSDOF 2
ENDMDL
MODEL 2
REMARK VINA RESULT:      -4.1      2.278      3.522
REMARK  2 active torsions:
REMARK  status: ('A' for Active; 'I' for Inactive)
REMARK    1  A    between atoms: C_1  and  C_5 
REMARK    2  A    between atoms: C_2  and  N_8 
ROOT
HETATM    1  C   UNL     1      62.130   9.882   3.992  1.00  0.00     0.076 A 
HETATM    2  C   UNL     1      62.931   9.467   5.042  1.00  0.00     0.047 A 
HETATM    3  S   UNL     1      61.298   8.541   3.305  1.00  0.00    -0.096 SA
HETATM    4  C   UNL     1      62.859   8.066   5.274  1.00  0.00     0.037 A 
HETATM    5  C   UNL     1      62.005   7.441   4.398  1.00  0.00     0.053 A 
ENDROOT
BRANCH   1   6
HETATM    6  C   UNL     1      61.951  11.234   3.467  1.00  0.00     0.164 C 
HETATM    7  O   UNL     1      61.923  12.235   4.192  1.00  0.00    -0.292 OA
HETATM    8  C   UNL     1      61.793  11.417   1.972  1.00  0.00     0.097 C 
ENDBRANCH   1   6
BRANCH   2   9
HETATM    9  N   UNL     1      63.706  10.276   5.785  1.00  0.00    -0.398 N 
HETATM   10  H   UNL     1      63.351  11.134   6.111  1.00  0.00     0.156 HD
HETATM   11  H   UNL     1      64.628  10.010   6.004  1.00  0.00     0.156 HD
ENDBRANCH   2   9
TORSDOF 2
ENDMDL
MODEL 3
REMARK VINA RESULT:      -3.8      1.260      1.445
REMARK  2 active torsions:
REMARK  status: ('A' for Active; 'I' for Inactive)
REMARK    1  A    between atoms: C_1  and  C_5 
REMARK    2  A    between atoms: C_2  and  N_8 
ROOT
HETATM    1  C   UNL     1      62.938   9.455   4.112  1.00  0.00     0.076 A 
HETATM    2  C   UNL     1      62.403  10.730   4.032  1.00  0.00     0.047 A 
HETATM    3  S   UNL     1      62.621   8.579   2.666  1.00  0.00    -0.096 SA
HETATM    4  C   UNL     1      61.743  10.978   2.798  1.00  0.00     0.037 A 
HETATM    5  C   UNL     1      61.788   9.888   1.961  1.00  0.00     0.053 A 
ENDROOT
BRANCH   1   6
HETATM    6  C   UNL     1      63.677   8.849   5.218  1.00  0.00     0.164 C 
HETATM    7  O   UNL     1      64.721   9.332   5.669  1.00  0.00    -0.292 OA
HETATM    8  C   UNL     1      63.139   7.577   5.839  1.00  0.00     0.097 C 
ENDBRANCH   1   6
BRANCH   2   9
HETATM    9  N   UNL     1      62.483  11.660   5.000  1.00  0.00    -0.398 N 
HETATM   10  H   UNL     1      61.776  12.338   5.091  1.00  0.00     0.156 HD
HETATM   11  H   UNL     1      63.250  11.662   5.618  1.00  0.00     0.156 HD
ENDBRANCH   2   9
TORSDOF 2
ENDMDL
MODEL 4
REMARK VINA RESULT:      -3.8      2.602      4.380
REMARK  2 active torsions:
REMARK  status: ('A' for Active; 'I' for Inactive)
REMARK    1  A    between atoms: C_1  and  C_5 
REMARK    2  A    between atoms: C_2  and  N_8 
ROOT
HETATM    1  C   UNL     1      65.801   7.777   5.213  1.00  0.00     0.076 A 
HETATM    2  C   UNL     1      66.808   7.742   6.163  1.00  0.00     0.047 A 
HETATM    3  S   UNL     1      65.994   6.492   4.086  1.00  0.00    -0.096 SA
HETATM    4  C   UNL     1      67.723   6.671   5.962  1.00  0.00     0.037 A 
HETATM    5  C   UNL     1      67.395   5.913   4.865  1.00  0.00     0.053 A 
ENDROOT
BRANCH   1   6
HETATM    6  C   UNL     1      64.696   8.726   5.098  1.00  0.00     0.164 C 
HETATM    7  O   UNL     1      64.639   9.771   5.757  1.00  0.00    -0.292 OA
HETATM    8  C   UNL     1      63.573   8.417   4.131  1.00  0.00     0.097 C 
ENDBRANCH   1   6
BRANCH   2   9
HETATM    9  N   UNL     1      66.936   8.610   7.181  1.00  0.00    -0.398 N 
HETATM   10  H   UNL     1      66.403   8.492   8.000  1.00  0.00     0.156 HD
HETATM   11  H   UNL     1      67.564   9.365   7.108  1.00  0.00     0.156 HD
ENDBRANCH   2   9
TORSDOF 2
ENDMDL
MODEL 5
REMARK VINA RESULT:      -3.6      3.147      3.527
REMARK  2 active torsions:
REMARK  status: ('A' for Active; 'I' for Inactive)
REMARK    1  A    between atoms: C_1  and  C_5 
REMARK    2  A    between atoms: C_2  and  N_8 
ROOT
HETATM    1  C   UNL     1      62.454   9.523   3.032  1.00  0.00     0.076 A 
HETATM    2  C   UNL     1      62.020  10.831   3.162  1.00  0.00     0.047 A 
HETATM    3  S   UNL     1      63.120   8.962   4.516  1.00  0.00    -0.096 SA
HETATM    4  C   UNL     1      62.234  11.361   4.464  1.00  0.00     0.037 A 
HETATM    5  C   UNL     1      62.827  10.446   5.301  1.00  0.00     0.053 A 
ENDROOT
BRANCH   1   6
HETATM    6  C   UNL     1      62.401   8.663   1.852  1.00  0.00     0.164 C 
HETATM    7  O   UNL     1      62.081   9.080   0.734  1.00  0.00    -0.292 OA
HETATM    8  C   UNL     1      62.754   7.198   2.006  1.00  0.00     0.097 C 
ENDBRANCH   1   6
BRANCH   2   9
HETATM    9  N   UNL     1      61.449  11.553   2.182  1.00  0.00    -0.398 N 
HETATM   10  H   UNL     1      60.892  12.333   2.405  1.00  0.00     0.156 HD
HETATM   11  H   UNL     1      61.589  11.302   1.240  1.00  0.00     0.156 HD
ENDBRANCH   2   9
TORSDOF 2
ENDMDL
MODEL 6
REMARK VINA RESULT:      -3.6      2.950      4.104
REMARK  2 active torsions:
REMARK  status: ('A' for Active; 'I' for Inactive)
REMARK    1  A    between atoms: C_1  and  C_5 
REMARK    2  A    between atoms: C_2  and  N_8 
ROOT
HETATM    1  C   UNL     1      62.153   9.452   3.849  1.00  0.00     0.076 A 
HETATM    2  C   UNL     1      61.275   8.392   3.697  1.00  0.00     0.047 A 
HETATM    3  S   UNL     1      63.623   8.915   4.564  1.00  0.00    -0.096 SA
HETATM    4  C   UNL     1      61.807   7.159   4.164  1.00  0.00     0.037 A 
HETATM    5  C   UNL     1      63.080   7.303   4.662  1.00  0.00     0.053 A 
ENDROOT
BRANCH   1   6
HETATM    6  C   UNL     1      61.955  10.854   3.488  1.00  0.00     0.164 C 
HETATM    7  O   UNL     1      61.856  11.753   4.330  1.00  0.00    -0.292 OA
HETATM    8  C   UNL     1      61.869  11.221   2.022  1.00  0.00     0.097 C 
ENDBRANCH   1   6
BRANCH   2   9
HETATM    9  N   UNL     1      60.044   8.485   3.166  1.00  0.00    -0.398 N 
HETATM   10  H   UNL     1      59.909   8.956   2.313  1.00  0.00     0.156 HD
HETATM   11  H   UNL     1      59.275   8.080   3.631  1.00  0.00     0.156 HD
ENDBRANCH   2   9
TORSDOF 2
ENDMDL
MODEL 7
REMARK VINA RESULT:      -3.2      2.202      2.299
REMARK  2 active torsions:
REMARK  status: ('A' for Active; 'I' for Inactive)
REMARK    1  A    between atoms: C_1  and  C_5 
REMARK    2  A    between atoms: C_2  and  N_8 
ROOT
HETATM    1  C   UNL     1      62.516   8.953   3.480  1.00  0.00     0.076 A 
HETATM    2  C   UNL     1      62.609   9.890   4.494  1.00  0.00     0.047 A 
HETATM    3  S   UNL     1      61.910   9.680   2.043  1.00  0.00    -0.096 SA
HETATM    4  C   UNL     1      62.186  11.187   4.091  1.00  0.00     0.037 A 
HETATM    5  C   UNL     1      61.781  11.212   2.779  1.00  0.00     0.053 A 
ENDROOT
BRANCH   1   6
HETATM    6  C   UNL     1      62.855   7.532   3.524  1.00  0.00     0.164 C 
HETATM    7  O   UNL     1      62.807   6.864   4.563  1.00  0.00    -0.292 OA
HETATM    8  C   UNL     1      63.282   6.848   2.242  1.00  0.00     0.097 C 
ENDBRANCH   1   6
BRANCH   2   9
HETATM    9  N   UNL     1      63.049   9.636   5.738  1.00  0.00    -0.398 N 
HETATM   10  H   UNL     1      63.136   8.707   6.050  1.00  0.00     0.156 HD
HETATM   11  H   UNL     1      63.285  10.381   6.339  1.00  0.00     0.156 HD
ENDBRANCH   2   9
TORSDOF 2
ENDMDL
MODEL 8
REMARK VINA RESULT:      -3.2      3.644      5.122
REMARK  2 active torsions:
REMARK  status: ('A' for Active; 'I' for Inactive)
REMARK    1  A    between atoms: C_1  and  C_5 
REMARK    2  A    between atoms: C_2  and  N_8 
ROOT
HETATM    1  C   UNL     1      65.337   6.665   6.797  1.00  0.00     0.076 A 
HETATM    2  C   UNL     1      66.552   7.192   7.201  1.00  0.00     0.047 A 
HETATM    3  S   UNL     1      65.306   4.964   7.054  1.00  0.00    -0.096 SA
HETATM    4  C   UNL     1      67.442   6.207   7.712  1.00  0.00     0.037 A 
HETATM    5  C   UNL     1      66.887   4.950   7.689  1.00  0.00     0.053 A 
ENDROOT
BRANCH   1   6
HETATM    6  C   UNL     1      64.189   7.365   6.224  1.00  0.00     0.164 C 
HETATM    7  O   UNL     1      64.270   8.503   5.749  1.00  0.00    -0.292 OA
HETATM    8  C   UNL     1      62.846   6.667   6.210  1.00  0.00     0.097 C 
ENDBRANCH   1   6
BRANCH   2   9
HETATM    9  N   UNL     1      66.888   8.492   7.132  1.00  0.00    -0.398 N 
HETATM   10  H   UNL     1      66.186   9.180   7.087  1.00  0.00     0.156 HD
HETATM   11  H   UNL     1      67.836   8.756   7.127  1.00  0.00     0.156 HD
ENDBRANCH   2   9
TORSDOF 2
ENDMDL
MODEL 9
REMARK VINA RESULT:      -3.1      2.940      3.718
REMARK  2 active torsions:
REMARK  status: ('A' for Active; 'I' for Inactive)
REMARK    1  A    between atoms: C_1  and  C_5 
REMARK    2  A    between atoms: C_2  and  N_8 
ROOT
HETATM    1  C   UNL     1      62.780   8.791   3.160  1.00  0.00     0.076 A 
HETATM    2  C   UNL     1      63.695   8.429   4.134  1.00  0.00     0.047 A 
HETATM    3  S   UNL     1      61.964  10.237   3.612  1.00  0.00    -0.096 SA
HETATM    4  C   UNL     1      63.721   9.329   5.234  1.00  0.00     0.037 A 
HETATM    5  C   UNL     1      62.826  10.360   5.077  1.00  0.00     0.053 A 
ENDROOT
BRANCH   1   6
HETATM    6  C   UNL     1      62.478   8.112   1.902  1.00  0.00     0.164 C 
HETATM    7  O   UNL     1      62.518   6.883   1.779  1.00  0.00    -0.292 OA
HETATM    8  C   UNL     1      62.097   8.950   0.700  1.00  0.00     0.097 C 
ENDBRANCH   1   6
BRANCH   2   9
HETATM    9  N   UNL     1      64.493   7.348   4.076  1.00  0.00    -0.398 N 
HETATM   10  H   UNL     1      64.733   6.959   3.205  1.00  0.00     0.156 HD
HETATM   11  H   UNL     1      64.836   6.944   4.907  1.00  0.00     0.156 HD
ENDBRANCH   2   9
TORSDOF 2
ENDMDL
