MODEL 1
REMARK VINA RESULT:      -4.7      0.000      0.000
REMARK  4 active torsions:
REMARK  status: ('A' for Active; 'I' for Inactive)
REMARK    1  A    between atoms: C_1  and  C_5 
REMARK    2  A    between atoms: C_2  and  N_8 
REMARK    3  A    between atoms: C_5  and  O_9 
REMARK    4  A    between atoms: O_9  and  C_11 
ROOT
HETATM    1  C   UNL     1      63.564   9.072   4.850  1.00  0.00     0.079 A 
HETATM    2  C   UNL     1      63.028  10.344   5.017  1.00  0.00     0.084 A 
HETATM    3  S   UNL     1      62.023  10.806   3.712  1.00  0.00    -0.083 SA
HETATM    4  C   UNL     1      63.120   8.485   3.591  1.00  0.00    -0.036 A 
HETATM    5  C   UNL     1      62.289   9.341   2.896  1.00  0.00     0.059 A 
HETATM    6  C   UNL     1      63.504   7.126   3.092  1.00  0.00     0.050 C 
ENDROOT
BRANCH   1   7
HETATM    7  C   UNL     1      64.460   8.401   5.804  1.00  0.00     0.296 C 
HETATM    8  O   UNL     1      64.134   7.403   6.440  1.00  0.00    -0.259 OA
BRANCH   7   9
HETATM    9  O   UNL     1      65.686   8.998   5.930  1.00  0.00    -0.318 OA
BRANCH   9  10
HETATM   10  C   UNL     1      66.796   8.111   6.125  1.00  0.00     0.174 C 
HETATM   11  C   UNL     1      67.347   7.650   4.788  1.00  0.00     0.034 C 
ENDBRANCH   9  10
ENDBRANCH   7   9
ENDBRANCH   1   7
BRANCH   2  12
HETATM   12  N   UNL     1      63.202  11.211   6.039  1.00  0.00    -0.393 N 
HETATM   13  H   UNL     1      64.002  11.785   6.066  1.00  0.00     0.156 HD
HETATM   14  H   UNL     1      62.530  11.268   6.756  1.00  0.00     0.156 HD
ENDBRANCH   2  12
TORSDOF 4
ENDMDL
MODEL 2
REMARK VINA RESULT:      -4.5      1.064      1.594
REMARK  4 active torsions:
REMARK  status: ('A' for Active; 'I' for Inactive)
REMARK    1  A    between atoms: C_1  and  C_5 
REMARK    2  A    between atoms: C_2  and  N_8 
REMARK    3  A    between atoms: C_5  and  O_9 
REMARK    4  A    between atoms: O_9  and  C_11 
ROOT
HETATM    1  C   UNL     1      63.804   9.100   4.812  1.00  0.00     0.079 A 
HETATM    2  C   UNL     1      63.227  10.336   5.085  1.00  0.00     0.084 A 
HETATM    3  S   UNL     1      61.994  10.740   3.970  1.00  0.00    -0.083 SA
HETATM    4  C   UNL     1      63.194   8.493   3.634  1.00  0.00    -0.036 A 
HETATM    5  C   UNL     1      62.210   9.299   3.099  1.00  0.00     0.059 A 
HETATM    6  C   UNL     1      63.573   7.164   3.058  1.00  0.00     0.050 C 
ENDROOT
BRANCH   1   7
HETATM    7  C   UNL     1      64.885   8.482   5.594  1.00  0.00     0.296 C 
HETATM    8  O   UNL     1      66.074   8.702   5.383  1.00  0.00    -0.259 OA
BRANCH   7   9
HETATM    9  O   UNL     1      64.446   7.626   6.569  1.00  0.00    -0.318 OA
BRANCH   9  10
HETATM   10  C   UNL     1      65.228   6.437   6.755  1.00  0.00     0.174 C 
HETATM   11  C   UNL     1      65.996   6.508   8.063  1.00  0.00     0.034 C 
ENDBRANCH   9  10
ENDBRANCH   7   9
ENDBRANCH   1   7
BRANCH   2  12
HETATM   12  N   UNL     1      63.514  11.206   6.077  1.00  0.00    -0.393 N 
HETATM   13  H   UNL     1      64.448  11.340   6.358  1.00  0.00     0.156 HD
HETATM   14  H   UNL     1      62.791  11.706   6.519  1.00  0.00     0.156 HD
ENDBRANCH   2  12
TORSDOF 4
ENDMDL
MODEL 3
REMARK VINA RESULT:      -4.1      1.766      2.408
REMARK  4 active torsions:
REMARK  status: ('A' for Active; 'I' for Inactive)
REMARK    1  A    between atoms: C_1  and  C_5 
REMARK    2  A    between atoms: C_2  and  N_8 
REMARK    3  A    between atoms: C_5  and  O_9 
REMARK    4  A    between atoms: O_9  and  C_11 
ROOT
HETATM    1  C   UNL     1      63.459   8.791   4.522  1.00  0.00     0.079 A 
HETATM    2  C   UNL     1      63.231   8.070   3.354  1.00  0.00     0.084 A 
HETATM    3  S   UNL     1      62.233   8.914   2.251  1.00  0.00    -0.083 SA
HETATM    4  C   UNL     1      62.768  10.075   4.480  1.00  0.00    -0.036 A 
HETATM    5  C   UNL     1      62.071  10.239   3.301  1.00  0.00     0.059 A 
HETATM    6  C   UNL     1      62.796  11.102   5.570  1.00  0.00     0.050 C 
ENDROOT
BRANCH   1   7
HETATM    7  C   UNL     1      64.278   8.330   5.652  1.00  0.00     0.296 C 
HETATM    8  O   UNL     1      63.912   7.454   6.431  1.00  0.00    -0.259 OA
BRANCH   7   9
HETATM    9  O   UNL     1      65.480   8.976   5.768  1.00  0.00    -0.318 OA
BRANCH   9  10
HETATM   10  C   UNL     1      66.619   8.139   6.018  1.00  0.00     0.174 C 
HETATM   11  C   UNL     1      67.101   7.504   4.726  1.00  0.00     0.034 C 
ENDBRANCH   9  10
ENDBRANCH   7   9
ENDBRANCH   1   7
BRANCH   2  12
HETATM   12  N   UNL     1      63.685   6.845   3.012  1.00  0.00    -0.393 N 
HETATM   13  H   UNL     1      63.948   6.661   2.081  1.00  0.00     0.156 HD
HETATM   14  H   UNL     1      63.753   6.137   3.692  1.00  0.00     0.156 HD
ENDBRANCH   2  12
TORSDOF 4
ENDMDL
MODEL 4
REMARK VINA RESULT:      -4.1      2.089      2.884
REMARK  4 active torsions:
REMARK  status: ('A' for Active; 'I' for Inactive)
REMARK    1  A    between atoms: C_1  and  C_5 
REMARK    2  A    between atoms: C_2  and  N_8 
REMARK    3  A    between atoms: C_5  and  O_9 
REMARK    4  A    between atoms: O_9  and  C_11 
ROOT
HETATM    1  C   UNL     1      63.615   8.810   4.397  1.00  0.00     0.079 A 
HETATM    2  C   UNL     1      63.230   8.061   3.291  1.00  0.00     0.084 A 
HETATM    3  S   UNL     1      61.929   8.775   2.440  1.00  0.00    -0.083 SA
HETATM    4  C   UNL     1      62.787  10.004   4.527  1.00  0.00    -0.036 A 
HETATM    5  C   UNL     1      61.841  10.078   3.525  1.00  0.00     0.059 A 
HETATM    6  C   UNL     1      62.925  11.033   5.606  1.00  0.00     0.050 C 
ENDROOT
BRANCH   1   7
HETATM    7  C   UNL     1      64.704   8.456   5.320  1.00  0.00     0.296 C 
HETATM    8  O   UNL     1      65.883   8.714   5.094  1.00  0.00    -0.259 OA
BRANCH   7   9
HETATM    9  O   UNL     1      64.287   7.798   6.446  1.00  0.00    -0.318 OA
BRANCH   9  10
HETATM   10  C   UNL     1      64.858   6.499   6.659  1.00  0.00     0.174 C 
HETATM   11  C   UNL     1      65.820   6.530   7.833  1.00  0.00     0.034 C 
ENDBRANCH   9  10
ENDBRANCH   7   9
ENDBRANCH   1   7
BRANCH   2  12
HETATM   12  N   UNL     1      63.740   6.896   2.836  1.00  0.00    -0.393 N 
HETATM   13  H   UNL     1      63.674   6.082   3.387  1.00  0.00     0.156 HD
HETATM   14  H   UNL     1      64.177   6.860   1.955  1.00  0.00     0.156 HD
ENDBRANCH   2  12
TORSDOF 4
ENDMDL
MODEL 5
REMARK VINA RESULT:      -3.9      1.748      2.372
REMARK  4 active torsions:
REMARK  status: ('A' for Active; 'I' for Inactive)
REMARK    1  A    between atoms: C_1  and  C_5 
REMARK    2  A    between atoms: C_2  and  N_8 
REMARK    3  A    between atoms: C_5  and  O_9 
REMARK    4  A    between atoms: O_9  and  C_11 
ROOT
HETATM    1  C   UNL     1      64.574   8.062   5.075  1.00  0.00     0.079 A 
HETATM    2  C   UNL     1      63.605   9.033   4.849  1.00  0.00     0.084 A 
HETATM    3  S   UNL     1      62.719   8.748   3.414  1.00  0.00    -0.083 SA
HETATM    4  C   UNL     1      64.568   7.067   4.009  1.00  0.00    -0.036 A 
HETATM    5  C   UNL     1      63.609   7.347   3.058  1.00  0.00     0.059 A 
HETATM    6  C   UNL     1      65.480   5.882   3.934  1.00  0.00     0.050 C 
ENDROOT
BRANCH   1   7
HETATM    7  C   UNL     1      65.489   8.035   6.226  1.00  0.00     0.296 C 
HETATM    8  O   UNL     1      66.418   8.826   6.361  1.00  0.00    -0.259 OA
BRANCH   7   9
HETATM    9  O   UNL     1      65.222   7.038   7.126  1.00  0.00    -0.318 OA
BRANCH   9  10
HETATM   10  C   UNL     1      66.361   6.312   7.612  1.00  0.00     0.174 C 
HETATM   11  C   UNL     1      66.439   6.404   9.125  1.00  0.00     0.034 C 
ENDBRANCH   9  10
ENDBRANCH   7   9
ENDBRANCH   1   7
BRANCH   2  12
HETATM   12  N   UNL     1      63.301  10.118   5.593  1.00  0.00    -0.393 N 
HETATM   13  H   UNL     1      62.951  10.931   5.160  1.00  0.00     0.156 HD
HETATM   14  H   UNL     1      63.428  10.097   6.570  1.00  0.00     0.156 HD
ENDBRANCH   2  12
TORSDOF 4
ENDMDL
MODEL 6
REMARK VINA RESULT:      -3.9      3.847      5.490
REMARK  4 active torsions:
REMARK  status: ('A' for Active; 'I' for Inactive)
REMARK    1  A    between atoms: C_1  and  C_5 
REMARK    2  A    between atoms: C_2  and  N_8 
REMARK    3  A    between atoms: C_5  and  O_9 
REMARK    4  A    between atoms: O_9  and  C_11 
ROOT
HETATM    1  C   UNL     1      66.799   6.551   7.010  1.00  0.00     0.079 A 
HETATM    2  C   UNL     1      67.001   6.074   8.301  1.00  0.00     0.084 A 
HETATM    3  S   UNL     1      67.761   4.542   8.319  1.00  0.00    -0.083 SA
HETATM    4  C   UNL     1      67.289   5.596   6.023  1.00  0.00    -0.036 A 
HETATM    5  C   UNL     1      67.822   4.473   6.623  1.00  0.00     0.059 A 
HETATM    6  C   UNL     1      67.232   5.787   4.539  1.00  0.00     0.050 C 
ENDROOT
BRANCH   1   7
HETATM    7  C   UNL     1      66.173   7.839   6.674  1.00  0.00     0.296 C 
HETATM    8  O   UNL     1      66.729   8.919   6.850  1.00  0.00    -0.259 OA
BRANCH   7   9
HETATM    9  O   UNL     1      64.908   7.725   6.162  1.00  0.00    -0.318 OA
BRANCH   9  10
HETATM   10  C   UNL     1      64.661   8.439   4.941  1.00  0.00     0.174 C 
HETATM   11  C   UNL     1      63.445   9.335   5.090  1.00  0.00     0.034 C 
ENDBRANCH   9  10
ENDBRANCH   7   9
ENDBRANCH   1   7
BRANCH   2  12
HETATM   12  N   UNL     1      66.682   6.653   9.479  1.00  0.00    -0.393 N 
HETATM   13  H   UNL     1      66.605   6.104  10.292  1.00  0.00     0.156 HD
HETATM   14  H   UNL     1      66.528   7.624   9.524  1.00  0.00     0.156 HD
ENDBRANCH   2  12
TORSDOF 4
ENDMDL
MODEL 7
REMARK VINA RESULT:      -3.8      3.308      4.638
REMARK  4 active torsions:
REMARK  status: ('A' for Active; 'I' for Inactive)
REMARK    1  A    between atoms: C_1  and  C_5 
REMARK    2  A    between atoms: C_2  and  N_8 
REMARK    3  A    between atoms: C_5  and  O_9 
REMARK    4  A    between atoms: O_9  and  C_11 
ROOT
HETATM    1  C   UNL     1      65.184   6.872   6.482  1.00  0.00     0.079 A 
HETATM    2  C   UNL     1      66.457   7.300   6.845  1.00  0.00     0.084 A 
HETATM    3  S   UNL     1      67.573   6.008   6.955  1.00  0.00    -0.083 SA
HETATM    4  C   UNL     1      65.156   5.425   6.304  1.00  0.00    -0.036 A 
HETATM    5  C   UNL     1      66.392   4.859   6.541  1.00  0.00     0.059 A 
HETATM    6  C   UNL     1      63.949   4.629   5.913  1.00  0.00     0.050 C 
ENDROOT
BRANCH   1   7
HETATM    7  C   UNL     1      64.017   7.749   6.305  1.00  0.00     0.296 C 
HETATM    8  O   UNL     1      62.936   7.543   6.849  1.00  0.00    -0.259 OA
BRANCH   7   9
HETATM    9  O   UNL     1      64.239   8.807   5.465  1.00  0.00    -0.318 OA
BRANCH   9  10
HETATM   10  C   UNL     1      63.067   9.430   4.920  1.00  0.00     0.174 C 
HETATM   11  C   UNL     1      62.937  10.853   5.433  1.00  0.00     0.034 C 
ENDBRANCH   9  10
ENDBRANCH   7   9
ENDBRANCH   1   7
BRANCH   2  12
HETATM   12  N   UNL     1      66.888   8.553   7.106  1.00  0.00    -0.393 N 
HETATM   13  H   UNL     1      66.504   9.317   6.619  1.00  0.00     0.156 HD
HETATM   14  H   UNL     1      67.586   8.702   7.784  1.00  0.00     0.156 HD
ENDBRANCH   2  12
TORSDOF 4
ENDMDL
MODEL 8
REMARK VINA RESULT:      -3.8      2.649      4.194
REMARK  4 active torsions:
REMARK  status: ('A' for Active; 'I' for Inactive)
REMARK    1  A    between atoms: C_1  and  C_5 
REMARK    2  A    between atoms: C_2  and  N_8 
REMARK    3  A    between atoms: C_5  and  O_9 
REMARK    4  A    between atoms: O_9  and  C_11 
ROOT
HETATM    1  C   UNL     1      63.651   8.155   3.972  1.00  0.00     0.079 A 
HETATM    2  C   UNL     1      64.233   8.825   5.043  1.00  0.00     0.084 A 
HETATM    3  S   UNL     1      65.673   8.074   5.579  1.00  0.00    -0.083 SA
HETATM    4  C   UNL     1      64.437   6.981   3.609  1.00  0.00    -0.036 A 
HETATM    5  C   UNL     1      65.546   6.841   4.417  1.00  0.00     0.059 A 
HETATM    6  C   UNL     1      64.101   6.031   2.501  1.00  0.00     0.050 C 
ENDROOT
BRANCH   1   7
HETATM    7  C   UNL     1      62.411   8.561   3.295  1.00  0.00     0.296 C 
HETATM    8  O   UNL     1      61.300   8.440   3.803  1.00  0.00    -0.259 OA
BRANCH   7   9
HETATM    9  O   UNL     1      62.605   9.072   2.039  1.00  0.00    -0.318 OA
BRANCH   9  10
HETATM   10  C   UNL     1      61.586   9.963   1.562  1.00  0.00     0.174 C 
HETATM   11  C   UNL     1      61.865  11.381   2.027  1.00  0.00     0.034 C 
ENDBRANCH   9  10
ENDBRANCH   7   9
ENDBRANCH   1   7
BRANCH   2  12
HETATM   12  N   UNL     1      63.812   9.943   5.673  1.00  0.00    -0.393 N 
HETATM   13  H   UNL     1      64.024  10.829   5.298  1.00  0.00     0.156 HD
HETATM   14  H   UNL     1      63.292   9.873   6.507  1.00  0.00     0.156 HD
ENDBRANCH   2  12
TORSDOF 4
ENDMDL
MODEL 9
REMARK VINA RESULT:      -3.7      3.966      5.673
REMARK  4 active torsions:
REMARK  status: ('A' for Active; 'I' for Inactive)
REMARK    1  A    between atoms: C_1  and  C_5 
REMARK    2  A    between atoms: C_2  and  N_8 
REMARK    3  A    between atoms: C_5  and  O_9 
REMARK    4  A    between atoms: O_9  and  C_11 
ROOT
HETATM    1  C   UNL     1      62.010   9.239   2.467  1.00  0.00     0.079 A 
HETATM    2  C   UNL     1      62.381   8.331   3.453  1.00  0.00     0.084 A 
HETATM    3  S   UNL     1      62.722   9.093   4.946  1.00  0.00    -0.083 SA
HETATM    4  C   UNL     1      62.026  10.602   2.986  1.00  0.00    -0.036 A 
HETATM    5  C   UNL     1      62.403  10.636   4.313  1.00  0.00     0.059 A 
HETATM    6  C   UNL     1      61.681  11.827   2.197  1.00  0.00     0.050 C 
ENDROOT
BRANCH   1   7
HETATM    7  C   UNL     1      61.654   8.886   1.085  1.00  0.00     0.296 C 
HETATM    8  O   UNL     1      62.490   8.702   0.205  1.00  0.00    -0.259 OA
BRANCH   7   9
HETATM    9  O   UNL     1      60.306   8.795   0.863  1.00  0.00    -0.318 OA
BRANCH   9  10
HETATM   10  C   UNL     1      59.841   7.543   0.339  1.00  0.00     0.174 C 
HETATM   11  C   UNL     1      58.464   7.218   0.888  1.00  0.00     0.034 C 
ENDBRANCH   9  10
ENDBRANCH   7   9
ENDBRANCH   1   7
BRANCH   2  12
HETATM   12  N   UNL     1      62.494   6.988   3.370  1.00  0.00    -0.393 N 
HETATM   13  H   UNL     1      63.385   6.573   3.296  1.00  0.00     0.156 HD
HETATM   14  H   UNL     1      61.688   6.423   3.384  1.00  0.00     0.156 HD
ENDBRANCH   2  12
TORSDOF 4
ENDMDL
