MODEL 1
REMARK VINA RESULT:      -4.3      0.000      0.000
REMARK  1 active torsions:
REMARK  status: ('A' for Active; 'I' for Inactive)
REMARK    1  A    between atoms: C_1  and  C_4 
ROOT
HETATM    1  C   UNL     1      62.594  10.003   3.990  1.00  0.00     0.081 A 
HETATM    2  S   UNL     1      63.397   8.526   4.307  1.00  0.00    -0.095 SA
HETATM    3  C   UNL     1      62.037  10.004   2.726  1.00  0.00     0.033 A 
HETATM    4  C   UNL     1      62.998   7.900   2.766  1.00  0.00     0.057 A 
HETATM    5  C   UNL     1      62.264   8.788   2.005  1.00  0.00    -0.054 A 
HETATM    6  C   UNL     1      61.765   8.542   0.623  1.00  0.00     0.048 C 
ENDROOT
BRANCH   1   7
HETATM    7  C   UNL     1      62.568  11.040   4.992  1.00  0.00     0.216 C 
HETATM    8  O   UNL     1      63.061  11.043   6.112  1.00  0.00    -0.643 OA
HETATM    9  O   UNL     1      61.886  12.126   4.558  1.00  0.00    -0.643 OA
ENDBRANCH   1   7
TORSDOF 1
ENDMDL
MODEL 2
REMARK VINA RESULT:      -4.2      1.911      2.276
REMARK  1 active torsions:
REMARK  status: ('A' for Active; 'I' for Inactive)
REMARK    1  A    between atoms: C_1  and  C_4 
ROOT
HETATM    1  C   UNL     1      62.846   9.236   4.038  1.00  0.00     0.081 A 
HETATM    2  S   UNL     1      62.062  10.726   3.734  1.00  0.00    -0.095 SA
HETATM    3  C   UNL     1      62.881   8.453   2.902  1.00  0.00     0.033 A 
HETATM    4  C   UNL     1      61.777  10.320   2.098  1.00  0.00     0.057 A 
HETATM    5  C   UNL     1      62.264   9.070   1.767  1.00  0.00    -0.054 A 
HETATM    6  C   UNL     1      62.173   8.430   0.425  1.00  0.00     0.048 C 
ENDROOT
BRANCH   1   7
HETATM    7  C   UNL     1      63.365   8.948   5.353  1.00  0.00     0.216 C 
HETATM    8  O   UNL     1      62.868   8.280   6.249  1.00  0.00    -0.643 OA
HETATM    9  O   UNL     1      64.571   9.533   5.544  1.00  0.00    -0.643 OA
ENDBRANCH   1   7
TORSDOF 1
ENDMDL
MODEL 3
REMARK VINA RESULT:      -3.9      2.030      2.993
REMARK  1 active torsions:
REMARK  status: ('A' for Active; 'I' for Inactive)
REMARK    1  A    between atoms: C_1  and  C_4 
ROOT
HETATM    1  C   UNL     1      62.169   9.891   3.939  1.00  0.00     0.081 A 
HETATM    2  S   UNL     1      61.174   8.635   3.339  1.00  0.00    -0.095 SA
HETATM    3  C   UNL     1      63.067   9.410   4.871  1.00  0.00     0.033 A 
HETATM    4  C   UNL     1      61.944   7.464   4.320  1.00  0.00     0.057 A 
HETATM    5  C   UNL     1      62.948   8.002   5.101  1.00  0.00    -0.054 A 
HETATM    6  C   UNL     1      63.803   7.245   6.058  1.00  0.00     0.048 C 
ENDROOT
BRANCH   1   7
HETATM    7  C   UNL     1      61.999  11.239   3.457  1.00  0.00     0.216 C 
HETATM    8  O   UNL     1      61.971  11.648   2.304  1.00  0.00    -0.643 OA
HETATM    9  O   UNL     1      61.858  12.113   4.481  1.00  0.00    -0.643 OA
ENDBRANCH   1   7
TORSDOF 1
ENDMDL
MODEL 4
REMARK VINA RESULT:      -3.8      2.399      2.879
REMARK  1 active torsions:
REMARK  status: ('A' for Active; 'I' for Inactive)
REMARK    1  A    between atoms: C_1  and  C_4 
ROOT
HETATM    1  C   UNL     1      62.758   8.594   4.752  1.00  0.00     0.081 A 
HETATM    2  S   UNL     1      61.863   7.562   3.722  1.00  0.00    -0.095 SA
HETATM    3  C   UNL     1      62.728   9.898   4.296  1.00  0.00     0.033 A 
HETATM    4  C   UNL     1      61.443   8.853   2.681  1.00  0.00     0.057 A 
HETATM    5  C   UNL     1      61.967  10.062   3.095  1.00  0.00    -0.054 A 
HETATM    6  C   UNL     1      61.782  11.369   2.405  1.00  0.00     0.048 C 
ENDROOT
BRANCH   1   7
HETATM    7  C   UNL     1      63.415   8.058   5.918  1.00  0.00     0.216 C 
HETATM    8  O   UNL     1      64.609   7.893   6.123  1.00  0.00    -0.643 OA
HETATM    9  O   UNL     1      62.519   7.713   6.872  1.00  0.00    -0.643 OA
ENDBRANCH   1   7
TORSDOF 1
ENDMDL
MODEL 5
REMARK VINA RESULT:      -3.7      2.876      3.623
REMARK  1 active torsions:
REMARK  status: ('A' for Active; 'I' for Inactive)
REMARK    1  A    between atoms: C_1  and  C_4 
ROOT
HETATM    1  C   UNL     1      64.572   8.126   5.004  1.00  0.00     0.081 A 
HETATM    2  S   UNL     1      64.197   7.073   3.709  1.00  0.00    -0.095 SA
HETATM    3  C   UNL     1      63.774   9.253   4.973  1.00  0.00     0.033 A 
HETATM    4  C   UNL     1      62.980   8.120   3.120  1.00  0.00     0.057 A 
HETATM    5  C   UNL     1      62.845   9.262   3.885  1.00  0.00    -0.054 A 
HETATM    6  C   UNL     1      61.876  10.365   3.634  1.00  0.00     0.048 C 
ENDROOT
BRANCH   1   7
HETATM    7  C   UNL     1      65.607   7.774   5.944  1.00  0.00     0.216 C 
HETATM    8  O   UNL     1      65.984   6.665   6.296  1.00  0.00    -0.643 OA
HETATM    9  O   UNL     1      66.193   8.878   6.466  1.00  0.00    -0.643 OA
ENDBRANCH   1   7
TORSDOF 1
ENDMDL
MODEL 6
REMARK VINA RESULT:      -3.5      2.545      2.985
REMARK  1 active torsions:
REMARK  status: ('A' for Active; 'I' for Inactive)
REMARK    1  A    between atoms: C_1  and  C_4 
ROOT
HETATM    1  C   UNL     1      64.124   7.928   4.596  1.00  0.00     0.081 A 
HETATM    2  S   UNL     1      64.257   6.434   3.772  1.00  0.00    -0.095 SA
HETATM    3  C   UNL     1      63.324   8.810   3.897  1.00  0.00     0.033 A 
HETATM    4  C   UNL     1      63.252   6.971   2.497  1.00  0.00     0.057 A 
HETATM    5  C   UNL     1      62.810   8.267   2.676  1.00  0.00    -0.054 A 
HETATM    6  C   UNL     1      61.923   9.019   1.745  1.00  0.00     0.048 C 
ENDROOT
BRANCH   1   7
HETATM    7  C   UNL     1      64.804   8.122   5.853  1.00  0.00     0.216 C 
HETATM    8  O   UNL     1      65.759   8.843   6.109  1.00  0.00    -0.643 OA
HETATM    9  O   UNL     1      64.251   7.369   6.832  1.00  0.00    -0.643 OA
ENDBRANCH   1   7
TORSDOF 1
ENDMDL
MODEL 7
REMARK VINA RESULT:      -3.3      2.852      3.973
REMARK  1 active torsions:
REMARK  status: ('A' for Active; 'I' for Inactive)
REMARK    1  A    between atoms: C_1  and  C_4 
ROOT
HETATM    1  C   UNL     1      62.326   9.068   2.824  1.00  0.00     0.081 A 
HETATM    2  S   UNL     1      61.973  10.408   3.827  1.00  0.00    -0.095 SA
HETATM    3  C   UNL     1      63.306   8.273   3.385  1.00  0.00     0.033 A 
HETATM    4  C   UNL     1      63.122   9.922   4.997  1.00  0.00     0.057 A 
HETATM    5  C   UNL     1      63.777   8.757   4.647  1.00  0.00    -0.054 A 
HETATM    6  C   UNL     1      64.831   8.079   5.452  1.00  0.00     0.048 C 
ENDROOT
BRANCH   1   7
HETATM    7  C   UNL     1      61.624   8.895   1.577  1.00  0.00     0.216 C 
HETATM    8  O   UNL     1      60.477   8.516   1.384  1.00  0.00    -0.643 OA
HETATM    9  O   UNL     1      62.409   9.215   0.522  1.00  0.00    -0.643 OA
ENDBRANCH   1   7
TORSDOF 1
ENDMDL
MODEL 8
REMARK VINA RESULT:      -3.2      5.869      6.819
REMARK  1 active torsions:
REMARK  status: ('A' for Active; 'I' for Inactive)
REMARK    1  A    between atoms: C_1  and  C_4 
ROOT
HETATM    1  C   UNL     1      66.154   6.553   6.972  1.00  0.00     0.081 A 
HETATM    2  S   UNL     1      66.591   6.457   8.623  1.00  0.00    -0.095 SA
HETATM    3  C   UNL     1      66.664   5.484   6.260  1.00  0.00     0.033 A 
HETATM    4  C   UNL     1      67.452   4.999   8.381  1.00  0.00     0.057 A 
HETATM    5  C   UNL     1      67.419   4.574   7.067  1.00  0.00    -0.054 A 
HETATM    6  C   UNL     1      68.071   3.344   6.536  1.00  0.00     0.048 C 
ENDROOT
BRANCH   1   7
HETATM    7  C   UNL     1      65.351   7.654   6.500  1.00  0.00     0.216 C 
HETATM    8  O   UNL     1      64.155   7.683   6.247  1.00  0.00    -0.643 OA
HETATM    9  O   UNL     1      66.097   8.772   6.340  1.00  0.00    -0.643 OA
ENDBRANCH   1   7
TORSDOF 1
ENDMDL
MODEL 9
REMARK VINA RESULT:      -3.2      4.724      5.538
REMARK  1 active torsions:
REMARK  status: ('A' for Active; 'I' for Inactive)
REMARK    1  A    between atoms: C_1  and  C_4 
ROOT
HETATM    1  C   UNL     1      66.426   7.023   5.348  1.00  0.00     0.081 A 
HETATM    2  S   UNL     1      66.887   5.797   6.449  1.00  0.00    -0.095 SA
HETATM    3  C   UNL     1      66.572   6.598   4.042  1.00  0.00     0.033 A 
HETATM    4  C   UNL     1      67.276   4.713   5.184  1.00  0.00     0.057 A 
HETATM    5  C   UNL     1      67.064   5.258   3.932  1.00  0.00    -0.054 A 
HETATM    6  C   UNL     1      67.306   4.571   2.633  1.00  0.00     0.048 C 
ENDROOT
BRANCH   1   7
HETATM    7  C   UNL     1      65.959   8.296   5.840  1.00  0.00     0.216 C 
HETATM    8  O   UNL     1      64.993   8.954   5.479  1.00  0.00    -0.643 OA
HETATM    9  O   UNL     1      66.751   8.759   6.834  1.00  0.00    -0.643 OA
ENDBRANCH   1   7
TORSDOF 1
ENDMDL
