MODEL 1
REMARK VINA RESULT:      -4.0      0.000      0.000
REMARK  2 active torsions:
REMARK  status: ('A' for Active; 'I' for Inactive)
REMARK    1  A    between atoms: C_1  and  C_3 
REMARK    2  A    between atoms: C_3  and  O_9 
ROOT
HETATM    1  C   UNL     1      62.893   9.105   4.062  1.00  0.00     0.101 A 
HETATM    2  C   UNL     1      62.306  10.256   3.561  1.00  0.00     0.057 A 
HETATM    3  S   UNL     1      62.920   7.867   2.859  1.00  0.00    -0.094 SA
HETATM    4  C   UNL     1      61.892  10.113   2.201  1.00  0.00     0.032 A 
HETATM    5  C   UNL     1      62.165   8.863   1.700  1.00  0.00     0.052 A 
HETATM    6 CL   UNL     1      62.049  11.746   4.370  1.00  0.00    -0.083 Cl
ENDROOT
BRANCH   1   7
HETATM    7  C   UNL     1      63.458   8.790   5.364  1.00  0.00     0.301 C 
HETATM    8  O   UNL     1      62.890   8.197   6.274  1.00  0.00    -0.259 OA
BRANCH   7   9
HETATM    9  O   UNL     1      64.740   9.247   5.457  1.00  0.00    -0.322 OA
HETATM   10  C   UNL     1      65.724   8.235   5.673  1.00  0.00     0.213 C 
ENDBRANCH   7   9
ENDBRANCH   1   7
TORSDOF 2
ENDMDL
MODEL 2
REMARK VINA RESULT:      -3.9      2.021      2.166
REMARK  2 active torsions:
REMARK  status: ('A' for Active; 'I' for Inactive)
REMARK    1  A    between atoms: C_1  and  C_3 
REMARK    2  A    between atoms: C_3  and  O_9 
ROOT
HETATM    1  C   UNL     1      62.904   9.148   4.042  1.00  0.00     0.101 A 
HETATM    2  C   UNL     1      62.915   8.409   2.870  1.00  0.00     0.057 A 
HETATM    3  S   UNL     1      62.098  10.654   3.798  1.00  0.00    -0.094 SA
HETATM    4  C   UNL     1      62.261   9.080   1.791  1.00  0.00     0.032 A 
HETATM    5  C   UNL     1      61.773  10.310   2.160  1.00  0.00     0.052 A 
HETATM    6 CL   UNL     1      63.598   6.857   2.609  1.00  0.00    -0.083 Cl
ENDROOT
BRANCH   1   7
HETATM    7  C   UNL     1      63.431   8.874   5.368  1.00  0.00     0.301 C 
HETATM    8  O   UNL     1      62.818   8.362   6.298  1.00  0.00    -0.259 OA
BRANCH   7   9
HETATM    9  O   UNL     1      64.735   9.265   5.460  1.00  0.00    -0.322 OA
HETATM   10  C   UNL     1      65.681   8.197   5.501  1.00  0.00     0.213 C 
ENDBRANCH   7   9
ENDBRANCH   1   7
TORSDOF 2
ENDMDL
MODEL 3
REMARK VINA RESULT:      -3.8      1.281      1.748
REMARK  2 active torsions:
REMARK  status: ('A' for Active; 'I' for Inactive)
REMARK    1  A    between atoms: C_1  and  C_3 
REMARK    2  A    between atoms: C_3  and  O_9 
ROOT
HETATM    1  C   UNL     1      63.773   8.741   4.755  1.00  0.00     0.101 A 
HETATM    2  C   UNL     1      62.952   9.847   4.602  1.00  0.00     0.057 A 
HETATM    3  S   UNL     1      63.525   7.621   3.466  1.00  0.00    -0.094 SA
HETATM    4  C   UNL     1      62.136   9.767   3.432  1.00  0.00     0.032 A 
HETATM    5  C   UNL     1      62.348   8.608   2.725  1.00  0.00     0.052 A 
HETATM    6 CL   UNL     1      62.832  11.220   5.623  1.00  0.00    -0.083 Cl
ENDROOT
BRANCH   1   7
HETATM    7  C   UNL     1      64.754   8.392   5.770  1.00  0.00     0.301 C 
HETATM    8  O   UNL     1      65.838   8.938   5.944  1.00  0.00    -0.259 OA
BRANCH   7   9
HETATM    9  O   UNL     1      64.310   7.352   6.533  1.00  0.00    -0.322 OA
HETATM   10  C   UNL     1      65.336   6.624   7.209  1.00  0.00     0.213 C 
ENDBRANCH   7   9
ENDBRANCH   1   7
TORSDOF 2
ENDMDL
MODEL 4
REMARK VINA RESULT:      -3.7      2.911      4.250
REMARK  2 active torsions:
REMARK  status: ('A' for Active; 'I' for Inactive)
REMARK    1  A    between atoms: C_1  and  C_3 
REMARK    2  A    between atoms: C_3  and  O_9 
ROOT
HETATM    1  C   UNL     1      62.055   9.375   2.597  1.00  0.00     0.101 A 
HETATM    2  C   UNL     1      62.013  10.713   2.956  1.00  0.00     0.057 A 
HETATM    3  S   UNL     1      62.525   8.403   3.943  1.00  0.00    -0.094 SA
HETATM    4  C   UNL     1      62.360  10.925   4.326  1.00  0.00     0.032 A 
HETATM    5  C   UNL     1      62.661   9.752   4.976  1.00  0.00     0.052 A 
HETATM    6 CL   UNL     1      61.606  12.057   1.971  1.00  0.00    -0.083 Cl
ENDROOT
BRANCH   1   7
HETATM    7  C   UNL     1      61.782   8.698   1.340  1.00  0.00     0.301 C 
HETATM    8  O   UNL     1      62.397   8.849   0.290  1.00  0.00    -0.259 OA
BRANCH   7   9
HETATM    9  O   UNL     1      60.727   7.844   1.471  1.00  0.00    -0.322 OA
HETATM   10  C   UNL     1      59.609   8.139   0.633  1.00  0.00     0.213 C 
ENDBRANCH   7   9
ENDBRANCH   1   7
TORSDOF 2
ENDMDL
MODEL 5
REMARK VINA RESULT:      -3.6      1.216      1.778
REMARK  2 active torsions:
REMARK  status: ('A' for Active; 'I' for Inactive)
REMARK    1  A    between atoms: C_1  and  C_3 
REMARK    2  A    between atoms: C_3  and  O_9 
ROOT
HETATM    1  C   UNL     1      62.518   9.073   3.749  1.00  0.00     0.101 A 
HETATM    2  C   UNL     1      62.205  10.405   3.534  1.00  0.00     0.057 A 
HETATM    3  S   UNL     1      62.375   8.174   2.282  1.00  0.00    -0.094 SA
HETATM    4  C   UNL     1      61.857  10.675   2.175  1.00  0.00     0.032 A 
HETATM    5  C   UNL     1      61.908   9.549   1.389  1.00  0.00     0.052 A 
HETATM    6 CL   UNL     1      62.197  11.684   4.677  1.00  0.00    -0.083 Cl
ENDROOT
BRANCH   1   7
HETATM    7  C   UNL     1      62.925   8.351   4.943  1.00  0.00     0.301 C 
HETATM    8  O   UNL     1      63.622   8.791   5.851  1.00  0.00    -0.259 OA
BRANCH   7   9
HETATM    9  O   UNL     1      62.422   7.083   4.937  1.00  0.00    -0.322 OA
HETATM   10  C   UNL     1      61.889   6.643   6.186  1.00  0.00     0.213 C 
ENDBRANCH   7   9
ENDBRANCH   1   7
TORSDOF 2
ENDMDL
MODEL 6
REMARK VINA RESULT:      -3.3      2.352      2.637
REMARK  2 active torsions:
REMARK  status: ('A' for Active; 'I' for Inactive)
REMARK    1  A    between atoms: C_1  and  C_3 
REMARK    2  A    between atoms: C_3  and  O_9 
ROOT
HETATM    1  C   UNL     1      62.887   9.011   3.571  1.00  0.00     0.101 A 
HETATM    2  C   UNL     1      62.257   9.743   2.578  1.00  0.00     0.057 A 
HETATM    3  S   UNL     1      62.977   9.927   5.032  1.00  0.00    -0.094 SA
HETATM    4  C   UNL     1      61.852  11.039   3.024  1.00  0.00     0.032 A 
HETATM    5  C   UNL     1      62.184  11.267   4.338  1.00  0.00     0.052 A 
HETATM    6 CL   UNL     1      61.935   9.268   0.961  1.00  0.00    -0.083 Cl
ENDROOT
BRANCH   1   7
HETATM    7  C   UNL     1      63.452   7.672   3.581  1.00  0.00     0.301 C 
HETATM    8  O   UNL     1      62.942   6.669   3.092  1.00  0.00    -0.259 OA
BRANCH   7   9
HETATM    9  O   UNL     1      64.658   7.661   4.217  1.00  0.00    -0.322 OA
HETATM   10  C   UNL     1      65.517   6.578   3.858  1.00  0.00     0.213 C 
ENDBRANCH   7   9
ENDBRANCH   1   7
TORSDOF 2
ENDMDL
MODEL 7
REMARK VINA RESULT:      -3.2      2.514      2.911
REMARK  2 active torsions:
REMARK  status: ('A' for Active; 'I' for Inactive)
REMARK    1  A    between atoms: C_1  and  C_3 
REMARK    2  A    between atoms: C_3  and  O_9 
ROOT
HETATM    1  C   UNL     1      61.511   9.045   2.919  1.00  0.00     0.101 A 
HETATM    2  C   UNL     1      60.727   7.902   2.904  1.00  0.00     0.057 A 
HETATM    3  S   UNL     1      62.006   9.459   1.318  1.00  0.00    -0.094 SA
HETATM    4  C   UNL     1      60.537   7.385   1.586  1.00  0.00     0.032 A 
HETATM    5  C   UNL     1      61.180   8.135   0.632  1.00  0.00     0.052 A 
HETATM    6 CL   UNL     1      60.006   7.101   4.238  1.00  0.00    -0.083 Cl
ENDROOT
BRANCH   1   7
HETATM    7  C   UNL     1      61.959   9.902   4.005  1.00  0.00     0.301 C 
HETATM    8  O   UNL     1      61.799  11.115   4.080  1.00  0.00    -0.259 OA
BRANCH   7   9
HETATM    9  O   UNL     1      62.597   9.172   4.964  1.00  0.00    -0.322 OA
HETATM   10  C   UNL     1      63.948   8.827   4.656  1.00  0.00     0.213 C 
ENDBRANCH   7   9
ENDBRANCH   1   7
TORSDOF 2
ENDMDL
MODEL 8
REMARK VINA RESULT:      -3.2      3.215      4.421
REMARK  2 active torsions:
REMARK  status: ('A' for Active; 'I' for Inactive)
REMARK    1  A    between atoms: C_1  and  C_3 
REMARK    2  A    between atoms: C_3  and  O_9 
ROOT
HETATM    1  C   UNL     1      62.449   9.142   2.981  1.00  0.00     0.101 A 
HETATM    2  C   UNL     1      63.381   8.419   3.708  1.00  0.00     0.057 A 
HETATM    3  S   UNL     1      61.965  10.552   3.850  1.00  0.00    -0.094 SA
HETATM    4  C   UNL     1      63.691   9.030   4.963  1.00  0.00     0.032 A 
HETATM    5  C   UNL     1      62.990  10.194   5.165  1.00  0.00     0.052 A 
HETATM    6 CL   UNL     1      64.153   6.951   3.271  1.00  0.00    -0.083 Cl
ENDROOT
BRANCH   1   7
HETATM    7  C   UNL     1      61.848   8.915   1.677  1.00  0.00     0.301 C 
HETATM    8  O   UNL     1      62.361   9.166   0.592  1.00  0.00    -0.259 OA
BRANCH   7   9
HETATM    9  O   UNL     1      60.604   8.371   1.807  1.00  0.00    -0.322 OA
HETATM   10  C   UNL     1      60.554   6.951   1.669  1.00  0.00     0.213 C 
ENDBRANCH   7   9
ENDBRANCH   1   7
TORSDOF 2
ENDMDL
MODEL 9
REMARK VINA RESULT:      -3.1      2.357      2.736
REMARK  2 active torsions:
REMARK  status: ('A' for Active; 'I' for Inactive)
REMARK    1  A    between atoms: C_1  and  C_3 
REMARK    2  A    between atoms: C_3  and  O_9 
ROOT
HETATM    1  C   UNL     1      62.462   7.626   5.194  1.00  0.00     0.101 A 
HETATM    2  C   UNL     1      61.852   8.120   4.052  1.00  0.00     0.057 A 
HETATM    3  S   UNL     1      61.521   6.351   5.878  1.00  0.00    -0.094 SA
HETATM    4  C   UNL     1      60.628   7.448   3.750  1.00  0.00     0.032 A 
HETATM    5  C   UNL     1      60.331   6.466   4.663  1.00  0.00     0.052 A 
HETATM    6 CL   UNL     1      62.396   9.386   3.029  1.00  0.00    -0.083 Cl
ENDROOT
BRANCH   1   7
HETATM    7  C   UNL     1      63.698   7.988   5.869  1.00  0.00     0.301 C 
HETATM    8  O   UNL     1      64.471   8.877   5.532  1.00  0.00    -0.259 OA
BRANCH   7   9
HETATM    9  O   UNL     1      63.901   7.195   6.960  1.00  0.00    -0.322 OA
HETATM   10  C   UNL     1      65.216   6.648   7.068  1.00  0.00     0.213 C 
ENDBRANCH   7   9
ENDBRANCH   1   7
TORSDOF 2
ENDMDL
