MODEL 1
REMARK VINA RESULT:      -4.4      0.000      0.000
REMARK  2 active torsions:
REMARK  status: ('A' for Active; 'I' for Inactive)
REMARK    1  A    between atoms: C_1  and  C_5 
REMARK    2  A    between atoms: C_5  and  O_9 
ROOT
HETATM    1  C   UNL     1      62.906   9.219   4.096  1.00  0.00     0.102 A 
HETATM    2  C   UNL     1      62.932   8.459   2.937  1.00  0.00     0.063 A 
HETATM    3  S   UNL     1      62.092  10.706   3.825  1.00  0.00    -0.094 SA
HETATM    4  C   UNL     1      62.281   9.097   1.825  1.00  0.00    -0.032 A 
HETATM    5  C   UNL     1      61.782  10.330   2.193  1.00  0.00     0.059 A 
HETATM    6 CL   UNL     1      63.653   6.904   2.775  1.00  0.00    -0.082 Cl
HETATM    7  C   UNL     1      62.153   8.518   0.453  1.00  0.00     0.050 C 
ENDROOT
BRANCH   1   8
HETATM    8  C   UNL     1      63.463   8.878   5.396  1.00  0.00     0.301 C 
HETATM    9  O   UNL     1      62.864   8.302   6.297  1.00  0.00    -0.259 OA
BRANCH   8  10
HETATM   10  O   UNL     1      64.766   9.280   5.512  1.00  0.00    -0.322 OA
HETATM   11  C   UNL     1      65.696   8.199   5.580  1.00  0.00     0.213 C 
ENDBRANCH   8  10
ENDBRANCH   1   8
TORSDOF 2
ENDMDL
MODEL 2
REMARK VINA RESULT:      -4.4      2.159      2.441
REMARK  2 active torsions:
REMARK  status: ('A' for Active; 'I' for Inactive)
REMARK    1  A    between atoms: C_1  and  C_5 
REMARK    2  A    between atoms: C_5  and  O_9 
ROOT
HETATM    1  C   UNL     1      62.713   8.559   4.681  1.00  0.00     0.102 A 
HETATM    2  C   UNL     1      62.506   9.884   4.331  1.00  0.00     0.063 A 
HETATM    3  S   UNL     1      62.377   7.523   3.353  1.00  0.00    -0.094 SA
HETATM    4  C   UNL     1      62.072  10.051   2.970  1.00  0.00    -0.032 A 
HETATM    5  C   UNL     1      61.968   8.828   2.337  1.00  0.00     0.059 A 
HETATM    6 CL   UNL     1      62.724  11.239   5.369  1.00  0.00    -0.082 Cl
HETATM    7  C   UNL     1      61.772  11.360   2.316  1.00  0.00     0.050 C 
ENDROOT
BRANCH   1   8
HETATM    8  C   UNL     1      63.153   8.036   5.965  1.00  0.00     0.301 C 
HETATM    9  O   UNL     1      62.418   7.651   6.866  1.00  0.00    -0.259 OA
BRANCH   8  10
HETATM   10  O   UNL     1      64.518   8.018   6.065  1.00  0.00    -0.322 OA
HETATM   11  C   UNL     1      65.036   6.814   6.633  1.00  0.00     0.213 C 
ENDBRANCH   8  10
ENDBRANCH   1   8
TORSDOF 2
ENDMDL
MODEL 3
REMARK VINA RESULT:      -4.1      2.124      2.357
REMARK  2 active torsions:
REMARK  status: ('A' for Active; 'I' for Inactive)
REMARK    1  A    between atoms: C_1  and  C_5 
REMARK    2  A    between atoms: C_5  and  O_9 
ROOT
HETATM    1  C   UNL     1      63.685   8.507   4.156  1.00  0.00     0.102 A 
HETATM    2  C   UNL     1      62.716   9.177   3.426  1.00  0.00     0.063 A 
HETATM    3  S   UNL     1      64.043   6.989   3.436  1.00  0.00    -0.094 SA
HETATM    4  C   UNL     1      62.266   8.444   2.272  1.00  0.00    -0.032 A 
HETATM    5  C   UNL     1      62.924   7.234   2.176  1.00  0.00     0.059 A 
HETATM    6 CL   UNL     1      62.070  10.726   3.804  1.00  0.00    -0.082 Cl
HETATM    7  C   UNL     1      61.232   8.915   1.302  1.00  0.00     0.050 C 
ENDROOT
BRANCH   1   8
HETATM    8  C   UNL     1      64.355   8.955   5.366  1.00  0.00     0.301 C 
HETATM    9  O   UNL     1      64.441  10.119   5.742  1.00  0.00    -0.259 OA
BRANCH   8  10
HETATM   10  O   UNL     1      64.897   7.910   6.064  1.00  0.00    -0.322 OA
HETATM   11  C   UNL     1      66.297   8.049   6.310  1.00  0.00     0.213 C 
ENDBRANCH   8  10
ENDBRANCH   1   8
TORSDOF 2
ENDMDL
MODEL 4
REMARK VINA RESULT:      -3.6      2.396      3.000
REMARK  2 active torsions:
REMARK  status: ('A' for Active; 'I' for Inactive)
REMARK    1  A    between atoms: C_1  and  C_5 
REMARK    2  A    between atoms: C_5  and  O_9 
ROOT
HETATM    1  C   UNL     1      62.591   8.401   3.328  1.00  0.00     0.102 A 
HETATM    2  C   UNL     1      62.375   9.767   3.419  1.00  0.00     0.063 A 
HETATM    3  S   UNL     1      62.334   7.855   1.720  1.00  0.00    -0.094 SA
HETATM    4  C   UNL     1      61.999  10.368   2.168  1.00  0.00    -0.032 A 
HETATM    5  C   UNL     1      61.945   9.418   1.167  1.00  0.00     0.059 A 
HETATM    6 CL   UNL     1      62.523  10.710   4.851  1.00  0.00    -0.082 Cl
HETATM    7  C   UNL     1      61.703  11.818   1.962  1.00  0.00     0.050 C 
ENDROOT
BRANCH   1   8
HETATM    8  C   UNL     1      62.985   7.490   4.391  1.00  0.00     0.301 C 
HETATM    9  O   UNL     1      64.136   7.168   4.662  1.00  0.00    -0.259 OA
BRANCH   8  10
HETATM   10  O   UNL     1      61.902   7.014   5.079  1.00  0.00    -0.322 OA
HETATM   11  C   UNL     1      61.668   5.618   4.888  1.00  0.00     0.213 C 
ENDBRANCH   8  10
ENDBRANCH   1   8
TORSDOF 2
ENDMDL
MODEL 5
REMARK VINA RESULT:      -3.6      2.308      2.753
REMARK  2 active torsions:
REMARK  status: ('A' for Active; 'I' for Inactive)
REMARK    1  A    between atoms: C_1  and  C_5 
REMARK    2  A    between atoms: C_5  and  O_9 
ROOT
HETATM    1  C   UNL     1      62.393   8.495   3.657  1.00  0.00     0.102 A 
HETATM    2  C   UNL     1      62.057   9.315   2.591  1.00  0.00     0.063 A 
HETATM    3  S   UNL     1      62.675   9.428   5.071  1.00  0.00    -0.094 SA
HETATM    4  C   UNL     1      62.029  10.711   2.934  1.00  0.00    -0.032 A 
HETATM    5  C   UNL     1      62.349  10.892   4.265  1.00  0.00     0.059 A 
HETATM    6 CL   UNL     1      61.699   8.783   0.993  1.00  0.00    -0.082 Cl
HETATM    7  C   UNL     1      61.701  11.824   1.993  1.00  0.00     0.050 C 
ENDROOT
BRANCH   1   8
HETATM    8  C   UNL     1      62.508   7.045   3.662  1.00  0.00     0.301 C 
HETATM    9  O   UNL     1      61.607   6.259   3.396  1.00  0.00    -0.259 OA
BRANCH   8  10
HETATM   10  O   UNL     1      63.769   6.637   4.006  1.00  0.00    -0.322 OA
HETATM   11  C   UNL     1      64.536   6.153   2.903  1.00  0.00     0.213 C 
ENDBRANCH   8  10
ENDBRANCH   1   8
TORSDOF 2
ENDMDL
MODEL 6
REMARK VINA RESULT:      -3.4      2.274      3.700
REMARK  2 active torsions:
REMARK  status: ('A' for Active; 'I' for Inactive)
REMARK    1  A    between atoms: C_1  and  C_5 
REMARK    2  A    between atoms: C_5  and  O_9 
ROOT
HETATM    1  C   UNL     1      62.907   8.811   3.867  1.00  0.00     0.102 A 
HETATM    2  C   UNL     1      63.590   7.729   3.335  1.00  0.00     0.063 A 
HETATM    3  S   UNL     1      63.730   9.431   5.240  1.00  0.00    -0.094 SA
HETATM    4  C   UNL     1      64.793   7.408   4.055  1.00  0.00    -0.032 A 
HETATM    5  C   UNL     1      64.973   8.273   5.116  1.00  0.00     0.059 A 
HETATM    6 CL   UNL     1      63.105   6.816   1.959  1.00  0.00    -0.082 Cl
HETATM    7  C   UNL     1      65.731   6.295   3.714  1.00  0.00     0.050 C 
ENDROOT
BRANCH   1   8
HETATM    8  C   UNL     1      61.666   9.401   3.389  1.00  0.00     0.301 C 
HETATM    9  O   UNL     1      60.703   8.780   2.956  1.00  0.00    -0.259 OA
BRANCH   8  10
HETATM   10  O   UNL     1      61.687  10.767   3.476  1.00  0.00    -0.322 OA
HETATM   11  C   UNL     1      61.785  11.421   2.210  1.00  0.00     0.213 C 
ENDBRANCH   8  10
ENDBRANCH   1   8
TORSDOF 2
ENDMDL
MODEL 7
REMARK VINA RESULT:      -3.2      2.461      3.105
REMARK  2 active torsions:
REMARK  status: ('A' for Active; 'I' for Inactive)
REMARK    1  A    between atoms: C_1  and  C_5 
REMARK    2  A    between atoms: C_5  and  O_9 
ROOT
HETATM    1  C   UNL     1      62.950   8.081   4.318  1.00  0.00     0.102 A 
HETATM    2  C   UNL     1      62.216   6.994   4.766  1.00  0.00     0.063 A 
HETATM    3  S   UNL     1      62.730   8.304   2.630  1.00  0.00    -0.094 SA
HETATM    4  C   UNL     1      61.470   6.343   3.723  1.00  0.00    -0.032 A 
HETATM    5  C   UNL     1      61.673   6.974   2.512  1.00  0.00     0.059 A 
HETATM    6 CL   UNL     1      62.159   6.426   6.390  1.00  0.00    -0.082 Cl
HETATM    7  C   UNL     1      60.592   5.149   3.909  1.00  0.00     0.050 C 
ENDROOT
BRANCH   1   8
HETATM    8  C   UNL     1      63.805   8.960   5.100  1.00  0.00     0.301 C 
HETATM    9  O   UNL     1      65.028   9.001   5.038  1.00  0.00    -0.259 OA
BRANCH   8  10
HETATM   10  O   UNL     1      63.079   9.762   5.938  1.00  0.00    -0.322 OA
HETATM   11  C   UNL     1      62.846  11.072   5.419  1.00  0.00     0.213 C 
ENDBRANCH   8  10
ENDBRANCH   1   8
TORSDOF 2
ENDMDL
MODEL 8
REMARK VINA RESULT:      -3.2      3.338      5.638
REMARK  2 active torsions:
REMARK  status: ('A' for Active; 'I' for Inactive)
REMARK    1  A    between atoms: C_1  and  C_5 
REMARK    2  A    between atoms: C_5  and  O_9 
ROOT
HETATM    1  C   UNL     1      64.713   6.742   6.219  1.00  0.00     0.102 A 
HETATM    2  C   UNL     1      66.008   6.914   6.681  1.00  0.00     0.063 A 
HETATM    3  S   UNL     1      64.249   5.091   6.319  1.00  0.00    -0.094 SA
HETATM    4  C   UNL     1      66.622   5.689   7.120  1.00  0.00    -0.032 A 
HETATM    5  C   UNL     1      65.753   4.627   6.970  1.00  0.00     0.059 A 
HETATM    6 CL   UNL     1      66.856   8.410   6.749  1.00  0.00    -0.082 Cl
HETATM    7  C   UNL     1      68.007   5.567   7.666  1.00  0.00     0.050 C 
ENDROOT
BRANCH   1   8
HETATM    8  C   UNL     1      63.807   7.760   5.709  1.00  0.00     0.301 C 
HETATM    9  O   UNL     1      62.806   8.173   6.282  1.00  0.00    -0.259 OA
BRANCH   8  10
HETATM   10  O   UNL     1      64.203   8.223   4.483  1.00  0.00    -0.322 OA
HETATM   11  C   UNL     1      63.236   8.017   3.452  1.00  0.00     0.213 C 
ENDBRANCH   8  10
ENDBRANCH   1   8
TORSDOF 2
ENDMDL
MODEL 9
REMARK VINA RESULT:      -3.2      4.171      5.153
REMARK  2 active torsions:
REMARK  status: ('A' for Active; 'I' for Inactive)
REMARK    1  A    between atoms: C_1  and  C_5 
REMARK    2  A    between atoms: C_5  and  O_9 
ROOT
HETATM    1  C   UNL     1      65.118   5.738   6.828  1.00  0.00     0.102 A 
HETATM    2  C   UNL     1      65.320   7.049   6.427  1.00  0.00     0.063 A 
HETATM    3  S   UNL     1      63.641   5.133   6.194  1.00  0.00    -0.094 SA
HETATM    4  C   UNL     1      64.262   7.559   5.597  1.00  0.00    -0.032 A 
HETATM    5  C   UNL     1      63.290   6.598   5.401  1.00  0.00     0.059 A 
HETATM    6 CL   UNL     1      66.675   8.026   6.844  1.00  0.00    -0.082 Cl
HETATM    7  C   UNL     1      64.208   8.935   5.018  1.00  0.00     0.050 C 
ENDROOT
BRANCH   1   8
HETATM    8  C   UNL     1      65.984   4.919   7.662  1.00  0.00     0.301 C 
HETATM    9  O   UNL     1      66.192   5.093   8.857  1.00  0.00    -0.259 OA
BRANCH   8  10
HETATM   10  O   UNL     1      66.560   3.901   6.951  1.00  0.00    -0.322 OA
HETATM   11  C   UNL     1      67.759   4.281   6.275  1.00  0.00     0.213 C 
ENDBRANCH   8  10
ENDBRANCH   1   8
TORSDOF 2
ENDMDL
