MODEL 1
REMARK VINA RESULT:      -3.8      0.000      0.000
REMARK  1 active torsions:
REMARK  status: ('A' for Active; 'I' for Inactive)
REMARK    1  A    between atoms: C_2  and  N_8 
ROOT
HETATM    1  C   UNL     1      62.591   9.727   3.793  1.00  0.00     0.078 A 
HETATM    2  C   UNL     1      62.005  10.303   2.679  1.00  0.00     0.088 A 
HETATM    3  C   UNL     1      62.839  10.432   5.017  1.00  0.00     0.102 C 
HETATM    4  S   UNL     1      61.860   9.172   1.397  1.00  0.00    -0.083 SA
HETATM    5  N   UNL     1      63.043  11.000   6.011  1.00  0.00    -0.191 NA
HETATM    6  C   UNL     1      62.920   8.350   3.579  1.00  0.00     0.033 A 
HETATM    7  C   UNL     1      62.574   7.924   2.317  1.00  0.00     0.053 A 
ENDROOT
BRANCH   2   8
HETATM    8  N   UNL     1      61.566  11.565   2.500  1.00  0.00    -0.392 N 
HETATM    9  H   UNL     1      62.185  12.261   2.182  1.00  0.00     0.156 HD
HETATM   10  H   UNL     1      60.626  11.790   2.689  1.00  0.00     0.156 HD
ENDBRANCH   2   8
TORSDOF 1
ENDMDL
MODEL 2
REMARK VINA RESULT:      -3.8      2.111      2.689
REMARK  1 active torsions:
REMARK  status: ('A' for Active; 'I' for Inactive)
REMARK    1  A    between atoms: C_2  and  N_8 
ROOT
HETATM    1  C   UNL     1      63.982   9.010   4.805  1.00  0.00     0.078 A 
HETATM    2  C   UNL     1      63.193  10.133   4.983  1.00  0.00     0.088 A 
HETATM    3  C   UNL     1      65.133   8.710   5.606  1.00  0.00     0.102 C 
HETATM    4  S   UNL     1      61.902  10.173   3.853  1.00  0.00    -0.083 SA
HETATM    5  N   UNL     1      66.068   8.464   6.252  1.00  0.00    -0.191 NA
HETATM    6  C   UNL     1      63.516   8.187   3.731  1.00  0.00     0.033 A 
HETATM    7  C   UNL     1      62.391   8.706   3.130  1.00  0.00     0.053 A 
ENDROOT
BRANCH   2   8
HETATM    8  N   UNL     1      63.315  11.130   5.882  1.00  0.00    -0.392 N 
HETATM    9  H   UNL     1      64.054  11.119   6.533  1.00  0.00     0.156 HD
HETATM   10  H   UNL     1      62.665  11.870   5.888  1.00  0.00     0.156 HD
ENDBRANCH   2   8
TORSDOF 1
ENDMDL
MODEL 3
REMARK VINA RESULT:      -3.7      1.725      2.872
REMARK  1 active torsions:
REMARK  status: ('A' for Active; 'I' for Inactive)
REMARK    1  A    between atoms: C_2  and  N_8 
ROOT
HETATM    1  C   UNL     1      62.223   9.879   3.663  1.00  0.00     0.078 A 
HETATM    2  C   UNL     1      62.798   9.916   4.921  1.00  0.00     0.088 A 
HETATM    3  C   UNL     1      61.974  11.047   2.867  1.00  0.00     0.102 C 
HETATM    4  S   UNL     1      62.948   8.339   5.583  1.00  0.00    -0.083 SA
HETATM    5  N   UNL     1      61.770  11.990   2.219  1.00  0.00    -0.191 NA
HETATM    6  C   UNL     1      61.906   8.546   3.252  1.00  0.00     0.033 A 
HETATM    7  C   UNL     1      62.250   7.614   4.205  1.00  0.00     0.053 A 
ENDROOT
BRANCH   2   8
HETATM    8  N   UNL     1      63.225  10.976   5.636  1.00  0.00    -0.392 N 
HETATM    9  H   UNL     1      63.063  11.013   6.607  1.00  0.00     0.156 HD
HETATM   10  H   UNL     1      63.699  11.713   5.187  1.00  0.00     0.156 HD
ENDBRANCH   2   8
TORSDOF 1
ENDMDL
MODEL 4
REMARK VINA RESULT:      -3.5      2.171      2.806
REMARK  1 active torsions:
REMARK  status: ('A' for Active; 'I' for Inactive)
REMARK    1  A    between atoms: C_2  and  N_8 
ROOT
HETATM    1  C   UNL     1      62.034   9.793   3.500  1.00  0.00     0.078 A 
HETATM    2  C   UNL     1      61.283   8.653   3.275  1.00  0.00     0.088 A 
HETATM    3  C   UNL     1      61.922  10.989   2.716  1.00  0.00     0.102 C 
HETATM    4  S   UNL     1      61.674   7.418   4.399  1.00  0.00    -0.083 SA
HETATM    5  N   UNL     1      61.835  11.960   2.083  1.00  0.00    -0.191 NA
HETATM    6  C   UNL     1      62.934   9.638   4.602  1.00  0.00     0.033 A 
HETATM    7  C   UNL     1      62.837   8.392   5.179  1.00  0.00     0.053 A 
ENDROOT
BRANCH   2   8
HETATM    8  N   UNL     1      60.343   8.420   2.337  1.00  0.00    -0.392 N 
HETATM    9  H   UNL     1      60.610   8.183   1.420  1.00  0.00     0.156 HD
HETATM   10  H   UNL     1      59.388   8.489   2.569  1.00  0.00     0.156 HD
ENDBRANCH   2   8
TORSDOF 1
ENDMDL
MODEL 5
REMARK VINA RESULT:      -3.5      1.786      2.393
REMARK  1 active torsions:
REMARK  status: ('A' for Active; 'I' for Inactive)
REMARK    1  A    between atoms: C_2  and  N_8 
ROOT
HETATM    1  C   UNL     1      62.061   9.699   2.733  1.00  0.00     0.078 A 
HETATM    2  C   UNL     1      62.175   8.437   3.288  1.00  0.00     0.088 A 
HETATM    3  C   UNL     1      61.992  10.907   3.504  1.00  0.00     0.102 C 
HETATM    4  S   UNL     1      62.230   7.226   2.074  1.00  0.00    -0.083 SA
HETATM    5  N   UNL     1      61.936  11.887   4.126  1.00  0.00    -0.191 NA
HETATM    6  C   UNL     1      62.017   9.659   1.302  1.00  0.00     0.033 A 
HETATM    7  C   UNL     1      62.101   8.373   0.817  1.00  0.00     0.053 A 
ENDROOT
BRANCH   2   8
HETATM    8  N   UNL     1      62.243   8.077   4.586  1.00  0.00    -0.392 N 
HETATM    9  H   UNL     1      61.436   7.758   5.051  1.00  0.00     0.156 HD
HETATM   10  H   UNL     1      63.099   8.134   5.067  1.00  0.00     0.156 HD
ENDBRANCH   2   8
TORSDOF 1
ENDMDL
MODEL 6
REMARK VINA RESULT:      -3.3      1.970      2.438
REMARK  1 active torsions:
REMARK  status: ('A' for Active; 'I' for Inactive)
REMARK    1  A    between atoms: C_2  and  N_8 
ROOT
HETATM    1  C   UNL     1      62.513   9.364   3.721  1.00  0.00     0.078 A 
HETATM    2  C   UNL     1      62.628   8.553   2.605  1.00  0.00     0.088 A 
HETATM    3  C   UNL     1      62.854   8.945   5.049  1.00  0.00     0.102 C 
HETATM    4  S   UNL     1      62.135   9.377   1.183  1.00  0.00    -0.083 SA
HETATM    5  N   UNL     1      63.129   8.608   6.128  1.00  0.00    -0.191 NA
HETATM    6  C   UNL     1      62.014  10.666   3.394  1.00  0.00     0.033 A 
HETATM    7  C   UNL     1      61.769  10.804   2.047  1.00  0.00     0.053 A 
ENDROOT
BRANCH   2   8
HETATM    8  N   UNL     1      63.054   7.277   2.516  1.00  0.00    -0.392 N 
HETATM    9  H   UNL     1      62.804   6.625   3.210  1.00  0.00     0.156 HD
HETATM   10  H   UNL     1      63.616   6.998   1.757  1.00  0.00     0.156 HD
ENDBRANCH   2   8
TORSDOF 1
ENDMDL
MODEL 7
REMARK VINA RESULT:      -3.2      2.876      3.824
REMARK  1 active torsions:
REMARK  status: ('A' for Active; 'I' for Inactive)
REMARK    1  A    between atoms: C_2  and  N_8 
ROOT
HETATM    1  C   UNL     1      63.315   8.549   3.806  1.00  0.00     0.078 A 
HETATM    2  C   UNL     1      63.789   9.145   4.962  1.00  0.00     0.088 A 
HETATM    3  C   UNL     1      63.807   7.303   3.294  1.00  0.00     0.102 C 
HETATM    4  S   UNL     1      62.977  10.624   5.277  1.00  0.00    -0.083 SA
HETATM    5  N   UNL     1      64.203   6.293   2.875  1.00  0.00    -0.191 NA
HETATM    6  C   UNL     1      62.283   9.321   3.184  1.00  0.00     0.033 A 
HETATM    7  C   UNL     1      62.003  10.473   3.884  1.00  0.00     0.053 A 
ENDROOT
BRANCH   2   8
HETATM    8  N   UNL     1      64.749   8.724   5.810  1.00  0.00    -0.392 N 
HETATM    9  H   UNL     1      65.121   9.343   6.479  1.00  0.00     0.156 HD
HETATM   10  H   UNL     1      65.078   7.798   5.759  1.00  0.00     0.156 HD
ENDBRANCH   2   8
TORSDOF 1
ENDMDL
MODEL 8
REMARK VINA RESULT:      -3.1      2.348      3.133
REMARK  1 active torsions:
REMARK  status: ('A' for Active; 'I' for Inactive)
REMARK    1  A    between atoms: C_2  and  N_8 
ROOT
HETATM    1  C   UNL     1      62.855   8.934   3.510  1.00  0.00     0.078 A 
HETATM    2  C   UNL     1      62.093   9.977   3.017  1.00  0.00     0.088 A 
HETATM    3  C   UNL     1      63.102   7.718   2.790  1.00  0.00     0.102 C 
HETATM    4  S   UNL     1      62.008  11.271   4.141  1.00  0.00    -0.083 SA
HETATM    5  N   UNL     1      63.305   6.731   2.210  1.00  0.00    -0.191 NA
HETATM    6  C   UNL     1      63.365   9.208   4.819  1.00  0.00     0.033 A 
HETATM    7  C   UNL     1      62.978  10.447   5.277  1.00  0.00     0.053 A 
ENDROOT
BRANCH   2   8
HETATM    8  N   UNL     1      61.453  10.085   1.835  1.00  0.00    -0.392 N 
HETATM    9  H   UNL     1      60.707   9.480   1.621  1.00  0.00     0.156 HD
HETATM   10  H   UNL     1      61.733  10.770   1.185  1.00  0.00     0.156 HD
ENDBRANCH   2   8
TORSDOF 1
ENDMDL
MODEL 9
REMARK VINA RESULT:      -3.1      5.371      6.218
REMARK  1 active torsions:
REMARK  status: ('A' for Active; 'I' for Inactive)
REMARK    1  A    between atoms: C_2  and  N_8 
ROOT
HETATM    1  C   UNL     1      65.326   6.401   6.670  1.00  0.00     0.078 A 
HETATM    2  C   UNL     1      66.526   7.069   6.838  1.00  0.00     0.088 A 
HETATM    3  C   UNL     1      64.048   7.052   6.647  1.00  0.00     0.102 C 
HETATM    4  S   UNL     1      67.853   5.981   6.813  1.00  0.00    -0.083 SA
HETATM    5  N   UNL     1      63.011   7.576   6.629  1.00  0.00    -0.191 NA
HETATM    6  C   UNL     1      65.509   4.989   6.525  1.00  0.00     0.033 A 
HETATM    7  C   UNL     1      66.837   4.629   6.583  1.00  0.00     0.053 A 
ENDROOT
BRANCH   2   8
HETATM    8  N   UNL     1      66.755   8.387   7.006  1.00  0.00    -0.392 N 
HETATM    9  H   UNL     1      67.117   8.719   7.859  1.00  0.00     0.156 HD
HETATM   10  H   UNL     1      66.560   9.017   6.275  1.00  0.00     0.156 HD
ENDBRANCH   2   8
TORSDOF 1
ENDMDL
