MODEL 1
REMARK VINA RESULT:      -4.2      0.000      0.000
REMARK  1 active torsions:
REMARK  status: ('A' for Active; 'I' for Inactive)
REMARK    1  A    between atoms: C_1  and  C_3 
ROOT
HETATM    1  C   UNL     1      62.367   9.900   3.503  1.00  0.00     0.103 A 
HETATM    2  C   UNL     1      62.011  10.390   2.258  1.00  0.00     0.058 A 
HETATM    3  S   UNL     1      62.655   8.202   3.429  1.00  0.00    -0.093 SA
HETATM    4  C   UNL     1      61.982   9.371   1.257  1.00  0.00     0.032 A 
HETATM    5  C   UNL     1      62.313   8.135   1.759  1.00  0.00     0.052 A 
HETATM    6 CL   UNL     1      61.627  12.008   1.835  1.00  0.00    -0.083 Cl
ENDROOT
BRANCH   1   7
HETATM    7  C   UNL     1      62.527  10.546   4.785  1.00  0.00     0.218 C 
HETATM    8  O   UNL     1      62.252  11.698   5.094  1.00  0.00    -0.643 OA
HETATM    9  O   UNL     1      63.048   9.728   5.724  1.00  0.00    -0.643 OA
ENDBRANCH   1   7
TORSDOF 1
ENDMDL
MODEL 2
REMARK VINA RESULT:      -4.1      1.945      2.376
REMARK  1 active torsions:
REMARK  status: ('A' for Active; 'I' for Inactive)
REMARK    1  A    between atoms: C_1  and  C_3 
ROOT
HETATM    1  C   UNL     1      62.348   9.898   3.234  1.00  0.00     0.103 A 
HETATM    2  C   UNL     1      62.391   8.874   2.304  1.00  0.00     0.058 A 
HETATM    3  S   UNL     1      62.834   9.331   4.788  1.00  0.00    -0.093 SA
HETATM    4  C   UNL     1      62.827   7.638   2.873  1.00  0.00     0.032 A 
HETATM    5  C   UNL     1      63.101   7.747   4.216  1.00  0.00     0.052 A 
HETATM    6 CL   UNL     1      61.997   8.949   0.636  1.00  0.00    -0.083 Cl
ENDROOT
BRANCH   1   7
HETATM    7  C   UNL     1      61.980  11.291   3.119  1.00  0.00     0.218 C 
HETATM    8  O   UNL     1      61.838  11.957   2.103  1.00  0.00    -0.643 OA
HETATM    9  O   UNL     1      61.780  11.882   4.316  1.00  0.00    -0.643 OA
ENDBRANCH   1   7
TORSDOF 1
ENDMDL
MODEL 3
REMARK VINA RESULT:      -4.0      2.494      2.862
REMARK  1 active torsions:
REMARK  status: ('A' for Active; 'I' for Inactive)
REMARK    1  A    between atoms: C_1  and  C_3 
ROOT
HETATM    1  C   UNL     1      62.877   9.670   4.405  1.00  0.00     0.103 A 
HETATM    2  C   UNL     1      63.820   8.658   4.438  1.00  0.00     0.058 A 
HETATM    3  S   UNL     1      61.680   9.348   3.206  1.00  0.00    -0.093 SA
HETATM    4  C   UNL     1      63.550   7.628   3.486  1.00  0.00     0.032 A 
HETATM    5  C   UNL     1      62.415   7.879   2.751  1.00  0.00     0.052 A 
HETATM    6 CL   UNL     1      65.195   8.534   5.456  1.00  0.00    -0.083 Cl
ENDROOT
BRANCH   1   7
HETATM    7  C   UNL     1      62.740  10.888   5.170  1.00  0.00     0.218 C 
HETATM    8  O   UNL     1      63.195  11.144   6.277  1.00  0.00    -0.643 OA
HETATM    9  O   UNL     1      62.010  11.829   4.535  1.00  0.00    -0.643 OA
ENDBRANCH   1   7
TORSDOF 1
ENDMDL
MODEL 4
REMARK VINA RESULT:      -4.0      1.602      1.870
REMARK  1 active torsions:
REMARK  status: ('A' for Active; 'I' for Inactive)
REMARK    1  A    between atoms: C_1  and  C_3 
ROOT
HETATM    1  C   UNL     1      62.913   9.070   4.019  1.00  0.00     0.103 A 
HETATM    2  C   UNL     1      62.297  10.172   3.450  1.00  0.00     0.058 A 
HETATM    3  S   UNL     1      62.995   7.768   2.891  1.00  0.00    -0.093 SA
HETATM    4  C   UNL     1      61.904   9.940   2.097  1.00  0.00     0.032 A 
HETATM    5  C   UNL     1      62.224   8.673   1.668  1.00  0.00     0.052 A 
HETATM    6 CL   UNL     1      61.985  11.694   4.177  1.00  0.00    -0.083 Cl
ENDROOT
BRANCH   1   7
HETATM    7  C   UNL     1      63.467   8.846   5.334  1.00  0.00     0.218 C 
HETATM    8  O   UNL     1      63.006   8.175   6.248  1.00  0.00    -0.643 OA
HETATM    9  O   UNL     1      64.644   9.480   5.524  1.00  0.00    -0.643 OA
ENDBRANCH   1   7
TORSDOF 1
ENDMDL
MODEL 5
REMARK VINA RESULT:      -3.8      2.503      2.779
REMARK  1 active torsions:
REMARK  status: ('A' for Active; 'I' for Inactive)
REMARK    1  A    between atoms: C_1  and  C_3 
ROOT
HETATM    1  C   UNL     1      62.901   9.115   3.989  1.00  0.00     0.103 A 
HETATM    2  C   UNL     1      62.964   8.322   2.856  1.00  0.00     0.058 A 
HETATM    3  S   UNL     1      62.057  10.582   3.659  1.00  0.00    -0.093 SA
HETATM    4  C   UNL     1      62.316   8.922   1.732  1.00  0.00     0.032 A 
HETATM    5  C   UNL     1      61.781  10.153   2.032  1.00  0.00     0.052 A 
HETATM    6 CL   UNL     1      63.700   6.782   2.689  1.00  0.00    -0.083 Cl
ENDROOT
BRANCH   1   7
HETATM    7  C   UNL     1      63.402   8.923   5.330  1.00  0.00     0.218 C 
HETATM    8  O   UNL     1      62.890   8.298   6.249  1.00  0.00    -0.643 OA
HETATM    9  O   UNL     1      64.589   9.532   5.540  1.00  0.00    -0.643 OA
ENDBRANCH   1   7
TORSDOF 1
ENDMDL
MODEL 6
REMARK VINA RESULT:      -3.6      6.891      7.496
REMARK  1 active torsions:
REMARK  status: ('A' for Active; 'I' for Inactive)
REMARK    1  A    between atoms: C_1  and  C_3 
ROOT
HETATM    1  C   UNL     1      66.743   6.540   7.244  1.00  0.00     0.103 A 
HETATM    2  C   UNL     1      67.388   5.517   6.570  1.00  0.00     0.058 A 
HETATM    3  S   UNL     1      66.983   6.393   8.946  1.00  0.00    -0.093 SA
HETATM    4  C   UNL     1      68.075   4.628   7.452  1.00  0.00     0.032 A 
HETATM    5  C   UNL     1      67.936   4.990   8.772  1.00  0.00     0.052 A 
HETATM    6 CL   UNL     1      67.435   5.240   4.877  1.00  0.00    -0.083 Cl
ENDROOT
BRANCH   1   7
HETATM    7  C   UNL     1      65.943   7.650   6.779  1.00  0.00     0.218 C 
HETATM    8  O   UNL     1      66.316   8.766   6.446  1.00  0.00    -0.643 OA
HETATM    9  O   UNL     1      64.626   7.361   6.723  1.00  0.00    -0.643 OA
ENDBRANCH   1   7
TORSDOF 1
ENDMDL
MODEL 7
REMARK VINA RESULT:      -3.5      2.438      3.246
REMARK  1 active torsions:
REMARK  status: ('A' for Active; 'I' for Inactive)
REMARK    1  A    between atoms: C_1  and  C_3 
ROOT
HETATM    1  C   UNL     1      62.309   9.423   2.855  1.00  0.00     0.103 A 
HETATM    2  C   UNL     1      62.100  10.773   3.079  1.00  0.00     0.058 A 
HETATM    3  S   UNL     1      62.805   8.635   4.306  1.00  0.00    -0.093 SA
HETATM    4  C   UNL     1      62.343  11.146   4.436  1.00  0.00     0.032 A 
HETATM    5  C   UNL     1      62.733  10.079   5.211  1.00  0.00     0.052 A 
HETATM    6 CL   UNL     1      61.604  11.963   1.947  1.00  0.00    -0.083 Cl
ENDROOT
BRANCH   1   7
HETATM    7  C   UNL     1      62.186   8.611   1.666  1.00  0.00     0.218 C 
HETATM    8  O   UNL     1      61.494   8.813   0.678  1.00  0.00    -0.643 OA
HETATM    9  O   UNL     1      62.956   7.503   1.705  1.00  0.00    -0.643 OA
ENDBRANCH   1   7
TORSDOF 1
ENDMDL
MODEL 8
REMARK VINA RESULT:      -3.4      2.562      3.013
REMARK  1 active torsions:
REMARK  status: ('A' for Active; 'I' for Inactive)
REMARK    1  A    between atoms: C_1  and  C_3 
ROOT
HETATM    1  C   UNL     1      62.227   9.443   4.017  1.00  0.00     0.103 A 
HETATM    2  C   UNL     1      61.556   8.239   3.892  1.00  0.00     0.058 A 
HETATM    3  S   UNL     1      63.603   9.268   5.042  1.00  0.00    -0.093 SA
HETATM    4  C   UNL     1      62.177   7.186   4.631  1.00  0.00     0.032 A 
HETATM    5  C   UNL     1      63.300   7.610   5.302  1.00  0.00     0.052 A 
HETATM    6 CL   UNL     1      60.136   7.917   2.984  1.00  0.00    -0.083 Cl
ENDROOT
BRANCH   1   7
HETATM    7  C   UNL     1      61.976  10.752   3.460  1.00  0.00     0.218 C 
HETATM    8  O   UNL     1      61.825  11.812   4.052  1.00  0.00    -0.643 OA
HETATM    9  O   UNL     1      61.909  10.745   2.112  1.00  0.00    -0.643 OA
ENDBRANCH   1   7
TORSDOF 1
ENDMDL
MODEL 9
REMARK VINA RESULT:      -3.3      5.699      6.137
REMARK  1 active torsions:
REMARK  status: ('A' for Active; 'I' for Inactive)
REMARK    1  A    between atoms: C_1  and  C_3 
ROOT
HETATM    1  C   UNL     1      65.936   7.100   5.736  1.00  0.00     0.103 A 
HETATM    2  C   UNL     1      66.789   6.507   6.651  1.00  0.00     0.058 A 
HETATM    3  S   UNL     1      66.155   6.417   4.168  1.00  0.00    -0.093 SA
HETATM    4  C   UNL     1      67.608   5.497   6.059  1.00  0.00     0.032 A 
HETATM    5  C   UNL     1      67.365   5.346   4.714  1.00  0.00     0.052 A 
HETATM    6 CL   UNL     1      66.940   6.852   8.324  1.00  0.00    -0.083 Cl
ENDROOT
BRANCH   1   7
HETATM    7  C   UNL     1      64.946   8.143   5.874  1.00  0.00     0.218 C 
HETATM    8  O   UNL     1      65.044   9.326   5.578  1.00  0.00    -0.643 OA
HETATM    9  O   UNL     1      63.785   7.699   6.400  1.00  0.00    -0.643 OA
ENDBRANCH   1   7
TORSDOF 1
ENDMDL
