MODEL 1
REMARK VINA RESULT:      -4.2      0.000      0.000
REMARK  3 active torsions:
REMARK  status: ('A' for Active; 'I' for Inactive)
REMARK    1  A    between atoms: C_1  and  C_3 
REMARK    2  A    between atoms: C_2  and  N_8 
REMARK    3  A    between atoms: C_3  and  O_9 
ROOT
HETATM    1  C   UNL     1      63.512   9.177   4.971  1.00  0.00     0.072 A 
HETATM    2  C   UNL     1      63.059  10.527   5.157  1.00  0.00     0.049 A 
HETATM    3  S   UNL     1      61.899   9.726   3.016  1.00  0.00    -0.110 SA
HETATM    4  C   UNL     1      62.939   8.641   3.827  1.00  0.00     0.069 A 
HETATM    5  C   UNL     1      62.189  10.943   4.177  1.00  0.00     0.079 A 
ENDROOT
BRANCH   1   6
HETATM    6  C   UNL     1      64.438   8.420   5.818  1.00  0.00     0.295 C 
HETATM    7  O   UNL     1      64.149   7.366   6.369  1.00  0.00    -0.259 OA
BRANCH   6   8
HETATM    8  O   UNL     1      65.666   9.021   5.927  1.00  0.00    -0.322 OA
HETATM    9  C   UNL     1      66.688   8.200   6.489  1.00  0.00     0.213 C 
ENDBRANCH   6   8
ENDBRANCH   1   6
BRANCH   2  10
HETATM   10  N   UNL     1      63.425  11.332   6.173  1.00  0.00    -0.398 N 
HETATM   11  H   UNL     1      64.378  11.457   6.383  1.00  0.00     0.156 HD
HETATM   12  H   UNL     1      62.739  11.795   6.704  1.00  0.00     0.156 HD
ENDBRANCH   2  10
TORSDOF 3
ENDMDL
MODEL 2
REMARK VINA RESULT:      -3.7      2.475      3.745
REMARK  3 active torsions:
REMARK  status: ('A' for Active; 'I' for Inactive)
REMARK    1  A    between atoms: C_1  and  C_3 
REMARK    2  A    between atoms: C_2  and  N_8 
REMARK    3  A    between atoms: C_3  and  O_9 
ROOT
HETATM    1  C   UNL     1      63.384   8.898   4.375  1.00  0.00     0.072 A 
HETATM    2  C   UNL     1      64.543   8.246   4.917  1.00  0.00     0.049 A 
HETATM    3  S   UNL     1      63.793   6.759   2.967  1.00  0.00    -0.110 SA
HETATM    4  C   UNL     1      62.891   8.170   3.302  1.00  0.00     0.069 A 
HETATM    5  C   UNL     1      64.869   7.087   4.252  1.00  0.00     0.079 A 
ENDROOT
BRANCH   1   6
HETATM    6  C   UNL     1      62.762  10.142   4.835  1.00  0.00     0.295 C 
HETATM    7  O   UNL     1      63.184  10.808   5.771  1.00  0.00    -0.259 OA
BRANCH   6   8
HETATM    8  O   UNL     1      61.654  10.482   4.102  1.00  0.00    -0.322 OA
HETATM    9  C   UNL     1      61.853  11.542   3.169  1.00  0.00     0.213 C 
ENDBRANCH   6   8
ENDBRANCH   1   6
BRANCH   2  10
HETATM   10  N   UNL     1      65.262   8.691   5.964  1.00  0.00    -0.398 N 
HETATM   11  H   UNL     1      65.772   9.529   5.890  1.00  0.00     0.156 HD
HETATM   12  H   UNL     1      65.276   8.179   6.805  1.00  0.00     0.156 HD
ENDBRANCH   2  10
TORSDOF 3
ENDMDL
MODEL 3
REMARK VINA RESULT:      -3.6      1.944      2.327
REMARK  3 active torsions:
REMARK  status: ('A' for Active; 'I' for Inactive)
REMARK    1  A    between atoms: C_1  and  C_3 
REMARK    2  A    between atoms: C_2  and  N_8 
REMARK    3  A    between atoms: C_3  and  O_9 
ROOT
HETATM    1  C   UNL     1      62.837   9.161   3.758  1.00  0.00     0.072 A 
HETATM    2  C   UNL     1      62.081  10.052   2.923  1.00  0.00     0.049 A 
HETATM    3  S   UNL     1      62.291   7.886   1.566  1.00  0.00    -0.110 SA
HETATM    4  C   UNL     1      63.011   7.945   3.114  1.00  0.00     0.069 A 
HETATM    5  C   UNL     1      61.726   9.491   1.719  1.00  0.00     0.079 A 
ENDROOT
BRANCH   1   6
HETATM    6  C   UNL     1      63.373   9.429   5.094  1.00  0.00     0.295 C 
HETATM    7  O   UNL     1      63.296  10.515   5.654  1.00  0.00    -0.259 OA
BRANCH   6   8
HETATM    8  O   UNL     1      63.972   8.329   5.654  1.00  0.00    -0.322 OA
HETATM    9  C   UNL     1      65.399   8.353   5.645  1.00  0.00     0.213 C 
ENDBRANCH   6   8
ENDBRANCH   1   6
BRANCH   2  10
HETATM   10  N   UNL     1      61.736  11.312   3.250  1.00  0.00    -0.398 N 
HETATM   11  H   UNL     1      62.316  11.843   3.842  1.00  0.00     0.156 HD
HETATM   12  H   UNL     1      60.905  11.701   2.896  1.00  0.00     0.156 HD
ENDBRANCH   2  10
TORSDOF 3
ENDMDL
MODEL 4
REMARK VINA RESULT:      -3.5      1.968      2.520
REMARK  3 active torsions:
REMARK  status: ('A' for Active; 'I' for Inactive)
REMARK    1  A    between atoms: C_1  and  C_3 
REMARK    2  A    between atoms: C_2  and  N_8 
REMARK    3  A    between atoms: C_3  and  O_9 
ROOT
HETATM    1  C   UNL     1      63.824   8.741   4.722  1.00  0.00     0.072 A 
HETATM    2  C   UNL     1      63.423   8.095   3.505  1.00  0.00     0.049 A 
HETATM    3  S   UNL     1      61.927  10.170   3.680  1.00  0.00    -0.110 SA
HETATM    4  C   UNL     1      63.070   9.889   4.918  1.00  0.00     0.069 A 
HETATM    5  C   UNL     1      62.413   8.760   2.849  1.00  0.00     0.079 A 
ENDROOT
BRANCH   1   6
HETATM    6  C   UNL     1      64.861   8.310   5.662  1.00  0.00     0.295 C 
HETATM    7  O   UNL     1      65.755   9.039   6.071  1.00  0.00    -0.259 OA
BRANCH   6   8
HETATM    8  O   UNL     1      64.723   6.998   6.037  1.00  0.00    -0.322 OA
HETATM    9  C   UNL     1      65.512   6.607   7.159  1.00  0.00     0.213 C 
ENDBRANCH   6   8
ENDBRANCH   1   6
BRANCH   2  10
HETATM   10  N   UNL     1      63.956   6.957   3.021  1.00  0.00    -0.398 N 
HETATM   11  H   UNL     1      64.788   6.600   3.407  1.00  0.00     0.156 HD
HETATM   12  H   UNL     1      63.512   6.481   2.283  1.00  0.00     0.156 HD
ENDBRANCH   2  10
TORSDOF 3
ENDMDL
MODEL 5
REMARK VINA RESULT:      -3.3      2.906      3.646
REMARK  3 active torsions:
REMARK  status: ('A' for Active; 'I' for Inactive)
REMARK    1  A    between atoms: C_1  and  C_3 
REMARK    2  A    between atoms: C_2  and  N_8 
REMARK    3  A    between atoms: C_3  and  O_9 
ROOT
HETATM    1  C   UNL     1      61.834   9.323   3.097  1.00  0.00     0.072 A 
HETATM    2  C   UNL     1      61.253   8.013   3.178  1.00  0.00     0.049 A 
HETATM    3  S   UNL     1      61.571   8.445   0.671  1.00  0.00    -0.110 SA
HETATM    4  C   UNL     1      62.050   9.662   1.770  1.00  0.00     0.069 A 
HETATM    5  C   UNL     1      61.060   7.432   1.947  1.00  0.00     0.079 A 
ENDROOT
BRANCH   1   6
HETATM    6  C   UNL     1      62.172  10.221   4.204  1.00  0.00     0.295 C 
HETATM    7  O   UNL     1      61.954  11.425   4.195  1.00  0.00    -0.259 OA
BRANCH   6   8
HETATM    8  O   UNL     1      62.759   9.565   5.256  1.00  0.00    -0.322 OA
HETATM    9  C   UNL     1      64.103   9.145   5.027  1.00  0.00     0.213 C 
ENDBRANCH   6   8
ENDBRANCH   1   6
BRANCH   2  10
HETATM   10  N   UNL     1      60.920   7.384   4.321  1.00  0.00    -0.398 N 
HETATM   11  H   UNL     1      61.158   7.782   5.189  1.00  0.00     0.156 HD
HETATM   12  H   UNL     1      60.437   6.528   4.289  1.00  0.00     0.156 HD
ENDBRANCH   2  10
TORSDOF 3
ENDMDL
MODEL 6
REMARK VINA RESULT:      -3.3      2.385      2.750
REMARK  3 active torsions:
REMARK  status: ('A' for Active; 'I' for Inactive)
REMARK    1  A    between atoms: C_1  and  C_3 
REMARK    2  A    between atoms: C_2  and  N_8 
REMARK    3  A    between atoms: C_3  and  O_9 
ROOT
HETATM    1  C   UNL     1      62.018   7.680   4.630  1.00  0.00     0.072 A 
HETATM    2  C   UNL     1      61.379   8.519   3.656  1.00  0.00     0.049 A 
HETATM    3  S   UNL     1      60.875   6.120   2.902  1.00  0.00    -0.110 SA
HETATM    4  C   UNL     1      61.807   6.346   4.315  1.00  0.00     0.069 A 
HETATM    5  C   UNL     1      60.731   7.807   2.674  1.00  0.00     0.079 A 
ENDROOT
BRANCH   1   6
HETATM    6  C   UNL     1      62.791   8.100   5.801  1.00  0.00     0.295 C 
HETATM    7  O   UNL     1      62.609   7.663   6.930  1.00  0.00    -0.259 OA
BRANCH   6   8
HETATM    8  O   UNL     1      63.745   9.038   5.496  1.00  0.00    -0.322 OA
HETATM    9  C   UNL     1      65.011   8.505   5.113  1.00  0.00     0.213 C 
ENDBRANCH   6   8
ENDBRANCH   1   6
BRANCH   2  10
HETATM   10  N   UNL     1      61.391   9.865   3.668  1.00  0.00    -0.398 N 
HETATM   11  H   UNL     1      62.085  10.356   3.173  1.00  0.00     0.156 HD
HETATM   12  H   UNL     1      60.704  10.358   4.172  1.00  0.00     0.156 HD
ENDBRANCH   2  10
TORSDOF 3
ENDMDL
MODEL 7
REMARK VINA RESULT:      -3.2      3.059      4.165
REMARK  3 active torsions:
REMARK  status: ('A' for Active; 'I' for Inactive)
REMARK    1  A    between atoms: C_1  and  C_3 
REMARK    2  A    between atoms: C_2  and  N_8 
REMARK    3  A    between atoms: C_3  and  O_9 
ROOT
HETATM    1  C   UNL     1      62.132   8.452   4.432  1.00  0.00     0.072 A 
HETATM    2  C   UNL     1      63.240   8.490   5.344  1.00  0.00     0.049 A 
HETATM    3  S   UNL     1      62.282   6.120   5.557  1.00  0.00    -0.110 SA
HETATM    4  C   UNL     1      61.534   7.202   4.467  1.00  0.00     0.069 A 
HETATM    5  C   UNL     1      63.429   7.302   6.011  1.00  0.00     0.079 A 
ENDROOT
BRANCH   1   6
HETATM    6  C   UNL     1      61.650   9.532   3.567  1.00  0.00     0.295 C 
HETATM    7  O   UNL     1      61.617  10.709   3.902  1.00  0.00    -0.259 OA
BRANCH   6   8
HETATM    8  O   UNL     1      61.240   9.082   2.338  1.00  0.00    -0.322 OA
HETATM    9  C   UNL     1      62.085   9.453   1.250  1.00  0.00     0.213 C 
ENDBRANCH   6   8
ENDBRANCH   1   6
BRANCH   2  10
HETATM   10  N   UNL     1      64.035   9.556   5.552  1.00  0.00    -0.398 N 
HETATM   11  H   UNL     1      63.950  10.352   4.980  1.00  0.00     0.156 HD
HETATM   12  H   UNL     1      64.700   9.539   6.277  1.00  0.00     0.156 HD
ENDBRANCH   2  10
TORSDOF 3
ENDMDL
MODEL 8
REMARK VINA RESULT:      -3.1      2.586      2.810
REMARK  3 active torsions:
REMARK  status: ('A' for Active; 'I' for Inactive)
REMARK    1  A    between atoms: C_1  and  C_3 
REMARK    2  A    between atoms: C_2  and  N_8 
REMARK    3  A    between atoms: C_3  and  O_9 
ROOT
HETATM    1  C   UNL     1      64.527   7.488   4.700  1.00  0.00     0.072 A 
HETATM    2  C   UNL     1      63.223   7.431   5.298  1.00  0.00     0.049 A 
HETATM    3  S   UNL     1      63.010   6.116   3.107  1.00  0.00    -0.110 SA
HETATM    4  C   UNL     1      64.525   6.800   3.496  1.00  0.00     0.069 A 
HETATM    5  C   UNL     1      62.316   6.724   4.544  1.00  0.00     0.079 A 
ENDROOT
BRANCH   1   6
HETATM    6  C   UNL     1      65.722   8.154   5.226  1.00  0.00     0.295 C 
HETATM    7  O   UNL     1      65.693   9.034   6.077  1.00  0.00    -0.259 OA
BRANCH   6   8
HETATM    8  O   UNL     1      66.880   7.684   4.661  1.00  0.00    -0.322 OA
HETATM    9  C   UNL     1      67.741   6.980   5.555  1.00  0.00     0.213 C 
ENDBRANCH   6   8
ENDBRANCH   1   6
BRANCH   2  10
HETATM   10  N   UNL     1      62.885   7.997   6.472  1.00  0.00    -0.398 N 
HETATM   11  H   UNL     1      61.989   8.388   6.590  1.00  0.00     0.156 HD
HETATM   12  H   UNL     1      63.533   8.020   7.212  1.00  0.00     0.156 HD
ENDBRANCH   2  10
TORSDOF 3
ENDMDL
MODEL 9
REMARK VINA RESULT:      -3.1      3.381      4.471
REMARK  3 active torsions:
REMARK  status: ('A' for Active; 'I' for Inactive)
REMARK    1  A    between atoms: C_1  and  C_3 
REMARK    2  A    between atoms: C_2  and  N_8 
REMARK    3  A    between atoms: C_3  and  O_9 
ROOT
HETATM    1  C   UNL     1      61.780   8.565   2.603  1.00  0.00     0.072 A 
HETATM    2  C   UNL     1      60.462   7.995   2.562  1.00  0.00     0.049 A 
HETATM    3  S   UNL     1      61.667   7.033   0.514  1.00  0.00    -0.110 SA
HETATM    4  C   UNL     1      62.526   8.106   1.528  1.00  0.00     0.069 A 
HETATM    5  C   UNL     1      60.271   7.156   1.490  1.00  0.00     0.079 A 
ENDROOT
BRANCH   1   6
HETATM    6  C   UNL     1      62.320   9.494   3.598  1.00  0.00     0.295 C 
HETATM    7  O   UNL     1      63.315   9.266   4.274  1.00  0.00    -0.259 OA
BRANCH   6   8
HETATM    8  O   UNL     1      61.590  10.652   3.691  1.00  0.00    -0.322 OA
HETATM    9  C   UNL     1      61.771  11.564   2.610  1.00  0.00     0.213 C 
ENDBRANCH   6   8
ENDBRANCH   1   6
BRANCH   2  10
HETATM   10  N   UNL     1      59.488   8.234   3.461  1.00  0.00    -0.398 N 
HETATM   11  H   UNL     1      58.644   8.650   3.173  1.00  0.00     0.156 HD
HETATM   12  H   UNL     1      59.621   7.992   4.406  1.00  0.00     0.156 HD
ENDBRANCH   2  10
TORSDOF 3
ENDMDL
