MODEL 1
REMARK VINA RESULT:      -5.9      0.000      0.000
REMARK  2 active torsions:
REMARK  status: ('A' for Active; 'I' for Inactive)
REMARK    1  A    between atoms: C_4  and  C_7 
REMARK    2  A    between atoms: C_5  and  S_8 
ROOT
HETATM    1  C   UNL     1      65.371   8.163   5.385  1.00  0.00     0.070 A 
HETATM    2  N   UNL     1      63.379   7.652   6.362  1.00  0.00    -0.299 N 
ATOM      3  HN  UNL     1      62.391   7.621   6.610  1.00  0.00     0.187 HD
HETATM    4  C   UNL     1      63.964   8.376   5.393  1.00  0.00     0.061 A 
HETATM    5  C   UNL     1      65.609   7.260   6.386  1.00  0.00     0.086 A 
HETATM    6  N   UNL     1      64.395   6.977   6.930  1.00  0.00    -0.294 N 
HETATM    7  H   UNL     1      64.272   6.340   7.671  1.00  0.00     0.187 HD
ENDROOT
BRANCH   4   8
HETATM    8  C   UNL     1      63.204   9.265   4.512  1.00  0.00    -0.008 A 
HETATM    9  C   UNL     1      62.798  10.534   4.955  1.00  0.00     0.017 A 
HETATM   10  C   UNL     1      62.112  11.397   4.096  1.00  0.00     0.043 A 
HETATM   11  C   UNL     1      61.822  10.988   2.800  1.00  0.00     0.116 A 
HETATM   12  C   UNL     1      62.196   9.730   2.346  1.00  0.00     0.043 A 
HETATM   13  F   UNL     1      61.172  11.818   1.973  1.00  0.00    -0.206 F 
HETATM   14  C   UNL     1      62.886   8.868   3.202  1.00  0.00     0.017 A 
ENDBRANCH   4   8
BRANCH   5  15
HETATM   15  S   UNL     1      67.028   6.507   7.016  1.00  0.00    -0.115 SA
HETATM   16  C   UNL     1      66.714   6.544   8.796  1.00  0.00     0.097 C 
ENDBRANCH   5  15
TORSDOF 2
ENDMDL
MODEL 2
REMARK VINA RESULT:      -5.3      1.324      1.504
REMARK  2 active torsions:
REMARK  status: ('A' for Active; 'I' for Inactive)
REMARK    1  A    between atoms: C_4  and  C_7 
REMARK    2  A    between atoms: C_5  and  S_8 
ROOT
HETATM    1  C   UNL     1      64.518   6.584   6.085  1.00  0.00     0.070 A 
HETATM    2  N   UNL     1      65.527   8.625   6.060  1.00  0.00    -0.299 N 
ATOM      3  HN  UNL     1      65.786   9.585   5.837  1.00  0.00     0.187 HD
HETATM    4  C   UNL     1      64.535   7.892   5.525  1.00  0.00     0.061 A 
HETATM    5  C   UNL     1      65.537   6.564   7.000  1.00  0.00     0.086 A 
HETATM    6  N   UNL     1      66.100   7.802   6.958  1.00  0.00    -0.294 N 
HETATM    7  H   UNL     1      66.856   8.069   7.528  1.00  0.00     0.187 HD
ENDROOT
BRANCH   4   8
HETATM    8  C   UNL     1      63.643   8.418   4.491  1.00  0.00    -0.008 A 
HETATM    9  C   UNL     1      62.966   9.633   4.683  1.00  0.00     0.017 A 
HETATM   10  C   UNL     1      62.150  10.156   3.675  1.00  0.00     0.043 A 
HETATM   11  C   UNL     1      62.002   9.458   2.481  1.00  0.00     0.116 A 
HETATM   12  C   UNL     1      62.647   8.245   2.277  1.00  0.00     0.043 A 
HETATM   13  F   UNL     1      61.227   9.962   1.512  1.00  0.00    -0.206 F 
HETATM   14  C   UNL     1      63.466   7.725   3.282  1.00  0.00     0.017 A 
ENDBRANCH   4   8
BRANCH   5  15
HETATM   15  S   UNL     1      66.169   5.371   8.073  1.00  0.00    -0.115 SA
HETATM   16  C   UNL     1      67.179   6.369   9.192  1.00  0.00     0.097 C 
ENDBRANCH   5  15
TORSDOF 2
ENDMDL
MODEL 3
REMARK VINA RESULT:      -5.2      1.680      2.176
REMARK  2 active torsions:
REMARK  status: ('A' for Active; 'I' for Inactive)
REMARK    1  A    between atoms: C_4  and  C_7 
REMARK    2  A    between atoms: C_5  and  S_8 
ROOT
HETATM    1  C   UNL     1      63.084   6.775   5.089  1.00  0.00     0.070 A 
HETATM    2  N   UNL     1      64.402   8.401   5.984  1.00  0.00    -0.299 N 
ATOM      3  HN  UNL     1      64.861   9.290   6.182  1.00  0.00     0.187 HD
HETATM    4  C   UNL     1      63.443   8.152   5.077  1.00  0.00     0.061 A 
HETATM    5  C   UNL     1      63.860   6.204   6.062  1.00  0.00     0.086 A 
HETATM    6  N   UNL     1      64.619   7.210   6.573  1.00  0.00    -0.294 N 
HETATM    7  H   UNL     1      65.265   7.080   7.303  1.00  0.00     0.187 HD
ENDROOT
BRANCH   4   8
HETATM    8  C   UNL     1      62.899   9.196   4.206  1.00  0.00    -0.008 A 
HETATM    9  C   UNL     1      62.681   8.946   2.842  1.00  0.00     0.017 A 
HETATM   10  C   UNL     1      62.119   9.929   2.023  1.00  0.00     0.043 A 
HETATM   11  C   UNL     1      61.786  11.166   2.565  1.00  0.00     0.116 A 
HETATM   12  C   UNL     1      62.011  11.442   3.907  1.00  0.00     0.043 A 
HETATM   13  F   UNL     1      61.240  12.106   1.783  1.00  0.00    -0.206 F 
HETATM   14  C   UNL     1      62.568  10.458   4.727  1.00  0.00     0.017 A 
ENDBRANCH   4   8
BRANCH   5  15
HETATM   15  S   UNL     1      64.033   4.602   6.678  1.00  0.00    -0.115 SA
HETATM   16  C   UNL     1      65.603   4.085   5.946  1.00  0.00     0.097 C 
ENDBRANCH   5  15
TORSDOF 2
ENDMDL
MODEL 4
REMARK VINA RESULT:      -4.4      2.113      2.749
REMARK  2 active torsions:
REMARK  status: ('A' for Active; 'I' for Inactive)
REMARK    1  A    between atoms: C_4  and  C_7 
REMARK    2  A    between atoms: C_5  and  S_8 
ROOT
HETATM    1  C   UNL     1      64.215   6.973   4.623  1.00  0.00     0.070 A 
HETATM    2  N   UNL     1      63.862   9.209   4.869  1.00  0.00    -0.299 N 
ATOM      3  HN  UNL     1      63.525  10.164   4.755  1.00  0.00     0.187 HD
HETATM    4  C   UNL     1      63.488   8.115   4.183  1.00  0.00     0.061 A 
HETATM    5  C   UNL     1      65.036   7.424   5.622  1.00  0.00     0.086 A 
HETATM    6  N   UNL     1      64.783   8.756   5.740  1.00  0.00    -0.294 N 
HETATM    7  H   UNL     1      65.231   9.333   6.398  1.00  0.00     0.187 HD
ENDROOT
BRANCH   4   8
HETATM    8  C   UNL     1      62.481   8.161   3.122  1.00  0.00    -0.008 A 
HETATM    9  C   UNL     1      61.557   7.116   2.967  1.00  0.00     0.017 A 
HETATM   10  C   UNL     1      60.567   7.186   1.982  1.00  0.00     0.043 A 
HETATM   11  C   UNL     1      60.509   8.294   1.145  1.00  0.00     0.116 A 
HETATM   12  C   UNL     1      61.425   9.331   1.267  1.00  0.00     0.043 A 
HETATM   13  F   UNL     1      59.557   8.365   0.206  1.00  0.00    -0.206 F 
HETATM   14  C   UNL     1      62.411   9.265   2.255  1.00  0.00     0.017 A 
ENDBRANCH   4   8
BRANCH   5  15
HETATM   15  S   UNL     1      66.214   6.683   6.640  1.00  0.00    -0.115 SA
HETATM   16  C   UNL     1      67.678   6.677   5.578  1.00  0.00     0.097 C 
ENDBRANCH   5  15
TORSDOF 2
ENDMDL
MODEL 5
REMARK VINA RESULT:      -4.3     13.602     14.715
REMARK  2 active torsions:
REMARK  status: ('A' for Active; 'I' for Inactive)
REMARK    1  A    between atoms: C_4  and  C_7 
REMARK    2  A    between atoms: C_5  and  S_8 
ROOT
HETATM    1  C   UNL     1      54.733   2.762  12.547  1.00  0.00     0.070 A 
HETATM    2  N   UNL     1      55.097   3.026  14.778  1.00  0.00    -0.299 N 
ATOM      3  HN  UNL     1      55.461   2.942  15.727  1.00  0.00     0.187 HD
HETATM    4  C   UNL     1      55.524   2.395  13.671  1.00  0.00     0.061 A 
HETATM    5  C   UNL     1      53.815   3.660  13.022  1.00  0.00     0.086 A 
HETATM    6  N   UNL     1      54.078   3.794  14.350  1.00  0.00    -0.294 N 
HETATM    7  H   UNL     1      53.570   4.395  14.942  1.00  0.00     0.187 HD
ENDROOT
BRANCH   4   8
HETATM    8  C   UNL     1      56.642   1.451  13.690  1.00  0.00    -0.008 A 
HETATM    9  C   UNL     1      57.966   1.913  13.750  1.00  0.00     0.017 A 
HETATM   10  C   UNL     1      59.030   1.008  13.814  1.00  0.00     0.043 A 
HETATM   11  C   UNL     1      58.770  -0.358  13.807  1.00  0.00     0.116 A 
HETATM   12  C   UNL     1      57.469  -0.838  13.729  1.00  0.00     0.043 A 
HETATM   13  F   UNL     1      59.788  -1.226  13.877  1.00  0.00    -0.206 F 
HETATM   14  C   UNL     1      56.405   0.066  13.671  1.00  0.00     0.017 A 
ENDBRANCH   4   8
BRANCH   5  15
HETATM   15  S   UNL     1      52.519   4.549  12.310  1.00  0.00    -0.115 SA
HETATM   16  C   UNL     1      51.739   5.299  13.758  1.00  0.00     0.097 C 
ENDBRANCH   5  15
TORSDOF 2
ENDMDL
MODEL 6
REMARK VINA RESULT:      -4.2      2.127      2.210
REMARK  2 active torsions:
REMARK  status: ('A' for Active; 'I' for Inactive)
REMARK    1  A    between atoms: C_4  and  C_7 
REMARK    2  A    between atoms: C_5  and  S_8 
ROOT
HETATM    1  C   UNL     1      63.683   6.193   5.173  1.00  0.00     0.070 A 
HETATM    2  N   UNL     1      64.940   6.467   3.295  1.00  0.00    -0.299 N 
ATOM      3  HN  UNL     1      65.322   6.812   2.415  1.00  0.00     0.187 HD
HETATM    4  C   UNL     1      63.936   6.988   4.020  1.00  0.00     0.061 A 
HETATM    5  C   UNL     1      64.596   5.174   5.122  1.00  0.00     0.086 A 
HETATM    6  N   UNL     1      65.328   5.385   3.995  1.00  0.00    -0.294 N 
HETATM    7  H   UNL     1      66.070   4.801   3.717  1.00  0.00     0.187 HD
ENDROOT
BRANCH   4   8
HETATM    8  C   UNL     1      63.221   8.198   3.611  1.00  0.00    -0.008 A 
HETATM    9  C   UNL     1      63.023   9.251   4.518  1.00  0.00     0.017 A 
HETATM   10  C   UNL     1      62.381  10.424   4.112  1.00  0.00     0.043 A 
HETATM   11  C   UNL     1      61.926  10.540   2.803  1.00  0.00     0.116 A 
HETATM   12  C   UNL     1      62.094   9.503   1.893  1.00  0.00     0.043 A 
HETATM   13  F   UNL     1      61.318  11.667   2.410  1.00  0.00    -0.206 F 
HETATM   14  C   UNL     1      62.740   8.333   2.297  1.00  0.00     0.017 A 
ENDBRANCH   4   8
BRANCH   5  15
HETATM   15  S   UNL     1      64.937   3.811   6.123  1.00  0.00    -0.115 SA
HETATM   16  C   UNL     1      65.932   4.552   7.439  1.00  0.00     0.097 C 
ENDBRANCH   5  15
TORSDOF 2
ENDMDL
MODEL 7
REMARK VINA RESULT:      -4.1      2.942      3.243
REMARK  2 active torsions:
REMARK  status: ('A' for Active; 'I' for Inactive)
REMARK    1  A    between atoms: C_4  and  C_7 
REMARK    2  A    between atoms: C_5  and  S_8 
ROOT
HETATM    1  C   UNL     1      65.491   5.388   3.574  1.00  0.00     0.070 A 
HETATM    2  N   UNL     1      66.787   7.053   4.429  1.00  0.00    -0.299 N 
ATOM      3  HN  UNL     1      67.121   7.949   4.783  1.00  0.00     0.187 HD
HETATM    4  C   UNL     1      65.544   6.735   4.029  1.00  0.00     0.061 A 
HETATM    5  C   UNL     1      66.760   4.898   3.734  1.00  0.00     0.086 A 
HETATM    6  N   UNL     1      67.491   5.919   4.255  1.00  0.00    -0.294 N 
HETATM    7  H   UNL     1      68.445   5.837   4.482  1.00  0.00     0.187 HD
ENDROOT
BRANCH   4   8
HETATM    8  C   UNL     1      64.441   7.698   4.059  1.00  0.00    -0.008 A 
HETATM    9  C   UNL     1      64.403   8.709   5.032  1.00  0.00     0.017 A 
HETATM   10  C   UNL     1      63.373   9.654   5.030  1.00  0.00     0.043 A 
HETATM   11  C   UNL     1      62.376   9.581   4.064  1.00  0.00     0.116 A 
HETATM   12  C   UNL     1      62.383   8.577   3.103  1.00  0.00     0.043 A 
HETATM   13  F   UNL     1      61.393  10.491   4.056  1.00  0.00    -0.206 F 
HETATM   14  C   UNL     1      63.415   7.635   3.102  1.00  0.00     0.017 A 
ENDBRANCH   4   8
BRANCH   5  15
HETATM   15  S   UNL     1      67.513   3.379   3.415  1.00  0.00    -0.115 SA
HETATM   16  C   UNL     1      67.871   2.780   5.083  1.00  0.00     0.097 C 
ENDBRANCH   5  15
TORSDOF 2
ENDMDL
MODEL 8
REMARK VINA RESULT:      -3.9      5.149      6.688
REMARK  2 active torsions:
REMARK  status: ('A' for Active; 'I' for Inactive)
REMARK    1  A    between atoms: C_4  and  C_7 
REMARK    2  A    between atoms: C_5  and  S_8 
ROOT
HETATM    1  C   UNL     1      58.862   7.035   4.040  1.00  0.00     0.070 A 
HETATM    2  N   UNL     1      59.468   8.217   2.192  1.00  0.00    -0.299 N 
ATOM      3  HN  UNL     1      59.986   8.775   1.513  1.00  0.00     0.187 HD
HETATM    4  C   UNL     1      59.899   7.747   3.374  1.00  0.00     0.061 A 
HETATM    5  C   UNL     1      57.786   7.081   3.196  1.00  0.00     0.086 A 
HETATM    6  N   UNL     1      58.196   7.783   2.106  1.00  0.00    -0.294 N 
HETATM    7  H   UNL     1      57.619   7.960   1.329  1.00  0.00     0.187 HD
ENDROOT
BRANCH   4   8
HETATM    8  C   UNL     1      61.256   7.989   3.866  1.00  0.00    -0.008 A 
HETATM    9  C   UNL     1      61.845   9.258   3.744  1.00  0.00     0.017 A 
HETATM   10  C   UNL     1      63.123   9.497   4.255  1.00  0.00     0.043 A 
HETATM   11  C   UNL     1      63.818   8.467   4.878  1.00  0.00     0.116 A 
HETATM   12  C   UNL     1      63.264   7.198   4.993  1.00  0.00     0.043 A 
HETATM   13  F   UNL     1      65.040   8.698   5.376  1.00  0.00    -0.206 F 
HETATM   14  C   UNL     1      61.984   6.959   4.487  1.00  0.00     0.017 A 
ENDBRANCH   4   8
BRANCH   5  15
HETATM   15  S   UNL     1      56.171   6.477   3.268  1.00  0.00    -0.115 SA
HETATM   16  C   UNL     1      55.657   6.572   1.537  1.00  0.00     0.097 C 
ENDBRANCH   5  15
TORSDOF 2
ENDMDL
MODEL 9
REMARK VINA RESULT:      -3.9     11.441     12.513
REMARK  2 active torsions:
REMARK  status: ('A' for Active; 'I' for Inactive)
REMARK    1  A    between atoms: C_4  and  C_7 
REMARK    2  A    between atoms: C_5  and  S_8 
ROOT
HETATM    1  C   UNL     1      61.893  -0.245  10.817  1.00  0.00     0.070 A 
HETATM    2  N   UNL     1      62.767  -0.342  12.917  1.00  0.00    -0.299 N 
ATOM      3  HN  UNL     1      62.883  -0.336  13.930  1.00  0.00     0.187 HD
HETATM    4  C   UNL     1      61.628  -0.214  12.215  1.00  0.00     0.061 A 
HETATM    5  C   UNL     1      63.246  -0.417  10.704  1.00  0.00     0.086 A 
HETATM    6  N   UNL     1      63.722  -0.480  11.977  1.00  0.00    -0.294 N 
HETATM    7  H   UNL     1      64.673  -0.613  12.191  1.00  0.00     0.187 HD
ENDROOT
BRANCH   4   8
HETATM    8  C   UNL     1      60.326  -0.043  12.861  1.00  0.00    -0.008 A 
HETATM    9  C   UNL     1      59.829   1.240  13.139  1.00  0.00     0.017 A 
HETATM   10  C   UNL     1      58.565   1.400  13.714  1.00  0.00     0.043 A 
HETATM   11  C   UNL     1      57.803   0.278  14.021  1.00  0.00     0.116 A 
HETATM   12  C   UNL     1      58.283  -1.002  13.773  1.00  0.00     0.043 A 
HETATM   13  F   UNL     1      56.589   0.431  14.565  1.00  0.00    -0.206 F 
HETATM   14  C   UNL     1      59.544  -1.163  13.193  1.00  0.00     0.017 A 
ENDBRANCH   4   8
BRANCH   5  15
HETATM   15  S   UNL     1      64.338  -0.543   9.375  1.00  0.00    -0.115 SA
HETATM   16  C   UNL     1      65.937  -0.269  10.173  1.00  0.00     0.097 C 
ENDBRANCH   5  15
TORSDOF 2
ENDMDL
