MODEL 1
REMARK VINA RESULT:      -4.2      0.000      0.000
REMARK  3 active torsions:
REMARK  status: ('A' for Active; 'I' for Inactive)
REMARK    1  A    between atoms: C_1  and  C_3 
REMARK    2  A    between atoms: C_2  and  N_8 
REMARK    3  A    between atoms: C_3  and  O_9 
ROOT
HETATM    1  C   UNL     1      63.562   9.277   4.762  1.00  0.00     0.072 A 
HETATM    2  C   UNL     1      63.158  10.581   5.157  1.00  0.00     0.049 A 
HETATM    3  S   UNL     1      61.853  10.054   3.095  1.00  0.00    -0.110 SA
HETATM    4  C   UNL     1      62.907   8.852   3.606  1.00  0.00     0.069 A 
HETATM    5  C   UNL     1      62.205  11.145   4.316  1.00  0.00     0.079 A 
ENDROOT
BRANCH   1   6
HETATM    6  C   UNL     1      64.557   8.406   5.439  1.00  0.00     0.295 C 
HETATM    7  O   UNL     1      64.419   7.193   5.461  1.00  0.00    -0.259 OA
BRANCH   6   8
HETATM    8  O   UNL     1      65.634   8.976   6.042  1.00  0.00    -0.322 OA
HETATM    9  C   UNL     1      66.706   8.260   6.533  1.00  0.00     0.213 C 
ENDBRANCH   6   8
ENDBRANCH   1   6
BRANCH   2  10
HETATM   10  N   UNL     1      63.644  11.289   6.286  1.00  0.00    -0.398 N 
HETATM   11  H   UNL     1      63.086  11.979   6.713  1.00  0.00     0.156 HD
HETATM   12  H   UNL     1      64.540  11.091   6.644  1.00  0.00     0.156 HD
ENDBRANCH   2  10
TORSDOF 3
ENDMDL
MODEL 2
REMARK VINA RESULT:      -3.7      2.952      4.506
REMARK  3 active torsions:
REMARK  status: ('A' for Active; 'I' for Inactive)
REMARK    1  A    between atoms: C_1  and  C_3 
REMARK    2  A    between atoms: C_2  and  N_8 
REMARK    3  A    between atoms: C_3  and  O_9 
ROOT
HETATM    1  C   UNL     1      65.736   7.735   5.112  1.00  0.00     0.072 A 
HETATM    2  C   UNL     1      66.779   7.673   6.076  1.00  0.00     0.049 A 
HETATM    3  S   UNL     1      67.154   5.746   4.534  1.00  0.00    -0.110 SA
HETATM    4  C   UNL     1      65.821   6.702   4.179  1.00  0.00     0.069 A 
HETATM    5  C   UNL     1      67.651   6.608   5.881  1.00  0.00     0.079 A 
ENDROOT
BRANCH   1   6
HETATM    6  C   UNL     1      64.647   8.743   5.038  1.00  0.00     0.295 C 
HETATM    7  O   UNL     1      64.651   9.726   5.761  1.00  0.00    -0.259 OA
BRANCH   6   8
HETATM    8  O   UNL     1      63.634   8.559   4.151  1.00  0.00    -0.322 OA
HETATM    9  C   UNL     1      62.610   9.463   3.959  1.00  0.00     0.213 C 
ENDBRANCH   6   8
ENDBRANCH   1   6
BRANCH   2  10
HETATM   10  N   UNL     1      66.962   8.577   7.153  1.00  0.00    -0.398 N 
HETATM   11  H   UNL     1      67.859   8.929   7.353  1.00  0.00     0.156 HD
HETATM   12  H   UNL     1      66.193   8.854   7.701  1.00  0.00     0.156 HD
ENDBRANCH   2  10
TORSDOF 3
ENDMDL
MODEL 3
REMARK VINA RESULT:      -3.7      2.900      4.109
REMARK  3 active torsions:
REMARK  status: ('A' for Active; 'I' for Inactive)
REMARK    1  A    between atoms: C_1  and  C_3 
REMARK    2  A    between atoms: C_2  and  N_8 
REMARK    3  A    between atoms: C_3  and  O_9 
ROOT
HETATM    1  C   UNL     1      63.229   9.071   4.651  1.00  0.00     0.072 A 
HETATM    2  C   UNL     1      62.517   7.997   4.052  1.00  0.00     0.049 A 
HETATM    3  S   UNL     1      64.837   7.157   4.429  1.00  0.00    -0.110 SA
HETATM    4  C   UNL     1      64.558   8.738   4.916  1.00  0.00     0.069 A 
HETATM    5  C   UNL     1      63.290   6.856   3.864  1.00  0.00     0.079 A 
ENDROOT
BRANCH   1   6
HETATM    6  C   UNL     1      62.699  10.419   4.985  1.00  0.00     0.295 C 
HETATM    7  O   UNL     1      63.147  11.054   5.926  1.00  0.00    -0.259 OA
BRANCH   6   8
HETATM    8  O   UNL     1      61.701  10.944   4.227  1.00  0.00    -0.322 OA
HETATM    9  C   UNL     1      61.891  11.467   2.965  1.00  0.00     0.213 C 
ENDBRANCH   6   8
ENDBRANCH   1   6
BRANCH   2  10
HETATM   10  N   UNL     1      61.154   8.026   3.663  1.00  0.00    -0.398 N 
HETATM   11  H   UNL     1      60.756   8.859   3.322  1.00  0.00     0.156 HD
HETATM   12  H   UNL     1      60.604   7.212   3.733  1.00  0.00     0.156 HD
ENDBRANCH   2  10
TORSDOF 3
ENDMDL
MODEL 4
REMARK VINA RESULT:      -3.6      1.550      2.064
REMARK  3 active torsions:
REMARK  status: ('A' for Active; 'I' for Inactive)
REMARK    1  A    between atoms: C_1  and  C_3 
REMARK    2  A    between atoms: C_2  and  N_8 
REMARK    3  A    between atoms: C_3  and  O_9 
ROOT
HETATM    1  C   UNL     1      64.509   8.137   4.908  1.00  0.00     0.072 A 
HETATM    2  C   UNL     1      63.546   9.178   4.811  1.00  0.00     0.049 A 
HETATM    3  S   UNL     1      63.088   7.638   2.900  1.00  0.00    -0.110 SA
HETATM    4  C   UNL     1      64.372   7.197   3.887  1.00  0.00     0.069 A 
HETATM    5  C   UNL     1      62.681   9.034   3.732  1.00  0.00     0.079 A 
ENDROOT
BRANCH   1   6
HETATM    6  C   UNL     1      65.571   7.996   5.938  1.00  0.00     0.295 C 
HETATM    7  O   UNL     1      66.138   8.976   6.395  1.00  0.00    -0.259 OA
BRANCH   6   8
HETATM    8  O   UNL     1      65.911   6.754   6.372  1.00  0.00    -0.322 OA
HETATM    9  C   UNL     1      65.819   6.349   7.687  1.00  0.00     0.213 C 
ENDBRANCH   6   8
ENDBRANCH   1   6
BRANCH   2  10
HETATM   10  N   UNL     1      63.430  10.281   5.695  1.00  0.00    -0.398 N 
HETATM   11  H   UNL     1      63.924  10.283   6.547  1.00  0.00     0.156 HD
HETATM   12  H   UNL     1      62.856  11.045   5.458  1.00  0.00     0.156 HD
ENDBRANCH   2  10
TORSDOF 3
ENDMDL
MODEL 5
REMARK VINA RESULT:      -3.6      3.437      4.595
REMARK  3 active torsions:
REMARK  status: ('A' for Active; 'I' for Inactive)
REMARK    1  A    between atoms: C_1  and  C_3 
REMARK    2  A    between atoms: C_2  and  N_8 
REMARK    3  A    between atoms: C_3  and  O_9 
ROOT
HETATM    1  C   UNL     1      62.168   9.454   4.284  1.00  0.00     0.072 A 
HETATM    2  C   UNL     1      61.385   8.372   3.796  1.00  0.00     0.049 A 
HETATM    3  S   UNL     1      62.833   7.417   5.591  1.00  0.00    -0.110 SA
HETATM    4  C   UNL     1      63.037   9.057   5.300  1.00  0.00     0.069 A 
HETATM    5  C   UNL     1      61.649   7.165   4.434  1.00  0.00     0.079 A 
ENDROOT
BRANCH   1   6
HETATM    6  C   UNL     1      62.130  10.864   3.819  1.00  0.00     0.295 C 
HETATM    7  O   UNL     1      62.060  11.787   4.616  1.00  0.00    -0.259 OA
BRANCH   6   8
HETATM    8  O   UNL     1      62.174  11.124   2.485  1.00  0.00    -0.322 OA
HETATM    9  C   UNL     1      61.531  12.189   1.890  1.00  0.00     0.213 C 
ENDBRANCH   6   8
ENDBRANCH   1   6
BRANCH   2  10
HETATM   10  N   UNL     1      60.416   8.454   2.764  1.00  0.00    -0.398 N 
HETATM   11  H   UNL     1      59.581   7.937   2.830  1.00  0.00     0.156 HD
HETATM   12  H   UNL     1      60.577   9.029   1.981  1.00  0.00     0.156 HD
ENDBRANCH   2  10
TORSDOF 3
ENDMDL
MODEL 6
REMARK VINA RESULT:      -3.5      1.965      2.534
REMARK  3 active torsions:
REMARK  status: ('A' for Active; 'I' for Inactive)
REMARK    1  A    between atoms: C_1  and  C_3 
REMARK    2  A    between atoms: C_2  and  N_8 
REMARK    3  A    between atoms: C_3  and  O_9 
ROOT
HETATM    1  C   UNL     1      63.759   8.834   4.689  1.00  0.00     0.072 A 
HETATM    2  C   UNL     1      63.311   8.230   3.483  1.00  0.00     0.049 A 
HETATM    3  S   UNL     1      61.947  10.303   3.760  1.00  0.00    -0.110 SA
HETATM    4  C   UNL     1      63.071  10.014   4.973  1.00  0.00     0.069 A 
HETATM    5  C   UNL     1      62.296   8.939   2.851  1.00  0.00     0.079 A 
ENDROOT
BRANCH   1   6
HETATM    6  C   UNL     1      64.822   8.334   5.597  1.00  0.00     0.295 C 
HETATM    7  O   UNL     1      65.669   9.088   6.049  1.00  0.00    -0.259 OA
BRANCH   6   8
HETATM    8  O   UNL     1      64.846   7.015   5.926  1.00  0.00    -0.322 OA
HETATM    9  C   UNL     1      65.310   6.534   7.132  1.00  0.00     0.213 C 
ENDBRANCH   6   8
ENDBRANCH   1   6
BRANCH   2  10
HETATM   10  N   UNL     1      63.811   7.024   2.929  1.00  0.00    -0.398 N 
HETATM   11  H   UNL     1      63.239   6.224   2.894  1.00  0.00     0.156 HD
HETATM   12  H   UNL     1      64.730   6.986   2.578  1.00  0.00     0.156 HD
ENDBRANCH   2  10
TORSDOF 3
ENDMDL
MODEL 7
REMARK VINA RESULT:      -3.4      3.461      4.908
REMARK  3 active torsions:
REMARK  status: ('A' for Active; 'I' for Inactive)
REMARK    1  A    between atoms: C_1  and  C_3 
REMARK    2  A    between atoms: C_2  and  N_8 
REMARK    3  A    between atoms: C_3  and  O_9 
ROOT
HETATM    1  C   UNL     1      65.176   6.747   6.811  1.00  0.00     0.072 A 
HETATM    2  C   UNL     1      66.495   7.169   7.133  1.00  0.00     0.049 A 
HETATM    3  S   UNL     1      66.491   4.683   7.370  1.00  0.00    -0.110 SA
HETATM    4  C   UNL     1      65.028   5.364   6.908  1.00  0.00     0.069 A 
HETATM    5  C   UNL     1      67.345   6.121   7.469  1.00  0.00     0.079 A 
ENDROOT
BRANCH   1   6
HETATM    6  C   UNL     1      64.034   7.611   6.414  1.00  0.00     0.295 C 
HETATM    7  O   UNL     1      62.903   7.377   6.808  1.00  0.00    -0.259 OA
BRANCH   6   8
HETATM    8  O   UNL     1      64.261   8.675   5.599  1.00  0.00    -0.322 OA
HETATM    9  C   UNL     1      63.300   9.234   4.783  1.00  0.00     0.213 C 
ENDBRANCH   6   8
ENDBRANCH   1   6
BRANCH   2  10
HETATM   10  N   UNL     1      66.957   8.510   7.131  1.00  0.00    -0.398 N 
HETATM   11  H   UNL     1      66.375   9.230   6.798  1.00  0.00     0.156 HD
HETATM   12  H   UNL     1      67.859   8.720   7.464  1.00  0.00     0.156 HD
ENDBRANCH   2  10
TORSDOF 3
ENDMDL
MODEL 8
REMARK VINA RESULT:      -3.4      2.998      3.742
REMARK  3 active torsions:
REMARK  status: ('A' for Active; 'I' for Inactive)
REMARK    1  A    between atoms: C_1  and  C_3 
REMARK    2  A    between atoms: C_2  and  N_8 
REMARK    3  A    between atoms: C_3  and  O_9 
ROOT
HETATM    1  C   UNL     1      61.795   9.345   2.979  1.00  0.00     0.072 A 
HETATM    2  C   UNL     1      61.252   8.037   3.103  1.00  0.00     0.049 A 
HETATM    3  S   UNL     1      61.513   8.443   0.654  1.00  0.00    -0.110 SA
HETATM    4  C   UNL     1      61.990   9.709   1.647  1.00  0.00     0.069 A 
HETATM    5  C   UNL     1      61.038   7.408   1.882  1.00  0.00     0.079 A 
ENDROOT
BRANCH   1   6
HETATM    6  C   UNL     1      62.136  10.279   4.083  1.00  0.00     0.295 C 
HETATM    7  O   UNL     1      61.819  11.456   4.031  1.00  0.00    -0.259 OA
BRANCH   6   8
HETATM    8  O   UNL     1      62.813   9.807   5.164  1.00  0.00    -0.322 OA
HETATM    9  C   UNL     1      64.042   9.186   5.088  1.00  0.00     0.213 C 
ENDBRANCH   6   8
ENDBRANCH   1   6
BRANCH   2  10
HETATM   10  N   UNL     1      60.938   7.386   4.323  1.00  0.00    -0.398 N 
HETATM   11  H   UNL     1      61.506   6.652   4.650  1.00  0.00     0.156 HD
HETATM   12  H   UNL     1      60.152   7.668   4.844  1.00  0.00     0.156 HD
ENDBRANCH   2  10
TORSDOF 3
ENDMDL
MODEL 9
REMARK VINA RESULT:      -3.4      2.801      4.066
REMARK  3 active torsions:
REMARK  status: ('A' for Active; 'I' for Inactive)
REMARK    1  A    between atoms: C_1  and  C_3 
REMARK    2  A    between atoms: C_2  and  N_8 
REMARK    3  A    between atoms: C_3  and  O_9 
ROOT
HETATM    1  C   UNL     1      62.997   8.705   4.066  1.00  0.00     0.072 A 
HETATM    2  C   UNL     1      63.854   9.211   5.081  1.00  0.00     0.049 A 
HETATM    3  S   UNL     1      64.954   7.141   4.219  1.00  0.00    -0.110 SA
HETATM    4  C   UNL     1      63.492   7.534   3.494  1.00  0.00     0.069 A 
HETATM    5  C   UNL     1      64.992   8.436   5.281  1.00  0.00     0.079 A 
ENDROOT
BRANCH   1   6
HETATM    6  C   UNL     1      61.709   9.291   3.612  1.00  0.00     0.295 C 
HETATM    7  O   UNL     1      61.437  10.460   3.836  1.00  0.00    -0.259 OA
BRANCH   6   8
HETATM    8  O   UNL     1      60.826   8.508   2.938  1.00  0.00    -0.322 OA
HETATM    9  C   UNL     1      59.868   7.729   3.553  1.00  0.00     0.213 C 
ENDBRANCH   6   8
ENDBRANCH   1   6
BRANCH   2  10
HETATM   10  N   UNL     1      63.625  10.381   5.849  1.00  0.00    -0.398 N 
HETATM   11  H   UNL     1      63.240  10.310   6.751  1.00  0.00     0.156 HD
HETATM   12  H   UNL     1      63.852  11.265   5.479  1.00  0.00     0.156 HD
ENDBRANCH   2  10
TORSDOF 3
ENDMDL
