MODEL 1
REMARK VINA RESULT:      -5.8      0.000      0.000
REMARK  2 active torsions:
REMARK  status: ('A' for Active; 'I' for Inactive)
REMARK    1  A    between atoms: C_3  and  C_8 
REMARK    2  A    between atoms: C_5  and  N_9 
ROOT
HETATM    1  C   UNL     1      65.464   6.110   6.759  1.00  0.00     0.112 A 
HETATM    2  S   UNL     1      63.957   6.517   6.068  1.00  0.00    -0.076 SA
HETATM    3  C   UNL     1      64.533   8.028   5.480  1.00  0.00     0.018 A 
HETATM    4  C   UNL     1      65.876   8.182   5.785  1.00  0.00     0.051 A 
HETATM    5  C   UNL     1      66.407   7.085   6.523  1.00  0.00     0.055 A 
HETATM    6  C   UNL     1      65.663   4.895   7.479  1.00  0.00     0.109 C 
HETATM    7  N   UNL     1      65.838   3.912   8.073  1.00  0.00    -0.191 NA
ENDROOT
BRANCH   5   8
HETATM    8  N   UNL     1      67.693   7.041   6.930  1.00  0.00    -0.397 N 
HETATM    9  H   UNL     1      68.330   7.725   6.621  1.00  0.00     0.156 HD
HETATM   10  H   UNL     1      67.994   6.325   7.535  1.00  0.00     0.156 HD
ENDBRANCH   5   8
BRANCH   3  11
HETATM   11  C   UNL     1      63.630   8.928   4.736  1.00  0.00    -0.019 A 
HETATM   12  C   UNL     1      63.124   8.579   3.469  1.00  0.00     0.016 A 
HETATM   13  C   UNL     1      62.304   9.455   2.754  1.00  0.00     0.043 A 
HETATM   14  C   UNL     1      61.970  10.683   3.305  1.00  0.00     0.116 A 
HETATM   15  C   UNL     1      62.433  11.046   4.562  1.00  0.00     0.043 A 
HETATM   16  F   UNL     1      61.193  11.528   2.615  1.00  0.00    -0.206 F 
HETATM   17  C   UNL     1      63.258  10.172   5.277  1.00  0.00     0.016 A 
ENDBRANCH   3  11
TORSDOF 2
ENDMDL
MODEL 2
REMARK VINA RESULT:      -5.6      1.649      2.284
REMARK  2 active torsions:
REMARK  status: ('A' for Active; 'I' for Inactive)
REMARK    1  A    between atoms: C_3  and  C_8 
REMARK    2  A    between atoms: C_5  and  N_9 
ROOT
HETATM    1  C   UNL     1      64.657   6.680   5.933  1.00  0.00     0.112 A 
HETATM    2  S   UNL     1      64.822   8.174   5.125  1.00  0.00    -0.076 SA
HETATM    3  C   UNL     1      63.181   8.176   4.605  1.00  0.00     0.018 A 
HETATM    4  C   UNL     1      62.522   7.057   5.090  1.00  0.00     0.051 A 
HETATM    5  C   UNL     1      63.370   6.197   5.845  1.00  0.00     0.055 A 
HETATM    6  C   UNL     1      65.752   6.056   6.601  1.00  0.00     0.109 C 
HETATM    7  N   UNL     1      66.636   5.534   7.145  1.00  0.00    -0.191 NA
ENDROOT
BRANCH   5   8
HETATM    8  N   UNL     1      62.929   5.046   6.396  1.00  0.00    -0.397 N 
HETATM    9  H   UNL     1      62.434   4.397   5.847  1.00  0.00     0.156 HD
HETATM   10  H   UNL     1      63.103   4.857   7.346  1.00  0.00     0.156 HD
ENDBRANCH   5   8
BRANCH   3  11
HETATM   11  C   UNL     1      62.661   9.294   3.793  1.00  0.00    -0.019 A 
HETATM   12  C   UNL     1      62.448   9.161   2.408  1.00  0.00     0.016 A 
HETATM   13  C   UNL     1      61.996  10.238   1.641  1.00  0.00     0.043 A 
HETATM   14  C   UNL     1      61.740  11.454   2.255  1.00  0.00     0.116 A 
HETATM   15  C   UNL     1      61.917  11.611   3.623  1.00  0.00     0.043 A 
HETATM   16  F   UNL     1      61.318  12.490   1.519  1.00  0.00    -0.206 F 
HETATM   17  C   UNL     1      62.374  10.535   4.391  1.00  0.00     0.016 A 
ENDBRANCH   3  11
TORSDOF 2
ENDMDL
MODEL 3
REMARK VINA RESULT:      -5.4      1.123      1.364
REMARK  2 active torsions:
REMARK  status: ('A' for Active; 'I' for Inactive)
REMARK    1  A    between atoms: C_3  and  C_8 
REMARK    2  A    between atoms: C_5  and  N_9 
ROOT
HETATM    1  C   UNL     1      65.516   6.377   6.783  1.00  0.00     0.112 A 
HETATM    2  S   UNL     1      64.182   6.185   5.737  1.00  0.00    -0.076 SA
HETATM    3  C   UNL     1      64.427   7.719   4.997  1.00  0.00     0.018 A 
HETATM    4  C   UNL     1      65.546   8.337   5.531  1.00  0.00     0.051 A 
HETATM    5  C   UNL     1      66.166   7.570   6.559  1.00  0.00     0.055 A 
HETATM    6  C   UNL     1      65.868   5.388   7.750  1.00  0.00     0.109 C 
HETATM    7  N   UNL     1      66.163   4.595   8.545  1.00  0.00    -0.191 NA
ENDROOT
BRANCH   5   8
HETATM    8  N   UNL     1      67.264   7.996   7.219  1.00  0.00    -0.397 N 
HETATM    9  H   UNL     1      67.874   8.640   6.794  1.00  0.00     0.156 HD
HETATM   10  H   UNL     1      67.453   7.662   8.126  1.00  0.00     0.156 HD
ENDBRANCH   5   8
BRANCH   3  11
HETATM   11  C   UNL     1      63.522   8.179   3.925  1.00  0.00    -0.019 A 
HETATM   12  C   UNL     1      63.326   7.425   2.753  1.00  0.00     0.016 A 
HETATM   13  C   UNL     1      62.500   7.889   1.726  1.00  0.00     0.043 A 
HETATM   14  C   UNL     1      61.851   9.106   1.868  1.00  0.00     0.116 A 
HETATM   15  C   UNL     1      62.004   9.862   3.022  1.00  0.00     0.043 A 
HETATM   16  F   UNL     1      61.069   9.557   0.879  1.00  0.00    -0.206 F 
HETATM   17  C   UNL     1      62.835   9.401   4.048  1.00  0.00     0.016 A 
ENDBRANCH   3  11
TORSDOF 2
ENDMDL
MODEL 4
REMARK VINA RESULT:      -4.9      4.264      6.239
REMARK  2 active torsions:
REMARK  status: ('A' for Active; 'I' for Inactive)
REMARK    1  A    between atoms: C_3  and  C_8 
REMARK    2  A    between atoms: C_5  and  N_9 
ROOT
HETATM    1  C   UNL     1      62.337   8.616   2.729  1.00  0.00     0.112 A 
HETATM    2  S   UNL     1      63.387   7.376   3.248  1.00  0.00    -0.076 SA
HETATM    3  C   UNL     1      63.957   8.295   4.587  1.00  0.00     0.018 A 
HETATM    4  C   UNL     1      63.308   9.519   4.641  1.00  0.00     0.051 A 
HETATM    5  C   UNL     1      62.384   9.704   3.572  1.00  0.00     0.055 A 
HETATM    6  C   UNL     1      61.531   8.486   1.559  1.00  0.00     0.109 C 
HETATM    7  N   UNL     1      60.874   8.395   0.606  1.00  0.00    -0.191 NA
ENDROOT
BRANCH   5   8
HETATM    8  N   UNL     1      61.656  10.832   3.432  1.00  0.00    -0.397 N 
HETATM    9  H   UNL     1      61.631  11.296   2.564  1.00  0.00     0.156 HD
HETATM   10  H   UNL     1      61.151  11.191   4.197  1.00  0.00     0.156 HD
ENDBRANCH   5   8
BRANCH   3  11
HETATM   11  C   UNL     1      64.970   7.728   5.500  1.00  0.00    -0.019 A 
HETATM   12  C   UNL     1      64.608   6.895   6.575  1.00  0.00     0.016 A 
HETATM   13  C   UNL     1      65.570   6.398   7.458  1.00  0.00     0.043 A 
HETATM   14  C   UNL     1      66.905   6.718   7.265  1.00  0.00     0.116 A 
HETATM   15  C   UNL     1      67.297   7.517   6.200  1.00  0.00     0.043 A 
HETATM   16  F   UNL     1      67.826   6.251   8.117  1.00  0.00    -0.206 F 
HETATM   17  C   UNL     1      66.334   8.020   5.318  1.00  0.00     0.016 A 
ENDBRANCH   3  11
TORSDOF 2
ENDMDL
MODEL 5
REMARK VINA RESULT:      -4.4      4.818      7.801
REMARK  2 active torsions:
REMARK  status: ('A' for Active; 'I' for Inactive)
REMARK    1  A    between atoms: C_3  and  C_8 
REMARK    2  A    between atoms: C_5  and  N_9 
ROOT
HETATM    1  C   UNL     1      66.039   7.187   5.996  1.00  0.00     0.112 A 
HETATM    2  S   UNL     1      65.648   6.101   7.253  1.00  0.00    -0.076 SA
HETATM    3  C   UNL     1      66.952   5.046   6.869  1.00  0.00     0.018 A 
HETATM    4  C   UNL     1      67.690   5.559   5.813  1.00  0.00     0.051 A 
HETATM    5  C   UNL     1      67.162   6.783   5.310  1.00  0.00     0.055 A 
HETATM    6  C   UNL     1      65.263   8.356   5.737  1.00  0.00     0.109 C 
HETATM    7  N   UNL     1      64.637   9.308   5.511  1.00  0.00    -0.191 NA
ENDROOT
BRANCH   5   8
HETATM    8  N   UNL     1      67.724   7.442   4.275  1.00  0.00    -0.397 N 
HETATM    9  H   UNL     1      68.608   7.863   4.382  1.00  0.00     0.156 HD
HETATM   10  H   UNL     1      67.251   7.502   3.414  1.00  0.00     0.156 HD
ENDBRANCH   5   8
BRANCH   3  11
HETATM   11  C   UNL     1      67.169   3.816   7.657  1.00  0.00    -0.019 A 
HETATM   12  C   UNL     1      67.837   3.844   8.895  1.00  0.00     0.016 A 
HETATM   13  C   UNL     1      68.075   2.669   9.613  1.00  0.00     0.043 A 
HETATM   14  C   UNL     1      67.632   1.457   9.106  1.00  0.00     0.116 A 
HETATM   15  C   UNL     1      66.949   1.399   7.899  1.00  0.00     0.043 A 
HETATM   16  F   UNL     1      67.870   0.330   9.788  1.00  0.00    -0.206 F 
HETATM   17  C   UNL     1      66.715   2.574   7.177  1.00  0.00     0.016 A 
ENDBRANCH   3  11
TORSDOF 2
ENDMDL
MODEL 6
REMARK VINA RESULT:      -4.4      2.251      2.307
REMARK  2 active torsions:
REMARK  status: ('A' for Active; 'I' for Inactive)
REMARK    1  A    between atoms: C_3  and  C_8 
REMARK    2  A    between atoms: C_5  and  N_9 
ROOT
HETATM    1  C   UNL     1      66.689   4.966   4.337  1.00  0.00     0.112 A 
HETATM    2  S   UNL     1      65.466   5.699   3.400  1.00  0.00    -0.076 SA
HETATM    3  C   UNL     1      65.198   6.942   4.559  1.00  0.00     0.018 A 
HETATM    4  C   UNL     1      66.073   6.802   5.625  1.00  0.00     0.051 A 
HETATM    5  C   UNL     1      66.922   5.666   5.500  1.00  0.00     0.055 A 
HETATM    6  C   UNL     1      67.354   3.775   3.917  1.00  0.00     0.109 C 
HETATM    7  N   UNL     1      67.900   2.804   3.589  1.00  0.00    -0.191 NA
ENDROOT
BRANCH   5   8
HETATM    8  N   UNL     1      67.840   5.341   6.436  1.00  0.00    -0.397 N 
HETATM    9  H   UNL     1      68.658   5.879   6.529  1.00  0.00     0.156 HD
HETATM   10  H   UNL     1      67.690   4.565   7.023  1.00  0.00     0.156 HD
ENDBRANCH   5   8
BRANCH   3  11
HETATM   11  C   UNL     1      64.174   7.978   4.314  1.00  0.00    -0.019 A 
HETATM   12  C   UNL     1      63.344   7.938   3.178  1.00  0.00     0.016 A 
HETATM   13  C   UNL     1      62.408   8.945   2.932  1.00  0.00     0.043 A 
HETATM   14  C   UNL     1      62.282   9.994   3.830  1.00  0.00     0.116 A 
HETATM   15  C   UNL     1      63.069  10.051   4.972  1.00  0.00     0.043 A 
HETATM   16  F   UNL     1      61.393  10.966   3.589  1.00  0.00    -0.206 F 
HETATM   17  C   UNL     1      64.011   9.045   5.215  1.00  0.00     0.016 A 
ENDBRANCH   3  11
TORSDOF 2
ENDMDL
MODEL 7
REMARK VINA RESULT:      -4.2      3.719      4.649
REMARK  2 active torsions:
REMARK  status: ('A' for Active; 'I' for Inactive)
REMARK    1  A    between atoms: C_3  and  C_8 
REMARK    2  A    between atoms: C_5  and  N_9 
ROOT
HETATM    1  C   UNL     1      63.043   7.674   5.549  1.00  0.00     0.112 A 
HETATM    2  S   UNL     1      61.830   6.668   4.894  1.00  0.00    -0.076 SA
HETATM    3  C   UNL     1      61.143   7.947   3.969  1.00  0.00     0.018 A 
HETATM    4  C   UNL     1      61.874   9.112   4.143  1.00  0.00     0.051 A 
HETATM    5  C   UNL     1      62.959   8.956   5.053  1.00  0.00     0.055 A 
HETATM    6  C   UNL     1      64.001   7.190   6.489  1.00  0.00     0.109 C 
HETATM    7  N   UNL     1      64.783   6.812   7.259  1.00  0.00    -0.191 NA
ENDROOT
BRANCH   5   8
HETATM    8  N   UNL     1      63.788   9.972   5.373  1.00  0.00    -0.397 N 
HETATM    9  H   UNL     1      63.718  10.831   4.898  1.00  0.00     0.156 HD
HETATM   10  H   UNL     1      64.463   9.853   6.079  1.00  0.00     0.156 HD
ENDBRANCH   5   8
BRANCH   3  11
HETATM   11  C   UNL     1      59.963   7.697   3.118  1.00  0.00    -0.019 A 
HETATM   12  C   UNL     1      58.704   7.400   3.674  1.00  0.00     0.016 A 
HETATM   13  C   UNL     1      57.603   7.123   2.860  1.00  0.00     0.043 A 
HETATM   14  C   UNL     1      57.748   7.154   1.481  1.00  0.00     0.116 A 
HETATM   15  C   UNL     1      58.970   7.467   0.902  1.00  0.00     0.043 A 
HETATM   16  F   UNL     1      56.696   6.877   0.700  1.00  0.00    -0.206 F 
HETATM   17  C   UNL     1      60.074   7.739   1.716  1.00  0.00     0.016 A 
ENDBRANCH   3  11
TORSDOF 2
ENDMDL
MODEL 8
REMARK VINA RESULT:      -4.2     12.320     13.935
REMARK  2 active torsions:
REMARK  status: ('A' for Active; 'I' for Inactive)
REMARK    1  A    between atoms: C_3  and  C_8 
REMARK    2  A    between atoms: C_5  and  N_9 
ROOT
HETATM    1  C   UNL     1      53.174   3.702  12.407  1.00  0.00     0.112 A 
HETATM    2  S   UNL     1      54.418   2.775  11.698  1.00  0.00    -0.076 SA
HETATM    3  C   UNL     1      55.468   2.990  13.044  1.00  0.00     0.018 A 
HETATM    4  C   UNL     1      54.839   3.731  14.031  1.00  0.00     0.051 A 
HETATM    5  C   UNL     1      53.526   4.145  13.663  1.00  0.00     0.055 A 
HETATM    6  C   UNL     1      51.940   3.953  11.736  1.00  0.00     0.109 C 
HETATM    7  N   UNL     1      50.933   4.170  11.199  1.00  0.00    -0.191 NA
ENDROOT
BRANCH   5   8
HETATM    8  N   UNL     1      52.745   4.887  14.476  1.00  0.00    -0.397 N 
HETATM    9  H   UNL     1      52.947   5.840  14.615  1.00  0.00     0.156 HD
HETATM   10  H   UNL     1      51.975   4.475  14.930  1.00  0.00     0.156 HD
ENDBRANCH   5   8
BRANCH   3  11
HETATM   11  C   UNL     1      56.814   2.382  13.040  1.00  0.00    -0.019 A 
HETATM   12  C   UNL     1      57.278   1.611  14.122  1.00  0.00     0.016 A 
HETATM   13  C   UNL     1      58.568   1.076  14.127  1.00  0.00     0.043 A 
HETATM   14  C   UNL     1      59.403   1.296  13.042  1.00  0.00     0.116 A 
HETATM   15  C   UNL     1      58.968   2.032  11.948  1.00  0.00     0.043 A 
HETATM   16  F   UNL     1      60.644   0.793  13.051  1.00  0.00    -0.206 F 
HETATM   17  C   UNL     1      57.677   2.572  11.945  1.00  0.00     0.016 A 
ENDBRANCH   3  11
TORSDOF 2
ENDMDL
MODEL 9
REMARK VINA RESULT:      -4.0     10.544     11.899
REMARK  2 active torsions:
REMARK  status: ('A' for Active; 'I' for Inactive)
REMARK    1  A    between atoms: C_3  and  C_8 
REMARK    2  A    between atoms: C_5  and  N_9 
ROOT
HETATM    1  C   UNL     1      63.381  -0.569  10.625  1.00  0.00     0.112 A 
HETATM    2  S   UNL     1      61.708  -0.238  10.554  1.00  0.00    -0.076 SA
HETATM    3  C   UNL     1      61.537  -0.279  12.267  1.00  0.00     0.018 A 
HETATM    4  C   UNL     1      62.766  -0.506  12.867  1.00  0.00     0.051 A 
HETATM    5  C   UNL     1      63.821  -0.678  11.925  1.00  0.00     0.055 A 
HETATM    6  C   UNL     1      64.176  -0.704   9.448  1.00  0.00     0.109 C 
HETATM    7  N   UNL     1      64.834  -0.822   8.498  1.00  0.00    -0.191 NA
ENDROOT
BRANCH   5   8
HETATM    8  N   UNL     1      65.094  -0.921  12.301  1.00  0.00    -0.397 N 
HETATM    9  H   UNL     1      65.304  -1.717  12.840  1.00  0.00     0.156 HD
HETATM   10  H   UNL     1      65.812  -0.301  12.035  1.00  0.00     0.156 HD
ENDBRANCH   5   8
BRANCH   3  11
HETATM   11  C   UNL     1      60.216  -0.051  12.886  1.00  0.00    -0.019 A 
HETATM   12  C   UNL     1      59.377  -1.122  13.245  1.00  0.00     0.016 A 
HETATM   13  C   UNL     1      58.111  -0.895  13.791  1.00  0.00     0.043 A 
HETATM   14  C   UNL     1      57.679   0.406  13.998  1.00  0.00     0.116 A 
HETATM   15  C   UNL     1      58.493   1.484  13.677  1.00  0.00     0.043 A 
HETATM   16  F   UNL     1      56.462   0.625  14.511  1.00  0.00    -0.206 F 
HETATM   17  C   UNL     1      59.759   1.257  13.124  1.00  0.00     0.016 A 
ENDBRANCH   3  11
TORSDOF 2
ENDMDL
