MODEL 1
REMARK VINA RESULT:      -4.3      0.000      0.000
REMARK  3 active torsions:
REMARK  status: ('A' for Active; 'I' for Inactive)
REMARK    1  A    between atoms: C_1  and  C_3 
REMARK    2  A    between atoms: C_2  and  N_8 
REMARK    3  A    between atoms: C_3  and  O_9 
ROOT
HETATM    1  C   UNL     1      63.527   9.127   4.875  1.00  0.00     0.073 A 
HETATM    2  C   UNL     1      63.087  10.426   5.090  1.00  0.00     0.084 A 
HETATM    3  S   UNL     1      62.029  10.964   3.854  1.00  0.00    -0.084 SA
HETATM    4  C   UNL     1      62.964   8.596   3.657  1.00  0.00     0.028 A 
HETATM    5  C   UNL     1      62.141   9.488   3.013  1.00  0.00     0.053 A 
ENDROOT
BRANCH   1   6
HETATM    6  C   UNL     1      64.436   8.404   5.765  1.00  0.00     0.295 C 
HETATM    7  O   UNL     1      64.149   7.361   6.347  1.00  0.00    -0.259 OA
BRANCH   6   8
HETATM    8  O   UNL     1      65.652   9.024   5.873  1.00  0.00    -0.322 OA
HETATM    9  C   UNL     1      66.660   8.250   6.523  1.00  0.00     0.213 C 
ENDBRANCH   6   8
ENDBRANCH   1   6
BRANCH   2  10
HETATM   10  N   UNL     1      63.389  11.257   6.107  1.00  0.00    -0.393 N 
HETATM   11  H   UNL     1      63.148  11.014   7.030  1.00  0.00     0.156 HD
HETATM   12  H   UNL     1      63.851  12.108   5.927  1.00  0.00     0.156 HD
ENDBRANCH   2  10
TORSDOF 3
ENDMDL
MODEL 2
REMARK VINA RESULT:      -4.2      0.869      1.319
REMARK  3 active torsions:
REMARK  status: ('A' for Active; 'I' for Inactive)
REMARK    1  A    between atoms: C_1  and  C_3 
REMARK    2  A    between atoms: C_2  and  N_8 
REMARK    3  A    between atoms: C_3  and  O_9 
ROOT
HETATM    1  C   UNL     1      63.835   8.983   4.757  1.00  0.00     0.073 A 
HETATM    2  C   UNL     1      63.214  10.198   5.011  1.00  0.00     0.084 A 
HETATM    3  S   UNL     1      61.969  10.537   3.882  1.00  0.00    -0.084 SA
HETATM    4  C   UNL     1      63.252   8.347   3.600  1.00  0.00     0.028 A 
HETATM    5  C   UNL     1      62.237   9.083   3.037  1.00  0.00     0.053 A 
ENDROOT
BRANCH   1   6
HETATM    6  C   UNL     1      64.930   8.432   5.555  1.00  0.00     0.295 C 
HETATM    7  O   UNL     1      65.776   9.112   6.131  1.00  0.00    -0.259 OA
BRANCH   6   8
HETATM    8  O   UNL     1      64.903   7.063   5.590  1.00  0.00    -0.322 OA
HETATM    9  C   UNL     1      64.956   6.500   6.900  1.00  0.00     0.213 C 
ENDBRANCH   6   8
ENDBRANCH   1   6
BRANCH   2  10
HETATM   10  N   UNL     1      63.473  11.085   5.992  1.00  0.00    -0.393 N 
HETATM   11  H   UNL     1      64.299  11.619   5.967  1.00  0.00     0.156 HD
HETATM   12  H   UNL     1      62.835  11.198   6.733  1.00  0.00     0.156 HD
ENDBRANCH   2  10
TORSDOF 3
ENDMDL
MODEL 3
REMARK VINA RESULT:      -3.7      2.101      2.562
REMARK  3 active torsions:
REMARK  status: ('A' for Active; 'I' for Inactive)
REMARK    1  A    between atoms: C_1  and  C_3 
REMARK    2  A    between atoms: C_2  and  N_8 
REMARK    3  A    between atoms: C_3  and  O_9 
ROOT
HETATM    1  C   UNL     1      63.137   9.360   4.312  1.00  0.00     0.073 A 
HETATM    2  C   UNL     1      62.884   8.637   3.155  1.00  0.00     0.084 A 
HETATM    3  S   UNL     1      61.886   9.497   2.059  1.00  0.00    -0.084 SA
HETATM    4  C   UNL     1      62.479  10.644   4.262  1.00  0.00     0.028 A 
HETATM    5  C   UNL     1      61.771  10.840   3.101  1.00  0.00     0.053 A 
ENDROOT
BRANCH   1   6
HETATM    6  C   UNL     1      63.959   8.881   5.423  1.00  0.00     0.295 C 
HETATM    7  O   UNL     1      65.058   9.345   5.721  1.00  0.00    -0.259 OA
BRANCH   6   8
HETATM    8  O   UNL     1      63.360   7.853   6.101  1.00  0.00    -0.322 OA
HETATM    9  C   UNL     1      64.242   6.798   6.484  1.00  0.00     0.213 C 
ENDBRANCH   6   8
ENDBRANCH   1   6
BRANCH   2  10
HETATM   10  N   UNL     1      63.313   7.403   2.826  1.00  0.00    -0.393 N 
HETATM   11  H   UNL     1      62.851   6.610   3.181  1.00  0.00     0.156 HD
HETATM   12  H   UNL     1      64.089   7.295   2.230  1.00  0.00     0.156 HD
ENDBRANCH   2  10
TORSDOF 3
ENDMDL
MODEL 4
REMARK VINA RESULT:      -3.7      1.608      2.035
REMARK  3 active torsions:
REMARK  status: ('A' for Active; 'I' for Inactive)
REMARK    1  A    between atoms: C_1  and  C_3 
REMARK    2  A    between atoms: C_2  and  N_8 
REMARK    3  A    between atoms: C_3  and  O_9 
ROOT
HETATM    1  C   UNL     1      63.207   8.760   4.012  1.00  0.00     0.073 A 
HETATM    2  C   UNL     1      62.417   9.787   3.513  1.00  0.00     0.084 A 
HETATM    3  S   UNL     1      61.787   9.424   1.961  1.00  0.00    -0.084 SA
HETATM    4  C   UNL     1      63.275   7.669   3.069  1.00  0.00     0.028 A 
HETATM    5  C   UNL     1      62.553   7.903   1.923  1.00  0.00     0.053 A 
ENDROOT
BRANCH   1   6
HETATM    6  C   UNL     1      63.874   8.788   5.313  1.00  0.00     0.295 C 
HETATM    7  O   UNL     1      64.733   9.606   5.632  1.00  0.00    -0.259 OA
BRANCH   6   8
HETATM    8  O   UNL     1      63.428   7.794   6.142  1.00  0.00    -0.322 OA
HETATM    9  C   UNL     1      64.422   6.842   6.520  1.00  0.00     0.213 C 
ENDBRANCH   6   8
ENDBRANCH   1   6
BRANCH   2  10
HETATM   10  N   UNL     1      62.114  10.968   4.087  1.00  0.00    -0.393 N 
HETATM   11  H   UNL     1      61.625  10.990   4.940  1.00  0.00     0.156 HD
HETATM   12  H   UNL     1      62.383  11.809   3.652  1.00  0.00     0.156 HD
ENDBRANCH   2  10
TORSDOF 3
ENDMDL
MODEL 5
REMARK VINA RESULT:      -3.7      3.434      4.468
REMARK  3 active torsions:
REMARK  status: ('A' for Active; 'I' for Inactive)
REMARK    1  A    between atoms: C_1  and  C_3 
REMARK    2  A    between atoms: C_2  and  N_8 
REMARK    3  A    between atoms: C_3  and  O_9 
ROOT
HETATM    1  C   UNL     1      62.146   9.402   4.260  1.00  0.00     0.073 A 
HETATM    2  C   UNL     1      61.327   8.404   3.748  1.00  0.00     0.084 A 
HETATM    3  S   UNL     1      61.620   6.885   4.486  1.00  0.00    -0.084 SA
HETATM    4  C   UNL     1      63.022   8.868   5.275  1.00  0.00     0.028 A 
HETATM    5  C   UNL     1      62.838   7.523   5.491  1.00  0.00     0.053 A 
ENDROOT
BRANCH   1   6
HETATM    6  C   UNL     1      62.120  10.797   3.824  1.00  0.00     0.295 C 
HETATM    7  O   UNL     1      62.022  11.758   4.584  1.00  0.00    -0.259 OA
BRANCH   6   8
HETATM    8  O   UNL     1      62.220  10.914   2.463  1.00  0.00    -0.322 OA
HETATM    9  C   UNL     1      61.601  12.079   1.918  1.00  0.00     0.213 C 
ENDBRANCH   6   8
ENDBRANCH   1   6
BRANCH   2  10
HETATM   10  N   UNL     1      60.386   8.501   2.790  1.00  0.00    -0.393 N 
HETATM   11  H   UNL     1      60.650   8.643   1.853  1.00  0.00     0.156 HD
HETATM   12  H   UNL     1      59.433   8.430   3.028  1.00  0.00     0.156 HD
ENDBRANCH   2  10
TORSDOF 3
ENDMDL
MODEL 6
REMARK VINA RESULT:      -3.5      3.940      5.339
REMARK  3 active torsions:
REMARK  status: ('A' for Active; 'I' for Inactive)
REMARK    1  A    between atoms: C_1  and  C_3 
REMARK    2  A    between atoms: C_2  and  N_8 
REMARK    3  A    between atoms: C_3  and  O_9 
ROOT
HETATM    1  C   UNL     1      66.392   6.753   6.462  1.00  0.00     0.073 A 
HETATM    2  C   UNL     1      66.956   5.832   5.590  1.00  0.00     0.084 A 
HETATM    3  S   UNL     1      66.810   4.224   6.164  1.00  0.00    -0.084 SA
HETATM    4  C   UNL     1      65.840   6.087   7.617  1.00  0.00     0.028 A 
HETATM    5  C   UNL     1      66.002   4.723   7.578  1.00  0.00     0.053 A 
ENDROOT
BRANCH   1   6
HETATM    6  C   UNL     1      66.365   8.198   6.234  1.00  0.00     0.295 C 
HETATM    7  O   UNL     1      66.737   9.034   7.054  1.00  0.00    -0.259 OA
BRANCH   6   8
HETATM    8  O   UNL     1      65.877   8.515   4.994  1.00  0.00    -0.322 OA
HETATM    9  C   UNL     1      64.455   8.599   4.918  1.00  0.00     0.213 C 
ENDBRANCH   6   8
ENDBRANCH   1   6
BRANCH   2  10
HETATM   10  N   UNL     1      67.571   6.058   4.413  1.00  0.00    -0.393 N 
HETATM   11  H   UNL     1      68.245   6.771   4.338  1.00  0.00     0.156 HD
HETATM   12  H   UNL     1      67.345   5.509   3.627  1.00  0.00     0.156 HD
ENDBRANCH   2  10
TORSDOF 3
ENDMDL
MODEL 7
REMARK VINA RESULT:      -3.4      3.235      4.473
REMARK  3 active torsions:
REMARK  status: ('A' for Active; 'I' for Inactive)
REMARK    1  A    between atoms: C_1  and  C_3 
REMARK    2  A    between atoms: C_2  and  N_8 
REMARK    3  A    between atoms: C_3  and  O_9 
ROOT
HETATM    1  C   UNL     1      62.387   9.171   2.858  1.00  0.00     0.073 A 
HETATM    2  C   UNL     1      62.076  10.485   3.182  1.00  0.00     0.084 A 
HETATM    3  S   UNL     1      62.551  10.888   4.779  1.00  0.00    -0.084 SA
HETATM    4  C   UNL     1      63.025   8.512   3.972  1.00  0.00     0.028 A 
HETATM    5  C   UNL     1      63.171   9.328   5.068  1.00  0.00     0.053 A 
ENDROOT
BRANCH   1   6
HETATM    6  C   UNL     1      62.103   8.549   1.565  1.00  0.00     0.295 C 
HETATM    7  O   UNL     1      62.374   9.056   0.480  1.00  0.00    -0.259 OA
BRANCH   6   8
HETATM    8  O   UNL     1      61.499   7.328   1.703  1.00  0.00    -0.322 OA
HETATM    9  C   UNL     1      60.089   7.382   1.921  1.00  0.00     0.213 C 
ENDBRANCH   6   8
ENDBRANCH   1   6
BRANCH   2  10
HETATM   10  N   UNL     1      61.475  11.418   2.418  1.00  0.00    -0.393 N 
HETATM   11  H   UNL     1      61.934  12.266   2.224  1.00  0.00     0.156 HD
HETATM   12  H   UNL     1      60.575  11.251   2.055  1.00  0.00     0.156 HD
ENDBRANCH   2  10
TORSDOF 3
ENDMDL
MODEL 8
REMARK VINA RESULT:      -3.4      2.134      2.498
REMARK  3 active torsions:
REMARK  status: ('A' for Active; 'I' for Inactive)
REMARK    1  A    between atoms: C_1  and  C_3 
REMARK    2  A    between atoms: C_2  and  N_8 
REMARK    3  A    between atoms: C_3  and  O_9 
ROOT
HETATM    1  C   UNL     1      64.247   8.000   4.112  1.00  0.00     0.073 A 
HETATM    2  C   UNL     1      63.066   8.416   3.513  1.00  0.00     0.084 A 
HETATM    3  S   UNL     1      62.481   7.276   2.374  1.00  0.00    -0.084 SA
HETATM    4  C   UNL     1      64.652   6.714   3.596  1.00  0.00     0.028 A 
HETATM    5  C   UNL     1      63.785   6.216   2.653  1.00  0.00     0.053 A 
ENDROOT
BRANCH   1   6
HETATM    6  C   UNL     1      64.975   8.765   5.123  1.00  0.00     0.295 C 
HETATM    7  O   UNL     1      64.488   9.683   5.779  1.00  0.00    -0.259 OA
BRANCH   6   8
HETATM    8  O   UNL     1      66.270   8.339   5.259  1.00  0.00    -0.322 OA
HETATM    9  C   UNL     1      66.672   8.078   6.604  1.00  0.00     0.213 C 
ENDBRANCH   6   8
ENDBRANCH   1   6
BRANCH   2  10
HETATM   10  N   UNL     1      62.375   9.553   3.720  1.00  0.00    -0.393 N 
HETATM   11  H   UNL     1      61.441   9.513   4.027  1.00  0.00     0.156 HD
HETATM   12  H   UNL     1      62.805  10.425   3.565  1.00  0.00     0.156 HD
ENDBRANCH   2  10
TORSDOF 3
ENDMDL
MODEL 9
REMARK VINA RESULT:      -3.3      4.239      5.744
REMARK  3 active torsions:
REMARK  status: ('A' for Active; 'I' for Inactive)
REMARK    1  A    between atoms: C_1  and  C_3 
REMARK    2  A    between atoms: C_2  and  N_8 
REMARK    3  A    between atoms: C_3  and  O_9 
ROOT
HETATM    1  C   UNL     1      66.812   6.413   6.746  1.00  0.00     0.073 A 
HETATM    2  C   UNL     1      67.339   6.065   7.982  1.00  0.00     0.084 A 
HETATM    3  S   UNL     1      68.074   4.517   7.960  1.00  0.00    -0.084 SA
HETATM    4  C   UNL     1      67.034   5.359   5.785  1.00  0.00     0.028 A 
HETATM    5  C   UNL     1      67.703   4.282   6.314  1.00  0.00     0.053 A 
ENDROOT
BRANCH   1   6
HETATM    6  C   UNL     1      66.127   7.675   6.464  1.00  0.00     0.295 C 
HETATM    7  O   UNL     1      66.643   8.783   6.587  1.00  0.00    -0.259 OA
BRANCH   6   8
HETATM    8  O   UNL     1      64.839   7.479   6.042  1.00  0.00    -0.322 OA
HETATM    9  C   UNL     1      64.381   8.419   5.071  1.00  0.00     0.213 C 
ENDBRANCH   6   8
ENDBRANCH   1   6
BRANCH   2  10
HETATM   10  N   UNL     1      67.330   6.774   9.127  1.00  0.00    -0.393 N 
HETATM   11  H   UNL     1      68.165   7.166   9.470  1.00  0.00     0.156 HD
HETATM   12  H   UNL     1      66.488   6.900   9.622  1.00  0.00     0.156 HD
ENDBRANCH   2  10
TORSDOF 3
ENDMDL
