MODEL 1
REMARK VINA RESULT:      -3.5      0.000      0.000
REMARK  0 active torsions:
REMARK  status: ('A' for Active; 'I' for Inactive)
ROOT
HETATM    1  C   UNL     1      63.084  10.724   5.173  1.00  0.00     0.116 A 
HETATM    2  N   UNL     1      63.471   9.490   4.707  1.00  0.00    -0.282 N 
HETATM    3  N   UNL     1      62.797   9.100   3.602  1.00  0.00    -0.308 N 
ATOM      4  HN  UNL     1      62.898   8.233   3.074  1.00  0.00     0.186 HD
HETATM    5  C   UNL     1      62.104  11.155   4.310  1.00  0.00     0.068 A 
HETATM    6  C   UNL     1      61.970  10.121   3.366  1.00  0.00     0.111 A 
HETATM    7  N   UNL     1      63.613  11.323   6.257  1.00  0.00    -0.384 N 
HETATM    8  C   UNL     1      64.489   8.628   5.255  1.00  0.00     0.179 C 
HETATM    9  H   UNL     1      64.318  10.870   6.774  1.00  0.00     0.157 HD
HETATM   10  H   UNL     1      63.293  12.212   6.534  1.00  0.00     0.157 HD
ENDROOT
TORSDOF 0
ENDMDL
MODEL 2
REMARK VINA RESULT:      -3.3      1.451      2.593
REMARK  0 active torsions:
REMARK  status: ('A' for Active; 'I' for Inactive)
ROOT
HETATM    1  C   UNL     1      62.036  10.780   3.294  1.00  0.00     0.116 A 
HETATM    2  N   UNL     1      62.529   9.495   3.290  1.00  0.00    -0.282 N 
HETATM    3  N   UNL     1      63.081   9.131   4.468  1.00  0.00    -0.308 N 
ATOM      4  HN  UNL     1      63.513   8.240   4.713  1.00  0.00     0.186 HD
HETATM    5  C   UNL     1      62.285  11.267   4.556  1.00  0.00     0.068 A 
HETATM    6  C   UNL     1      62.926  10.214   5.233  1.00  0.00     0.111 A 
HETATM    7  N   UNL     1      61.439  11.364   2.238  1.00  0.00    -0.384 N 
HETATM    8  C   UNL     1      62.493   8.549   2.202  1.00  0.00     0.179 C 
HETATM    9  H   UNL     1      61.340  10.868   1.393  1.00  0.00     0.157 HD
HETATM   10  H   UNL     1      61.103  12.286   2.310  1.00  0.00     0.157 HD
ENDROOT
TORSDOF 0
ENDMDL
MODEL 3
REMARK VINA RESULT:      -3.3      1.935      2.961
REMARK  0 active torsions:
REMARK  status: ('A' for Active; 'I' for Inactive)
ROOT
HETATM    1  C   UNL     1      61.935  10.487   2.204  1.00  0.00     0.116 A 
HETATM    2  N   UNL     1      62.353   9.942   3.396  1.00  0.00    -0.282 N 
HETATM    3  N   UNL     1      62.692   8.638   3.298  1.00  0.00    -0.308 N 
ATOM      4  HN  UNL     1      63.025   8.015   4.034  1.00  0.00     0.186 HD
HETATM    5  C   UNL     1      62.015   9.468   1.283  1.00  0.00     0.068 A 
HETATM    6  C   UNL     1      62.485   8.358   2.009  1.00  0.00     0.111 A 
HETATM    7  N   UNL     1      61.550  11.768   2.052  1.00  0.00    -0.384 N 
HETATM    8  C   UNL     1      62.472  10.611   4.668  1.00  0.00     0.179 C 
HETATM    9  H   UNL     1      61.550  12.377   2.826  1.00  0.00     0.157 HD
HETATM   10  H   UNL     1      61.267  12.096   1.168  1.00  0.00     0.157 HD
ENDROOT
TORSDOF 0
ENDMDL
MODEL 4
REMARK VINA RESULT:      -3.3      1.206      2.374
REMARK  0 active torsions:
REMARK  status: ('A' for Active; 'I' for Inactive)
ROOT
HETATM    1  C   UNL     1      62.144  10.332   3.620  1.00  0.00     0.116 A 
HETATM    2  N   UNL     1      62.933   9.352   4.175  1.00  0.00    -0.282 N 
HETATM    3  N   UNL     1      63.468   9.707   5.364  1.00  0.00    -0.308 N 
ATOM      4  HN  UNL     1      64.085   9.161   5.966  1.00  0.00     0.186 HD
HETATM    5  C   UNL     1      62.172  11.379   4.511  1.00  0.00     0.068 A 
HETATM    6  C   UNL     1      62.999  10.940   5.561  1.00  0.00     0.111 A 
HETATM    7  N   UNL     1      61.503  10.209   2.442  1.00  0.00    -0.384 N 
HETATM    8  C   UNL     1      63.209   8.043   3.637  1.00  0.00     0.179 C 
HETATM    9  H   UNL     1      61.590   9.380   1.919  1.00  0.00     0.157 HD
HETATM   10  H   UNL     1      60.948  10.949   2.104  1.00  0.00     0.157 HD
ENDROOT
TORSDOF 0
ENDMDL
MODEL 5
REMARK VINA RESULT:      -3.2      1.613      2.576
REMARK  0 active torsions:
REMARK  status: ('A' for Active; 'I' for Inactive)
ROOT
HETATM    1  C   UNL     1      62.420  10.555   4.249  1.00  0.00     0.116 A 
HETATM    2  N   UNL     1      62.088  10.573   2.915  1.00  0.00    -0.282 N 
HETATM    3  N   UNL     1      62.101   9.348   2.344  1.00  0.00    -0.308 N 
ATOM      4  HN  UNL     1      61.897   9.101   1.376  1.00  0.00     0.186 HD
HETATM    5  C   UNL     1      62.657   9.235   4.554  1.00  0.00     0.068 A 
HETATM    6  C   UNL     1      62.447   8.540   3.349  1.00  0.00     0.111 A 
HETATM    7  N   UNL     1      62.472  11.651   5.030  1.00  0.00    -0.384 N 
HETATM    8  C   UNL     1      61.729  11.721   2.119  1.00  0.00     0.179 C 
HETATM    9  H   UNL     1      62.271  12.536   4.649  1.00  0.00     0.157 HD
HETATM   10  H   UNL     1      62.712  11.567   5.981  1.00  0.00     0.157 HD
ENDROOT
TORSDOF 0
ENDMDL
MODEL 6
REMARK VINA RESULT:      -3.1      1.827      2.891
REMARK  0 active torsions:
REMARK  status: ('A' for Active; 'I' for Inactive)
ROOT
HETATM    1  C   UNL     1      62.431   9.186   2.556  1.00  0.00     0.116 A 
HETATM    2  N   UNL     1      62.452   9.947   3.702  1.00  0.00    -0.282 N 
HETATM    3  N   UNL     1      62.022  11.213   3.510  1.00  0.00    -0.308 N 
ATOM      4  HN  UNL     1      61.947  11.965   4.195  1.00  0.00     0.186 HD
HETATM    5  C   UNL     1      61.952  10.015   1.570  1.00  0.00     0.068 A 
HETATM    6  C   UNL     1      61.717  11.245   2.211  1.00  0.00     0.111 A 
HETATM    7  N   UNL     1      62.811   7.895   2.499  1.00  0.00    -0.384 N 
HETATM    8  C   UNL     1      62.857   9.529   5.021  1.00  0.00     0.179 C 
HETATM    9  H   UNL     1      63.136   7.442   3.310  1.00  0.00     0.157 HD
HETATM   10  H   UNL     1      62.765   7.406   1.646  1.00  0.00     0.157 HD
ENDROOT
TORSDOF 0
ENDMDL
MODEL 7
REMARK VINA RESULT:      -3.1      1.543      2.077
REMARK  0 active torsions:
REMARK  status: ('A' for Active; 'I' for Inactive)
ROOT
HETATM    1  C   UNL     1      62.808   9.459   5.118  1.00  0.00     0.116 A 
HETATM    2  N   UNL     1      62.004   9.165   4.042  1.00  0.00    -0.282 N 
HETATM    3  N   UNL     1      61.524  10.262   3.417  1.00  0.00    -0.308 N 
ATOM      4  HN  UNL     1      60.909  10.308   2.604  1.00  0.00     0.186 HD
HETATM    5  C   UNL     1      62.849  10.833   5.184  1.00  0.00     0.068 A 
HETATM    6  C   UNL     1      62.044  11.272   4.117  1.00  0.00     0.111 A 
HETATM    7  N   UNL     1      63.403   8.533   5.893  1.00  0.00    -0.384 N 
HETATM    8  C   UNL     1      61.662   7.857   3.539  1.00  0.00     0.179 C 
HETATM    9  H   UNL     1      63.268   7.576   5.707  1.00  0.00     0.157 HD
HETATM   10  H   UNL     1      63.972   8.813   6.647  1.00  0.00     0.157 HD
ENDROOT
TORSDOF 0
ENDMDL
MODEL 8
REMARK VINA RESULT:      -3.0      2.193      3.181
REMARK  0 active torsions:
REMARK  status: ('A' for Active; 'I' for Inactive)
ROOT
HETATM    1  C   UNL     1      62.792   8.892   3.294  1.00  0.00     0.116 A 
HETATM    2  N   UNL     1      62.164   9.539   2.255  1.00  0.00    -0.282 N 
HETATM    3  N   UNL     1      61.647  10.737   2.606  1.00  0.00    -0.308 N 
ATOM      4  HN  UNL     1      61.136  11.399   2.022  1.00  0.00     0.186 HD
HETATM    5  C   UNL     1      62.673   9.731   4.377  1.00  0.00     0.068 A 
HETATM    6  C   UNL     1      61.964  10.847   3.898  1.00  0.00     0.111 A 
HETATM    7  N   UNL     1      63.384   7.687   3.187  1.00  0.00    -0.384 N 
HETATM    8  C   UNL     1      62.032   9.082   0.894  1.00  0.00     0.179 C 
HETATM    9  H   UNL     1      63.378   7.211   2.326  1.00  0.00     0.157 HD
HETATM   10  H   UNL     1      63.821   7.282   3.971  1.00  0.00     0.157 HD
ENDROOT
TORSDOF 0
ENDMDL
MODEL 9
REMARK VINA RESULT:      -3.0      3.699      4.468
REMARK  0 active torsions:
REMARK  status: ('A' for Active; 'I' for Inactive)
ROOT
HETATM    1  C   UNL     1      66.479   7.757   6.089  1.00  0.00     0.116 A 
HETATM    2  N   UNL     1      65.775   7.122   7.086  1.00  0.00    -0.282 N 
HETATM    3  N   UNL     1      64.447   7.064   6.849  1.00  0.00    -0.308 N 
ATOM      4  HN  UNL     1      63.718   6.652   7.432  1.00  0.00     0.186 HD
HETATM    5  C   UNL     1      65.542   8.126   5.153  1.00  0.00     0.068 A 
HETATM    6  C   UNL     1      64.314   7.675   5.669  1.00  0.00     0.111 A 
HETATM    7  N   UNL     1      67.814   7.934   6.101  1.00  0.00    -0.384 N 
HETATM    8  C   UNL     1      66.306   6.529   8.289  1.00  0.00     0.179 C 
HETATM    9  H   UNL     1      68.347   7.605   6.861  1.00  0.00     0.157 HD
HETATM   10  H   UNL     1      68.257   8.394   5.351  1.00  0.00     0.157 HD
ENDROOT
TORSDOF 0
ENDMDL
