MODEL 1
REMARK VINA RESULT:      -3.9      0.000      0.000
REMARK  1 active torsions:
REMARK  status: ('A' for Active; 'I' for Inactive)
REMARK    1  A    between atoms: C_1  and  C_4 
ROOT
HETATM    1  C   UNL     1      62.414   9.585   3.034  1.00  0.00     0.133 A 
HETATM    2  N   UNL     1      63.164   8.496   3.303  1.00  0.00    -0.295 N 
ATOM      3  HN  UNL     1      63.438   7.751   2.662  1.00  0.00     0.187 HD
HETATM    4  C   UNL     1      62.253  10.381   4.201  1.00  0.00     0.054 A 
HETATM    5  N   UNL     1      63.470   8.613   4.607  1.00  0.00    -0.307 N 
HETATM    6  C   UNL     1      62.944   9.725   5.192  1.00  0.00     0.112 A 
HETATM    7  C   UNL     1      64.296   7.608   5.231  1.00  0.00     0.177 C 
ENDROOT
BRANCH   1   8
HETATM    8  C   UNL     1      61.852   9.883   1.669  1.00  0.00     0.433 C 
HETATM    9  F   UNL     1      60.656   9.287   1.424  1.00  0.00    -0.165 F 
HETATM   10  F   UNL     1      61.666  11.220   1.485  1.00  0.00    -0.165 F 
HETATM   11  F   UNL     1      62.698   9.479   0.681  1.00  0.00    -0.165 F 
ENDBRANCH   1   8
TORSDOF 1
ENDMDL
MODEL 2
REMARK VINA RESULT:      -3.9      6.257      7.562
REMARK  1 active torsions:
REMARK  status: ('A' for Active; 'I' for Inactive)
REMARK    1  A    between atoms: C_1  and  C_4 
ROOT
HETATM    1  C   UNL     1      66.645   6.709   7.444  1.00  0.00     0.133 A 
HETATM    2  N   UNL     1      65.523   7.365   7.082  1.00  0.00    -0.295 N 
ATOM      3  HN  UNL     1      64.678   7.509   7.635  1.00  0.00     0.187 HD
HETATM    4  C   UNL     1      67.595   6.724   6.386  1.00  0.00     0.054 A 
HETATM    5  N   UNL     1      65.769   7.785   5.829  1.00  0.00    -0.307 N 
HETATM    6  C   UNL     1      66.997   7.422   5.365  1.00  0.00     0.112 A 
HETATM    7  C   UNL     1      64.766   8.553   5.133  1.00  0.00     0.177 C 
ENDROOT
BRANCH   1   8
HETATM    8  C   UNL     1      66.830   6.071   8.796  1.00  0.00     0.433 C 
HETATM    9  F   UNL     1      66.661   4.723   8.796  1.00  0.00    -0.165 F 
HETATM   10  F   UNL     1      68.074   6.309   9.296  1.00  0.00    -0.165 F 
HETATM   11  F   UNL     1      65.952   6.574   9.709  1.00  0.00    -0.165 F 
ENDBRANCH   1   8
TORSDOF 1
ENDMDL
MODEL 3
REMARK VINA RESULT:      -3.9      1.872      2.679
REMARK  1 active torsions:
REMARK  status: ('A' for Active; 'I' for Inactive)
REMARK    1  A    between atoms: C_1  and  C_4 
ROOT
HETATM    1  C   UNL     1      63.256   9.208   4.289  1.00  0.00     0.133 A 
HETATM    2  N   UNL     1      64.170   9.337   5.273  1.00  0.00    -0.295 N 
ATOM      3  HN  UNL     1      64.278  10.111   5.928  1.00  0.00     0.187 HD
HETATM    4  C   UNL     1      63.444   7.983   3.591  1.00  0.00     0.054 A 
HETATM    5  N   UNL     1      64.907   8.215   5.195  1.00  0.00    -0.307 N 
HETATM    6  C   UNL     1      64.514   7.373   4.200  1.00  0.00     0.112 A 
HETATM    7  C   UNL     1      65.984   8.012   6.134  1.00  0.00     0.177 C 
ENDROOT
BRANCH   1   8
HETATM    8  C   UNL     1      62.195  10.238   4.007  1.00  0.00     0.433 C 
HETATM    9  F   UNL     1      62.202  11.287   4.871  1.00  0.00    -0.165 F 
HETATM   10  F   UNL     1      62.325  10.763   2.757  1.00  0.00    -0.165 F 
HETATM   11  F   UNL     1      60.946   9.697   4.063  1.00  0.00    -0.165 F 
ENDBRANCH   1   8
TORSDOF 1
ENDMDL
MODEL 4
REMARK VINA RESULT:      -3.7      4.441      5.425
REMARK  1 active torsions:
REMARK  status: ('A' for Active; 'I' for Inactive)
REMARK    1  A    between atoms: C_1  and  C_4 
ROOT
HETATM    1  C   UNL     1      65.310   8.196   5.426  1.00  0.00     0.133 A 
HETATM    2  N   UNL     1      64.511   9.266   5.618  1.00  0.00    -0.295 N 
ATOM      3  HN  UNL     1      64.612  10.006   6.313  1.00  0.00     0.187 HD
HETATM    4  C   UNL     1      64.823   7.393   4.359  1.00  0.00     0.054 A 
HETATM    5  N   UNL     1      63.549   9.138   4.687  1.00  0.00    -0.307 N 
HETATM    6  C   UNL     1      63.689   8.029   3.909  1.00  0.00     0.112 A 
HETATM    7  C   UNL     1      62.518  10.142   4.594  1.00  0.00     0.177 C 
ENDROOT
BRANCH   1   8
HETATM    8  C   UNL     1      66.544   7.931   6.247  1.00  0.00     0.433 C 
HETATM    9  F   UNL     1      66.454   6.830   7.039  1.00  0.00    -0.165 F 
HETATM   10  F   UNL     1      67.642   7.755   5.459  1.00  0.00    -0.165 F 
HETATM   11  F   UNL     1      66.833   8.979   7.069  1.00  0.00    -0.165 F 
ENDBRANCH   1   8
TORSDOF 1
ENDMDL
MODEL 5
REMARK VINA RESULT:      -3.6      3.322      4.436
REMARK  1 active torsions:
REMARK  status: ('A' for Active; 'I' for Inactive)
REMARK    1  A    between atoms: C_1  and  C_4 
ROOT
HETATM    1  C   UNL     1      64.995   7.920   5.733  1.00  0.00     0.133 A 
HETATM    2  N   UNL     1      64.858   7.313   6.930  1.00  0.00    -0.295 N 
ATOM      3  HN  UNL     1      64.008   7.206   7.483  1.00  0.00     0.187 HD
HETATM    4  C   UNL     1      66.348   7.864   5.296  1.00  0.00     0.054 A 
HETATM    5  N   UNL     1      66.096   6.882   7.231  1.00  0.00    -0.307 N 
HETATM    6  C   UNL     1      67.025   7.191   6.285  1.00  0.00     0.112 A 
HETATM    7  C   UNL     1      66.311   6.157   8.460  1.00  0.00     0.177 C 
ENDROOT
BRANCH   1   8
HETATM    8  C   UNL     1      63.847   8.551   4.991  1.00  0.00     0.433 C 
HETATM    9  F   UNL     1      63.853   8.305   3.654  1.00  0.00    -0.165 F 
HETATM   10  F   UNL     1      62.645   8.113   5.462  1.00  0.00    -0.165 F 
HETATM   11  F   UNL     1      63.841   9.905   5.137  1.00  0.00    -0.165 F 
ENDBRANCH   1   8
TORSDOF 1
ENDMDL
MODEL 6
REMARK VINA RESULT:      -3.6      2.962      4.131
REMARK  1 active torsions:
REMARK  status: ('A' for Active; 'I' for Inactive)
REMARK    1  A    between atoms: C_1  and  C_4 
ROOT
HETATM    1  C   UNL     1      60.666   8.513   1.488  1.00  0.00     0.133 A 
HETATM    2  N   UNL     1      60.034   8.263   2.653  1.00  0.00    -0.295 N 
ATOM      3  HN  UNL     1      60.344   8.499   3.595  1.00  0.00     0.187 HD
HETATM    4  C   UNL     1      59.907   8.019   0.391  1.00  0.00     0.054 A 
HETATM    5  N   UNL     1      58.902   7.633   2.292  1.00  0.00    -0.307 N 
HETATM    6  C   UNL     1      58.782   7.458   0.947  1.00  0.00     0.112 A 
HETATM    7  C   UNL     1      57.962   7.231   3.310  1.00  0.00     0.177 C 
ENDROOT
BRANCH   1   8
HETATM    8  C   UNL     1      61.989   9.228   1.403  1.00  0.00     0.433 C 
HETATM    9  F   UNL     1      62.879   8.855   2.360  1.00  0.00    -0.165 F 
HETATM   10  F   UNL     1      62.596   9.018   0.202  1.00  0.00    -0.165 F 
HETATM   11  F   UNL     1      61.835  10.578   1.519  1.00  0.00    -0.165 F 
ENDBRANCH   1   8
TORSDOF 1
ENDMDL
MODEL 7
REMARK VINA RESULT:      -3.5     13.439     14.333
REMARK  1 active torsions:
REMARK  status: ('A' for Active; 'I' for Inactive)
REMARK    1  A    between atoms: C_1  and  C_4 
ROOT
HETATM    1  C   UNL     1      57.485   1.807  13.318  1.00  0.00     0.133 A 
HETATM    2  N   UNL     1      56.467   2.206  14.109  1.00  0.00    -0.295 N 
ATOM      3  HN  UNL     1      56.409   2.153  15.126  1.00  0.00     0.187 HD
HETATM    4  C   UNL     1      57.177   2.045  11.950  1.00  0.00     0.054 A 
HETATM    5  N   UNL     1      55.547   2.688  13.255  1.00  0.00    -0.307 N 
HETATM    6  C   UNL     1      55.924   2.610  11.949  1.00  0.00     0.112 A 
HETATM    7  C   UNL     1      54.315   3.229  13.777  1.00  0.00     0.177 C 
ENDROOT
BRANCH   1   8
HETATM    8  C   UNL     1      58.758   1.204  13.851  1.00  0.00     0.433 C 
HETATM    9  F   UNL     1      59.068  -0.001  13.306  1.00  0.00    -0.165 F 
HETATM   10  F   UNL     1      59.828   2.019  13.632  1.00  0.00    -0.165 F 
HETATM   11  F   UNL     1      58.695   1.017  15.200  1.00  0.00    -0.165 F 
ENDBRANCH   1   8
TORSDOF 1
ENDMDL
MODEL 8
REMARK VINA RESULT:      -3.4      2.896      4.044
REMARK  1 active torsions:
REMARK  status: ('A' for Active; 'I' for Inactive)
REMARK    1  A    between atoms: C_1  and  C_4 
ROOT
HETATM    1  C   UNL     1      62.461   8.844   3.416  1.00  0.00     0.133 A 
HETATM    2  N   UNL     1      62.213  10.167   3.512  1.00  0.00    -0.295 N 
ATOM      3  HN  UNL     1      62.214  10.743   4.353  1.00  0.00     0.187 HD
HETATM    4  C   UNL     1      62.356   8.413   2.064  1.00  0.00     0.054 A 
HETATM    5  N   UNL     1      61.965  10.555   2.248  1.00  0.00    -0.307 N 
HETATM    6  C   UNL     1      62.034   9.539   1.344  1.00  0.00     0.112 A 
HETATM    7  C   UNL     1      61.676  11.942   1.980  1.00  0.00     0.177 C 
ENDROOT
BRANCH   1   8
HETATM    8  C   UNL     1      62.807   7.981   4.600  1.00  0.00     0.433 C 
HETATM    9  F   UNL     1      64.014   7.364   4.499  1.00  0.00    -0.165 F 
HETATM   10  F   UNL     1      62.835   8.703   5.755  1.00  0.00    -0.165 F 
HETATM   11  F   UNL     1      61.882   6.998   4.789  1.00  0.00    -0.165 F 
ENDBRANCH   1   8
TORSDOF 1
ENDMDL
MODEL 9
REMARK VINA RESULT:      -3.3      3.088      3.622
REMARK  1 active torsions:
REMARK  status: ('A' for Active; 'I' for Inactive)
REMARK    1  A    between atoms: C_1  and  C_4 
ROOT
HETATM    1  C   UNL     1      61.296   8.314   3.568  1.00  0.00     0.133 A 
HETATM    2  N   UNL     1      59.997   8.566   3.300  1.00  0.00    -0.295 N 
ATOM      3  HN  UNL     1      59.607   9.360   2.792  1.00  0.00     0.187 HD
HETATM    4  C   UNL     1      61.428   7.106   4.307  1.00  0.00     0.054 A 
HETATM    5  N   UNL     1      59.334   7.535   3.853  1.00  0.00    -0.307 N 
HETATM    6  C   UNL     1      60.147   6.635   4.473  1.00  0.00     0.112 A 
HETATM    7  C   UNL     1      57.898   7.475   3.735  1.00  0.00     0.177 C 
ENDROOT
BRANCH   1   8
HETATM    8  C   UNL     1      62.420   9.210   3.120  1.00  0.00     0.433 C 
HETATM    9  F   UNL     1      62.259  10.513   3.470  1.00  0.00    -0.165 F 
HETATM   10  F   UNL     1      63.615   8.812   3.639  1.00  0.00    -0.165 F 
HETATM   11  F   UNL     1      62.568   9.186   1.765  1.00  0.00    -0.165 F 
ENDBRANCH   1   8
TORSDOF 1
ENDMDL
