MODEL 1
REMARK VINA RESULT:      -4.0      0.000      0.000
REMARK  1 active torsions:
REMARK  status: ('A' for Active; 'I' for Inactive)
REMARK    1  A    between atoms: C_1  and  C_2 
ROOT
HETATM    1  C   UNL     1      62.412   9.897   3.712  1.00  0.00     0.133 A 
HETATM    2  N   UNL     1      61.768  11.033   3.372  1.00  0.00    -0.297 N 
ATOM      3  HN  UNL     1      61.601  11.854   3.953  1.00  0.00     0.187 HD
HETATM    4  N   UNL     1      61.395  10.839   2.097  1.00  0.00    -0.311 N 
HETATM    5  C   UNL     1      62.433   8.989   2.617  1.00  0.00     0.054 A 
HETATM    6  C   UNL     1      61.771   9.629   1.599  1.00  0.00     0.109 A 
HETATM    7  H   UNL     1      60.898  11.508   1.573  1.00  0.00     0.186 HD
ENDROOT
BRANCH   1   8
HETATM    8  C   UNL     1      63.017   9.660   5.072  1.00  0.00     0.433 C 
HETATM    9  F   UNL     1      64.363   9.476   5.052  1.00  0.00    -0.165 F 
HETATM   10  F   UNL     1      62.779  10.705   5.913  1.00  0.00    -0.165 F 
HETATM   11  F   UNL     1      62.481   8.561   5.672  1.00  0.00    -0.165 F 
ENDBRANCH   1   8
TORSDOF 1
ENDMDL
MODEL 2
REMARK VINA RESULT:      -3.9      2.899      3.641
REMARK  1 active torsions:
REMARK  status: ('A' for Active; 'I' for Inactive)
REMARK    1  A    between atoms: C_1  and  C_2 
ROOT
HETATM    1  C   UNL     1      61.967   9.853   2.400  1.00  0.00     0.133 A 
HETATM    2  N   UNL     1      61.629  11.157   2.321  1.00  0.00    -0.297 N 
ATOM      3  HN  UNL     1      61.276  11.663   1.509  1.00  0.00     0.187 HD
HETATM    4  N   UNL     1      61.862  11.640   3.553  1.00  0.00    -0.311 N 
HETATM    5  C   UNL     1      62.416   9.532   3.711  1.00  0.00     0.054 A 
HETATM    6  C   UNL     1      62.334  10.705   4.422  1.00  0.00     0.109 A 
HETATM    7  H   UNL     1      61.705  12.579   3.802  1.00  0.00     0.186 HD
ENDROOT
BRANCH   1   8
HETATM    8  C   UNL     1      61.866   8.897   1.240  1.00  0.00     0.433 C 
HETATM    9  F   UNL     1      62.220   7.621   1.545  1.00  0.00    -0.165 F 
HETATM   10  F   UNL     1      60.596   8.842   0.748  1.00  0.00    -0.165 F 
HETATM   11  F   UNL     1      62.658   9.285   0.202  1.00  0.00    -0.165 F 
ENDBRANCH   1   8
TORSDOF 1
ENDMDL
MODEL 3
REMARK VINA RESULT:      -3.9      2.640      3.336
REMARK  1 active torsions:
REMARK  status: ('A' for Active; 'I' for Inactive)
REMARK    1  A    between atoms: C_1  and  C_2 
ROOT
HETATM    1  C   UNL     1      63.207   9.494   4.459  1.00  0.00     0.133 A 
HETATM    2  N   UNL     1      63.892   9.828   5.572  1.00  0.00    -0.297 N 
ATOM      3  HN  UNL     1      63.796  10.674   6.134  1.00  0.00     0.187 HD
HETATM    4  N   UNL     1      64.730   8.798   5.774  1.00  0.00    -0.311 N 
HETATM    5  C   UNL     1      63.636   8.228   3.970  1.00  0.00     0.054 A 
HETATM    6  C   UNL     1      64.613   7.813   4.841  1.00  0.00     0.109 A 
HETATM    7  H   UNL     1      65.365   8.758   6.525  1.00  0.00     0.186 HD
ENDROOT
BRANCH   1   8
HETATM    8  C   UNL     1      62.139  10.364   3.849  1.00  0.00     0.433 C 
HETATM    9  F   UNL     1      62.319  10.611   2.525  1.00  0.00    -0.165 F 
HETATM   10  F   UNL     1      60.904   9.801   3.975  1.00  0.00    -0.165 F 
HETATM   11  F   UNL     1      62.068  11.576   4.466  1.00  0.00    -0.165 F 
ENDBRANCH   1   8
TORSDOF 1
ENDMDL
MODEL 4
REMARK VINA RESULT:      -3.9      5.718      6.400
REMARK  1 active torsions:
REMARK  status: ('A' for Active; 'I' for Inactive)
REMARK    1  A    between atoms: C_1  and  C_2 
ROOT
HETATM    1  C   UNL     1      66.268   6.973   7.774  1.00  0.00     0.133 A 
HETATM    2  N   UNL     1      66.803   8.122   7.311  1.00  0.00    -0.297 N 
ATOM      3  HN  UNL     1      67.583   8.649   7.703  1.00  0.00     0.187 HD
HETATM    4  N   UNL     1      66.078   8.417   6.220  1.00  0.00    -0.311 N 
HETATM    5  C   UNL     1      65.190   6.556   6.944  1.00  0.00     0.054 A 
HETATM    6  C   UNL     1      65.099   7.507   5.957  1.00  0.00     0.109 A 
HETATM    7  H   UNL     1      66.240   9.212   5.664  1.00  0.00     0.186 HD
ENDROOT
BRANCH   1   8
HETATM    8  C   UNL     1      66.770   6.257   9.000  1.00  0.00     0.433 C 
HETATM    9  F   UNL     1      68.074   6.508   9.290  1.00  0.00    -0.165 F 
HETATM   10  F   UNL     1      66.052   6.599  10.107  1.00  0.00    -0.165 F 
HETATM   11  F   UNL     1      66.652   4.906   8.874  1.00  0.00    -0.165 F 
ENDBRANCH   1   8
TORSDOF 1
ENDMDL
MODEL 5
REMARK VINA RESULT:      -3.8      2.660      3.346
REMARK  1 active torsions:
REMARK  status: ('A' for Active; 'I' for Inactive)
REMARK    1  A    between atoms: C_1  and  C_2 
ROOT
HETATM    1  C   UNL     1      63.245   9.407   4.460  1.00  0.00     0.133 A 
HETATM    2  N   UNL     1      63.954   9.744   5.558  1.00  0.00    -0.297 N 
ATOM      3  HN  UNL     1      63.865  10.587   6.124  1.00  0.00     0.187 HD
HETATM    4  N   UNL     1      64.803   8.719   5.739  1.00  0.00    -0.311 N 
HETATM    5  C   UNL     1      63.671   8.145   3.959  1.00  0.00     0.054 A 
HETATM    6  C   UNL     1      64.672   7.735   4.806  1.00  0.00     0.109 A 
HETATM    7  H   UNL     1      65.455   8.683   6.474  1.00  0.00     0.186 HD
ENDROOT
BRANCH   1   8
HETATM    8  C   UNL     1      62.157  10.270   3.876  1.00  0.00     0.433 C 
HETATM    9  F   UNL     1      60.913   9.733   3.977  1.00  0.00    -0.165 F 
HETATM   10  F   UNL     1      62.106  11.488   4.485  1.00  0.00    -0.165 F 
HETATM   11  F   UNL     1      62.370  10.516   2.553  1.00  0.00    -0.165 F 
ENDBRANCH   1   8
TORSDOF 1
ENDMDL
MODEL 6
REMARK VINA RESULT:      -3.6      2.115      2.661
REMARK  1 active torsions:
REMARK  status: ('A' for Active; 'I' for Inactive)
REMARK    1  A    between atoms: C_1  and  C_2 
ROOT
HETATM    1  C   UNL     1      62.978   9.508   4.767  1.00  0.00     0.133 A 
HETATM    2  N   UNL     1      63.256  10.445   5.697  1.00  0.00    -0.297 N 
ATOM      3  HN  UNL     1      63.805  10.335   6.549  1.00  0.00     0.187 HD
HETATM    4  N   UNL     1      62.647  11.555   5.249  1.00  0.00    -0.311 N 
HETATM    5  C   UNL     1      62.181  10.059   3.726  1.00  0.00     0.054 A 
HETATM    6  C   UNL     1      61.989  11.375   4.070  1.00  0.00     0.109 A 
HETATM    7  H   UNL     1      62.674  12.415   5.726  1.00  0.00     0.186 HD
ENDROOT
BRANCH   1   8
HETATM    8  C   UNL     1      63.466   8.084   4.850  1.00  0.00     0.433 C 
HETATM    9  F   UNL     1      62.470   7.160   4.846  1.00  0.00    -0.165 F 
HETATM   10  F   UNL     1      64.288   7.777   3.808  1.00  0.00    -0.165 F 
HETATM   11  F   UNL     1      64.192   7.870   5.982  1.00  0.00    -0.165 F 
ENDBRANCH   1   8
TORSDOF 1
ENDMDL
MODEL 7
REMARK VINA RESULT:      -3.5      4.748      5.570
REMARK  1 active torsions:
REMARK  status: ('A' for Active; 'I' for Inactive)
REMARK    1  A    between atoms: C_1  and  C_2 
ROOT
HETATM    1  C   UNL     1      65.851   7.239   6.668  1.00  0.00     0.133 A 
HETATM    2  N   UNL     1      64.533   7.219   6.957  1.00  0.00    -0.297 N 
ATOM      3  HN  UNL     1      64.071   6.747   7.734  1.00  0.00     0.187 HD
HETATM    4  N   UNL     1      63.964   7.957   5.989  1.00  0.00    -0.311 N 
HETATM    5  C   UNL     1      66.092   8.010   5.496  1.00  0.00     0.054 A 
HETATM    6  C   UNL     1      64.858   8.454   5.090  1.00  0.00     0.109 A 
HETATM    7  H   UNL     1      62.996   8.122   5.936  1.00  0.00     0.186 HD
ENDROOT
BRANCH   1   8
HETATM    8  C   UNL     1      66.894   6.536   7.497  1.00  0.00     0.433 C 
HETATM    9  F   UNL     1      66.544   5.277   7.870  1.00  0.00    -0.165 F 
HETATM   10  F   UNL     1      68.075   6.429   6.826  1.00  0.00    -0.165 F 
HETATM   11  F   UNL     1      67.169   7.221   8.641  1.00  0.00    -0.165 F 
ENDBRANCH   1   8
TORSDOF 1
ENDMDL
MODEL 8
REMARK VINA RESULT:      -3.5      3.882      4.379
REMARK  1 active torsions:
REMARK  status: ('A' for Active; 'I' for Inactive)
REMARK    1  A    between atoms: C_1  and  C_2 
ROOT
HETATM    1  C   UNL     1      65.016   7.977   5.805  1.00  0.00     0.133 A 
HETATM    2  N   UNL     1      64.213   7.371   6.705  1.00  0.00    -0.297 N 
ATOM      3  HN  UNL     1      64.488   6.766   7.478  1.00  0.00     0.187 HD
HETATM    4  N   UNL     1      62.971   7.742   6.352  1.00  0.00    -0.311 N 
HETATM    5  C   UNL     1      64.245   8.738   4.882  1.00  0.00     0.054 A 
HETATM    6  C   UNL     1      62.938   8.562   5.266  1.00  0.00     0.109 A 
HETATM    7  H   UNL     1      62.164   7.450   6.834  1.00  0.00     0.186 HD
ENDROOT
BRANCH   1   8
HETATM    8  C   UNL     1      66.517   7.848   5.811  1.00  0.00     0.433 C 
HETATM    9  F   UNL     1      67.101   8.159   4.624  1.00  0.00    -0.165 F 
HETATM   10  F   UNL     1      67.084   8.657   6.748  1.00  0.00    -0.165 F 
HETATM   11  F   UNL     1      66.908   6.580   6.118  1.00  0.00    -0.165 F 
ENDBRANCH   1   8
TORSDOF 1
ENDMDL
MODEL 9
REMARK VINA RESULT:      -3.3      3.040      3.533
REMARK  1 active torsions:
REMARK  status: ('A' for Active; 'I' for Inactive)
REMARK    1  A    between atoms: C_1  and  C_2 
ROOT
HETATM    1  C   UNL     1      64.314   8.412   4.687  1.00  0.00     0.133 A 
HETATM    2  N   UNL     1      64.425   9.251   5.737  1.00  0.00    -0.297 N 
ATOM      3  HN  UNL     1      65.135   9.246   6.469  1.00  0.00     0.187 HD
HETATM    4  N   UNL     1      63.389  10.096   5.604  1.00  0.00    -0.311 N 
HETATM    5  C   UNL     1      63.184   8.752   3.892  1.00  0.00     0.054 A 
HETATM    6  C   UNL     1      62.616   9.838   4.513  1.00  0.00     0.109 A 
HETATM    7  H   UNL     1      63.207  10.829   6.233  1.00  0.00     0.186 HD
ENDROOT
BRANCH   1   8
HETATM    8  C   UNL     1      65.276   7.283   4.421  1.00  0.00     0.433 C 
HETATM    9  F   UNL     1      66.583   7.653   4.455  1.00  0.00    -0.165 F 
HETATM   10  F   UNL     1      65.132   6.279   5.331  1.00  0.00    -0.165 F 
HETATM   11  F   UNL     1      65.062   6.720   3.199  1.00  0.00    -0.165 F 
ENDBRANCH   1   8
TORSDOF 1
ENDMDL
