MODEL 1
REMARK VINA RESULT:      -5.2      0.000      0.000
REMARK  3 active torsions:
REMARK  status: ('A' for Active; 'I' for Inactive)
REMARK    1  A    between atoms: C_1  and  C_2 
REMARK    2  A    between atoms: C_8  and  O_14 
REMARK    3  A    between atoms: O_14  and  C_15 
ROOT
HETATM    1  N   UNL     1      66.957   8.381   6.154  1.00  0.00    -0.195 NA
HETATM    2  C   UNL     1      66.016   7.725   6.338  1.00  0.00     0.085 C 
HETATM    3  C   UNL     1      64.837   6.871   6.564  1.00  0.00     0.300 C 
ENDROOT
BRANCH   3   4
HETATM    4  O   UNL     1      63.664   7.683   6.693  1.00  0.00    -0.322 OA
BRANCH   4   5
HETATM    5  C   UNL     1      63.253   8.205   5.485  1.00  0.00     0.142 A 
HETATM    6  N   UNL     1      62.895   9.503   5.410  1.00  0.00    -0.346 N 
HETATM    7  C   UNL     1      62.475   9.954   4.204  1.00  0.00     0.106 A 
ATOM      8  HN  UNL     1      62.938  10.117   6.223  1.00  0.00     0.167 HD
HETATM    9  C   UNL     1      62.416   9.171   3.060  1.00  0.00     0.063 A 
HETATM   10  C   UNL     1      62.791   7.829   3.178  1.00  0.00     0.022 A 
HETATM   11  C   UNL     1      63.206   7.333   4.410  1.00  0.00     0.057 A 
BRANCH   9  12
HETATM   12  C   UNL     1      61.969   9.753   1.753  1.00  0.00     0.418 C 
HETATM   13  F   UNL     1      60.683   9.443   1.432  1.00  0.00    -0.166 F 
HETATM   14  F   UNL     1      62.729   9.333   0.705  1.00  0.00    -0.166 F 
HETATM   15  F   UNL     1      62.038  11.113   1.743  1.00  0.00    -0.166 F 
ENDBRANCH   9  12
ENDBRANCH   4   5
ENDBRANCH   3   4
TORSDOF 3
ENDMDL
MODEL 2
REMARK VINA RESULT:      -5.0      0.963      1.392
REMARK  3 active torsions:
REMARK  status: ('A' for Active; 'I' for Inactive)
REMARK    1  A    between atoms: C_1  and  C_2 
REMARK    2  A    between atoms: C_8  and  O_14 
REMARK    3  A    between atoms: O_14  and  C_15 
ROOT
HETATM    1  N   UNL     1      66.285   6.411   8.461  1.00  0.00    -0.195 NA
HETATM    2  C   UNL     1      65.579   6.496   7.542  1.00  0.00     0.085 C 
HETATM    3  C   UNL     1      64.700   6.589   6.363  1.00  0.00     0.300 C 
ENDROOT
BRANCH   3   4
HETATM    4  O   UNL     1      63.737   7.632   6.554  1.00  0.00    -0.322 OA
BRANCH   4   5
HETATM    5  C   UNL     1      63.313   8.177   5.361  1.00  0.00     0.142 A 
HETATM    6  N   UNL     1      62.905   9.462   5.327  1.00  0.00    -0.346 N 
HETATM    7  C   UNL     1      62.475   9.936   4.133  1.00  0.00     0.106 A 
ATOM      8  HN  UNL     1      62.920  10.050   6.159  1.00  0.00     0.167 HD
HETATM    9  C   UNL     1      62.452   9.190   2.964  1.00  0.00     0.063 A 
HETATM   10  C   UNL     1      62.877   7.859   3.040  1.00  0.00     0.022 A 
HETATM   11  C   UNL     1      63.304   7.339   4.258  1.00  0.00     0.057 A 
BRANCH   9  12
HETATM   12  C   UNL     1      61.989   9.797   1.674  1.00  0.00     0.418 C 
HETATM   13  F   UNL     1      62.024  11.157   1.670  1.00  0.00    -0.166 F 
HETATM   14  F   UNL     1      60.710   9.454   1.363  1.00  0.00    -0.166 F 
HETATM   15  F   UNL     1      62.750   9.402   0.615  1.00  0.00    -0.166 F 
ENDBRANCH   9  12
ENDBRANCH   4   5
ENDBRANCH   3   4
TORSDOF 3
ENDMDL
MODEL 3
REMARK VINA RESULT:      -4.8      1.596      1.832
REMARK  3 active torsions:
REMARK  status: ('A' for Active; 'I' for Inactive)
REMARK    1  A    between atoms: C_1  and  C_2 
REMARK    2  A    between atoms: C_8  and  O_14 
REMARK    3  A    between atoms: O_14  and  C_15 
ROOT
HETATM    1  N   UNL     1      66.694   6.463   9.304  1.00  0.00    -0.195 NA
HETATM    2  C   UNL     1      66.157   6.589   8.280  1.00  0.00     0.085 C 
HETATM    3  C   UNL     1      65.472   6.721   6.983  1.00  0.00     0.300 C 
ENDROOT
BRANCH   3   4
HETATM    4  O   UNL     1      65.703   8.027   6.442  1.00  0.00    -0.322 OA
BRANCH   4   5
HETATM    5  C   UNL     1      64.773   8.369   5.483  1.00  0.00     0.142 A 
HETATM    6  N   UNL     1      64.070   9.512   5.618  1.00  0.00    -0.346 N 
HETATM    7  C   UNL     1      63.152   9.783   4.660  1.00  0.00     0.106 A 
ATOM      8  HN  UNL     1      64.222  10.143   6.404  1.00  0.00     0.167 HD
HETATM    9  C   UNL     1      62.917   8.973   3.558  1.00  0.00     0.063 A 
HETATM   10  C   UNL     1      63.661   7.793   3.455  1.00  0.00     0.022 A 
HETATM   11  C   UNL     1      64.596   7.478   4.437  1.00  0.00     0.057 A 
BRANCH   9  12
HETATM   12  C   UNL     1      61.903   9.358   2.523  1.00  0.00     0.418 C 
HETATM   13  F   UNL     1      61.426  10.624   2.675  1.00  0.00    -0.166 F 
HETATM   14  F   UNL     1      60.814   8.543   2.529  1.00  0.00    -0.166 F 
HETATM   15  F   UNL     1      62.408   9.299   1.260  1.00  0.00    -0.166 F 
ENDBRANCH   9  12
ENDBRANCH   4   5
ENDBRANCH   3   4
TORSDOF 3
ENDMDL
MODEL 4
REMARK VINA RESULT:      -4.8      1.425      2.101
REMARK  3 active torsions:
REMARK  status: ('A' for Active; 'I' for Inactive)
REMARK    1  A    between atoms: C_1  and  C_2 
REMARK    2  A    between atoms: C_8  and  O_14 
REMARK    3  A    between atoms: O_14  and  C_15 
ROOT
HETATM    1  N   UNL     1      65.406   4.762   7.583  1.00  0.00    -0.195 NA
HETATM    2  C   UNL     1      65.338   5.752   6.977  1.00  0.00     0.085 C 
HETATM    3  C   UNL     1      65.279   7.005   6.206  1.00  0.00     0.300 C 
ENDROOT
BRANCH   3   4
HETATM    4  O   UNL     1      64.013   7.643   6.410  1.00  0.00    -0.322 OA
BRANCH   4   5
HETATM    5  C   UNL     1      63.483   8.143   5.240  1.00  0.00     0.142 A 
HETATM    6  N   UNL     1      63.460   7.367   4.137  1.00  0.00    -0.346 N 
HETATM    7  C   UNL     1      62.951   7.919   3.010  1.00  0.00     0.106 A 
ATOM      8  HN  UNL     1      63.809   6.409   4.151  1.00  0.00     0.167 HD
HETATM    9  C   UNL     1      62.443   9.208   2.938  1.00  0.00     0.063 A 
HETATM   10  C   UNL     1      62.488   9.984   4.100  1.00  0.00     0.022 A 
HETATM   11  C   UNL     1      63.026   9.450   5.268  1.00  0.00     0.057 A 
BRANCH   9  12
HETATM   12  C   UNL     1      61.868   9.736   1.659  1.00  0.00     0.418 C 
HETATM   13  F   UNL     1      62.662   9.519   0.575  1.00  0.00    -0.166 F 
HETATM   14  F   UNL     1      61.648  11.078   1.698  1.00  0.00    -0.166 F 
HETATM   15  F   UNL     1      60.667   9.169   1.359  1.00  0.00    -0.166 F 
ENDBRANCH   9  12
ENDBRANCH   4   5
ENDBRANCH   3   4
TORSDOF 3
ENDMDL
MODEL 5
REMARK VINA RESULT:      -4.3      2.858      3.692
REMARK  3 active torsions:
REMARK  status: ('A' for Active; 'I' for Inactive)
REMARK    1  A    between atoms: C_1  and  C_2 
REMARK    2  A    between atoms: C_8  and  O_14 
REMARK    3  A    between atoms: O_14  and  C_15 
ROOT
HETATM    1  N   UNL     1      67.271   3.400   8.854  1.00  0.00    -0.195 NA
HETATM    2  C   UNL     1      66.979   4.524   8.810  1.00  0.00     0.085 C 
HETATM    3  C   UNL     1      66.591   5.945   8.775  1.00  0.00     0.300 C 
ENDROOT
BRANCH   3   4
HETATM    4  O   UNL     1      67.105   6.561   7.589  1.00  0.00    -0.322 OA
BRANCH   4   5
HETATM    5  C   UNL     1      66.105   7.065   6.785  1.00  0.00     0.142 A 
HETATM    6  N   UNL     1      64.816   6.875   7.131  1.00  0.00    -0.346 N 
HETATM    7  C   UNL     1      63.877   7.370   6.291  1.00  0.00     0.106 A 
ATOM      8  HN  UNL     1      64.560   6.381   7.986  1.00  0.00     0.167 HD
HETATM    9  C   UNL     1      64.166   8.067   5.127  1.00  0.00     0.063 A 
HETATM   10  C   UNL     1      65.515   8.241   4.798  1.00  0.00     0.022 A 
HETATM   11  C   UNL     1      66.501   7.723   5.633  1.00  0.00     0.057 A 
BRANCH   9  12
HETATM   12  C   UNL     1      63.068   8.612   4.264  1.00  0.00     0.418 C 
HETATM   13  F   UNL     1      62.833   9.939   4.455  1.00  0.00    -0.166 F 
HETATM   14  F   UNL     1      61.878   7.987   4.475  1.00  0.00    -0.166 F 
HETATM   15  F   UNL     1      63.335   8.468   2.937  1.00  0.00    -0.166 F 
ENDBRANCH   9  12
ENDBRANCH   4   5
ENDBRANCH   3   4
TORSDOF 3
ENDMDL
MODEL 6
REMARK VINA RESULT:      -4.3      1.912      2.278
REMARK  3 active torsions:
REMARK  status: ('A' for Active; 'I' for Inactive)
REMARK    1  A    between atoms: C_1  and  C_2 
REMARK    2  A    between atoms: C_8  and  O_14 
REMARK    3  A    between atoms: O_14  and  C_15 
ROOT
HETATM    1  N   UNL     1      67.333   5.482   4.620  1.00  0.00    -0.195 NA
HETATM    2  C   UNL     1      66.591   5.374   5.508  1.00  0.00     0.085 C 
HETATM    3  C   UNL     1      65.645   5.213   6.625  1.00  0.00     0.300 C 
ENDROOT
BRANCH   3   4
HETATM    4  O   UNL     1      65.359   6.489   7.210  1.00  0.00    -0.322 OA
BRANCH   4   5
HETATM    5  C   UNL     1      64.579   7.278   6.392  1.00  0.00     0.142 A 
HETATM    6  N   UNL     1      65.105   8.395   5.850  1.00  0.00    -0.346 N 
HETATM    7  C   UNL     1      64.285   9.144   5.075  1.00  0.00     0.106 A 
ATOM      8  HN  UNL     1      66.075   8.663   6.015  1.00  0.00     0.167 HD
HETATM    9  C   UNL     1      62.966   8.818   4.798  1.00  0.00     0.063 A 
HETATM   10  C   UNL     1      62.454   7.654   5.382  1.00  0.00     0.022 A 
HETATM   11  C   UNL     1      63.268   6.876   6.200  1.00  0.00     0.057 A 
BRANCH   9  12
HETATM   12  C   UNL     1      62.131   9.684   3.904  1.00  0.00     0.418 C 
HETATM   13  F   UNL     1      60.822   9.312   3.854  1.00  0.00    -0.166 F 
HETATM   14  F   UNL     1      62.570   9.685   2.617  1.00  0.00    -0.166 F 
HETATM   15  F   UNL     1      62.132  10.987   4.301  1.00  0.00    -0.166 F 
ENDBRANCH   9  12
ENDBRANCH   4   5
ENDBRANCH   3   4
TORSDOF 3
ENDMDL
MODEL 7
REMARK VINA RESULT:      -4.1      5.277      6.787
REMARK  3 active torsions:
REMARK  status: ('A' for Active; 'I' for Inactive)
REMARK    1  A    between atoms: C_1  and  C_2 
REMARK    2  A    between atoms: C_8  and  O_14 
REMARK    3  A    between atoms: O_14  and  C_15 
ROOT
HETATM    1  N   UNL     1      66.117  -0.063   7.713  1.00  0.00    -0.195 NA
HETATM    2  C   UNL     1      66.813   0.861   7.828  1.00  0.00     0.085 C 
HETATM    3  C   UNL     1      67.715   2.018   7.963  1.00  0.00     0.300 C 
ENDROOT
BRANCH   3   4
HETATM    4  O   UNL     1      67.122   3.001   8.820  1.00  0.00    -0.322 OA
BRANCH   4   5
HETATM    5  C   UNL     1      67.038   4.238   8.218  1.00  0.00     0.142 A 
HETATM    6  N   UNL     1      66.213   5.172   8.733  1.00  0.00    -0.346 N 
HETATM    7  C   UNL     1      66.152   6.360   8.085  1.00  0.00     0.106 A 
ATOM      8  HN  UNL     1      65.660   4.993   9.570  1.00  0.00     0.167 HD
HETATM    9  C   UNL     1      66.897   6.667   6.955  1.00  0.00     0.063 A 
HETATM   10  C   UNL     1      67.738   5.672   6.448  1.00  0.00     0.022 A 
HETATM   11  C   UNL     1      67.804   4.434   7.081  1.00  0.00     0.057 A 
BRANCH   9  12
HETATM   12  C   UNL     1      66.797   8.018   6.313  1.00  0.00     0.418 C 
HETATM   13  F   UNL     1      67.732   8.232   5.348  1.00  0.00    -0.166 F 
HETATM   14  F   UNL     1      66.940   9.034   7.206  1.00  0.00    -0.166 F 
HETATM   15  F   UNL     1      65.591   8.216   5.713  1.00  0.00    -0.166 F 
ENDBRANCH   9  12
ENDBRANCH   4   5
ENDBRANCH   3   4
TORSDOF 3
ENDMDL
MODEL 8
REMARK VINA RESULT:      -4.0      4.190      5.736
REMARK  3 active torsions:
REMARK  status: ('A' for Active; 'I' for Inactive)
REMARK    1  A    between atoms: C_1  and  C_2 
REMARK    2  A    between atoms: C_8  and  O_14 
REMARK    3  A    between atoms: O_14  and  C_15 
ROOT
HETATM    1  N   UNL     1      59.105   7.142   3.179  1.00  0.00    -0.195 NA
HETATM    2  C   UNL     1      60.093   7.752   3.119  1.00  0.00     0.085 C 
HETATM    3  C   UNL     1      61.331   8.546   3.046  1.00  0.00     0.300 C 
ENDROOT
BRANCH   3   4
HETATM    4  O   UNL     1      62.401   7.737   2.544  1.00  0.00    -0.322 OA
BRANCH   4   5
HETATM    5  C   UNL     1      63.505   7.758   3.368  1.00  0.00     0.142 A 
HETATM    6  N   UNL     1      64.452   6.808   3.233  1.00  0.00    -0.346 N 
HETATM    7  C   UNL     1      65.502   6.863   4.087  1.00  0.00     0.106 A 
ATOM      8  HN  UNL     1      64.383   6.082   2.520  1.00  0.00     0.167 HD
HETATM    9  C   UNL     1      65.660   7.839   5.060  1.00  0.00     0.063 A 
HETATM   10  C   UNL     1      64.654   8.805   5.174  1.00  0.00     0.022 A 
HETATM   11  C   UNL     1      63.554   8.759   4.324  1.00  0.00     0.057 A 
BRANCH   9  12
HETATM   12  C   UNL     1      66.867   7.850   5.949  1.00  0.00     0.418 C 
HETATM   13  F   UNL     1      66.842   8.833   6.889  1.00  0.00    -0.166 F 
HETATM   14  F   UNL     1      68.026   8.023   5.256  1.00  0.00    -0.166 F 
HETATM   15  F   UNL     1      67.014   6.682   6.634  1.00  0.00    -0.166 F 
ENDBRANCH   9  12
ENDBRANCH   4   5
ENDBRANCH   3   4
TORSDOF 3
ENDMDL
MODEL 9
REMARK VINA RESULT:      -3.9     12.574     13.784
REMARK  3 active torsions:
REMARK  status: ('A' for Active; 'I' for Inactive)
REMARK    1  A    between atoms: C_1  and  C_2 
REMARK    2  A    between atoms: C_8  and  O_14 
REMARK    3  A    between atoms: O_14  and  C_15 
ROOT
HETATM    1  N   UNL     1      53.487   4.508  12.292  1.00  0.00    -0.195 NA
HETATM    2  C   UNL     1      54.028   3.558  12.686  1.00  0.00     0.085 C 
HETATM    3  C   UNL     1      54.693   2.339  13.178  1.00  0.00     0.300 C 
ENDROOT
BRANCH   3   4
HETATM    4  O   UNL     1      55.830   2.692  13.975  1.00  0.00    -0.322 OA
BRANCH   4   5
HETATM    5  C   UNL     1      56.948   1.955  13.648  1.00  0.00     0.142 A 
HETATM    6  N   UNL     1      57.359   0.971  14.474  1.00  0.00    -0.346 N 
HETATM    7  C   UNL     1      58.477   0.297  14.115  1.00  0.00     0.106 A 
ATOM      8  HN  UNL     1      56.851   0.745  15.329  1.00  0.00     0.167 HD
HETATM    9  C   UNL     1      59.195   0.547  12.954  1.00  0.00     0.063 A 
HETATM   10  C   UNL     1      58.741   1.578  12.125  1.00  0.00     0.022 A 
HETATM   11  C   UNL     1      57.607   2.302  12.481  1.00  0.00     0.057 A 
BRANCH   9  12
HETATM   12  C   UNL     1      60.408  -0.265  12.612  1.00  0.00     0.418 C 
HETATM   13  F   UNL     1      60.416  -1.499  13.186  1.00  0.00    -0.166 F 
HETATM   14  F   UNL     1      61.566   0.336  12.997  1.00  0.00    -0.166 F 
HETATM   15  F   UNL     1      60.525  -0.477  11.272  1.00  0.00    -0.166 F 
ENDBRANCH   9  12
ENDBRANCH   4   5
ENDBRANCH   3   4
TORSDOF 3
ENDMDL
