MODEL 1
REMARK VINA RESULT:      -4.9      0.000      0.000
REMARK  5 active torsions:
REMARK  status: ('A' for Active; 'I' for Inactive)
REMARK    1  A    between atoms: C_1  and  C_7 
REMARK    2  A    between atoms: C_2  and  C_6 
REMARK    3  A    between atoms: C_3  and  N_13 
REMARK    4  A    between atoms: C_7  and  O_14 
REMARK    5  A    between atoms: O_14  and  C_15 
ROOT
HETATM    1  C   UNL     1      63.371   9.122   4.922  1.00  0.00     0.084 A 
HETATM    2  C   UNL     1      62.829   8.574   3.695  1.00  0.00     0.007 A 
HETATM    3  C   UNL     1      62.969  10.441   5.099  1.00  0.00     0.085 A 
HETATM    4  C   UNL     1      62.133   9.522   2.973  1.00  0.00     0.065 A 
HETATM    5  S   UNL     1      62.010  11.005   3.800  1.00  0.00    -0.083 SA
ENDROOT
BRANCH   1   6
HETATM    6  C   UNL     1      64.308   8.445   5.812  1.00  0.00     0.297 C 
HETATM    7  O   UNL     1      64.011   7.463   6.484  1.00  0.00    -0.259 OA
BRANCH   6   8
HETATM    8  O   UNL     1      65.550   9.024   5.842  1.00  0.00    -0.318 OA
BRANCH   8   9
HETATM    9  C   UNL     1      66.623   8.135   6.188  1.00  0.00     0.174 C 
HETATM   10  C   UNL     1      67.387   7.708   4.947  1.00  0.00     0.034 C 
ENDBRANCH   8   9
ENDBRANCH   6   8
ENDBRANCH   1   6
BRANCH   2  11
HETATM   11  C   UNL     1      62.977   7.157   3.195  1.00  0.00     0.016 A 
HETATM   12  S   UNL     1      61.681   6.043   3.069  1.00  0.00    -0.101 SA
HETATM   13  C   UNL     1      62.683   4.851   2.361  1.00  0.00     0.050 A 
HETATM   14  C   UNL     1      63.998   5.253   2.309  1.00  0.00     0.008 A 
HETATM   15  C   UNL     1      64.169   6.579   2.803  1.00  0.00     0.020 A 
ENDBRANCH   2  11
BRANCH   3  16
HETATM   16  N   UNL     1      63.278  11.288   6.105  1.00  0.00    -0.393 N 
HETATM   17  H   UNL     1      63.774  12.117   5.915  1.00  0.00     0.156 HD
HETATM   18  H   UNL     1      63.007  11.077   7.028  1.00  0.00     0.156 HD
ENDBRANCH   3  16
TORSDOF 5
ENDMDL
MODEL 2
REMARK VINA RESULT:      -4.7      2.464      3.727
REMARK  5 active torsions:
REMARK  status: ('A' for Active; 'I' for Inactive)
REMARK    1  A    between atoms: C_1  and  C_7 
REMARK    2  A    between atoms: C_2  and  C_6 
REMARK    3  A    between atoms: C_3  and  N_13 
REMARK    4  A    between atoms: C_7  and  O_14 
REMARK    5  A    between atoms: O_14  and  C_15 
ROOT
HETATM    1  C   UNL     1      63.617   7.604   5.207  1.00  0.00     0.084 A 
HETATM    2  C   UNL     1      62.389   7.981   4.535  1.00  0.00     0.007 A 
HETATM    3  C   UNL     1      63.466   6.398   5.881  1.00  0.00     0.085 A 
HETATM    4  C   UNL     1      61.362   7.102   4.810  1.00  0.00     0.065 A 
HETATM    5  S   UNL     1      61.879   5.774   5.743  1.00  0.00    -0.083 SA
ENDROOT
BRANCH   1   6
HETATM    6  C   UNL     1      64.827   8.415   5.279  1.00  0.00     0.297 C 
HETATM    7  O   UNL     1      64.869   9.519   5.812  1.00  0.00    -0.259 OA
BRANCH   6   8
HETATM    8  O   UNL     1      65.912   7.835   4.675  1.00  0.00    -0.318 OA
BRANCH   8   9
HETATM    9  C   UNL     1      67.155   8.004   5.373  1.00  0.00     0.174 C 
HETATM   10  C   UNL     1      67.701   6.661   5.828  1.00  0.00     0.034 C 
ENDBRANCH   8   9
ENDBRANCH   6   8
ENDBRANCH   1   6
BRANCH   2  11
HETATM   11  C   UNL     1      62.179   9.179   3.641  1.00  0.00     0.016 A 
HETATM   12  S   UNL     1      62.068   9.096   1.933  1.00  0.00    -0.101 SA
HETATM   13  C   UNL     1      61.740  10.770   1.803  1.00  0.00     0.050 A 
HETATM   14  C   UNL     1      61.809  11.401   3.024  1.00  0.00     0.008 A 
HETATM   15  C   UNL     1      62.076  10.484   4.082  1.00  0.00     0.020 A 
ENDBRANCH   2  11
BRANCH   3  16
HETATM   16  N   UNL     1      64.371   5.732   6.630  1.00  0.00    -0.393 N 
HETATM   17  H   UNL     1      65.171   5.345   6.208  1.00  0.00     0.156 HD
HETATM   18  H   UNL     1      64.231   5.634   7.600  1.00  0.00     0.156 HD
ENDBRANCH   3  16
TORSDOF 5
ENDMDL
MODEL 3
REMARK VINA RESULT:      -4.6      2.183      3.659
REMARK  5 active torsions:
REMARK  status: ('A' for Active; 'I' for Inactive)
REMARK    1  A    between atoms: C_1  and  C_7 
REMARK    2  A    between atoms: C_2  and  C_6 
REMARK    3  A    between atoms: C_3  and  N_13 
REMARK    4  A    between atoms: C_7  and  O_14 
REMARK    5  A    between atoms: O_14  and  C_15 
ROOT
HETATM    1  C   UNL     1      64.418   7.818   4.717  1.00  0.00     0.084 A 
HETATM    2  C   UNL     1      63.907   7.210   3.504  1.00  0.00     0.007 A 
HETATM    3  C   UNL     1      65.696   7.356   5.006  1.00  0.00     0.085 A 
HETATM    4  C   UNL     1      64.775   6.264   2.999  1.00  0.00     0.065 A 
HETATM    5  S   UNL     1      66.234   6.192   3.874  1.00  0.00    -0.083 SA
ENDROOT
BRANCH   1   6
HETATM    6  C   UNL     1      63.671   8.709   5.598  1.00  0.00     0.297 C 
HETATM    7  O   UNL     1      62.786   8.324   6.354  1.00  0.00    -0.259 OA
BRANCH   6   8
HETATM    8  O   UNL     1      64.037  10.025   5.485  1.00  0.00    -0.318 OA
BRANCH   8   9
HETATM    9  C   UNL     1      62.950  10.962   5.533  1.00  0.00     0.174 C 
HETATM   10  C   UNL     1      62.219  11.002   4.202  1.00  0.00     0.034 C 
ENDBRANCH   8   9
ENDBRANCH   6   8
ENDBRANCH   1   6
BRANCH   2  11
HETATM   11  C   UNL     1      62.592   7.511   2.826  1.00  0.00     0.016 A 
HETATM   12  S   UNL     1      61.077   6.916   3.361  1.00  0.00    -0.101 SA
HETATM   13  C   UNL     1      60.231   7.797   2.163  1.00  0.00     0.050 A 
HETATM   14  C   UNL     1      61.087   8.455   1.310  1.00  0.00     0.008 A 
HETATM   15  C   UNL     1      62.450   8.278   1.686  1.00  0.00     0.020 A 
ENDBRANCH   2  11
BRANCH   3  16
HETATM   16  N   UNL     1      66.491   7.674   6.051  1.00  0.00    -0.393 N 
HETATM   17  H   UNL     1      66.462   7.134   6.874  1.00  0.00     0.156 HD
HETATM   18  H   UNL     1      67.100   8.445   5.990  1.00  0.00     0.156 HD
ENDBRANCH   3  16
TORSDOF 5
ENDMDL
MODEL 4
REMARK VINA RESULT:      -4.5      1.359      1.843
REMARK  5 active torsions:
REMARK  status: ('A' for Active; 'I' for Inactive)
REMARK    1  A    between atoms: C_1  and  C_7 
REMARK    2  A    between atoms: C_2  and  C_6 
REMARK    3  A    between atoms: C_3  and  N_13 
REMARK    4  A    between atoms: C_7  and  O_14 
REMARK    5  A    between atoms: O_14  and  C_15 
ROOT
HETATM    1  C   UNL     1      63.487   9.045   4.981  1.00  0.00     0.084 A 
HETATM    2  C   UNL     1      62.719   8.406   3.931  1.00  0.00     0.007 A 
HETATM    3  C   UNL     1      63.132  10.382   5.116  1.00  0.00     0.085 A 
HETATM    4  C   UNL     1      61.903   9.303   3.274  1.00  0.00     0.065 A 
HETATM    5  S   UNL     1      61.945  10.853   3.977  1.00  0.00    -0.083 SA
ENDROOT
BRANCH   1   6
HETATM    6  C   UNL     1      64.573   8.426   5.734  1.00  0.00     0.297 C 
HETATM    7  O   UNL     1      65.757   8.686   5.548  1.00  0.00    -0.259 OA
BRANCH   6   8
HETATM    8  O   UNL     1      64.146   7.506   6.656  1.00  0.00    -0.318 OA
BRANCH   8   9
HETATM    9  C   UNL     1      65.014   6.377   6.832  1.00  0.00     0.174 C 
HETATM   10  C   UNL     1      64.307   5.092   6.438  1.00  0.00     0.034 C 
ENDBRANCH   8   9
ENDBRANCH   6   8
ENDBRANCH   1   6
BRANCH   2  11
HETATM   11  C   UNL     1      62.763   6.949   3.538  1.00  0.00     0.016 A 
HETATM   12  S   UNL     1      64.051   6.228   2.668  1.00  0.00    -0.101 SA
HETATM   13  C   UNL     1      63.348   4.673   2.780  1.00  0.00     0.050 A 
HETATM   14  C   UNL     1      62.110   4.712   3.381  1.00  0.00     0.008 A 
HETATM   15  C   UNL     1      61.768   6.029   3.806  1.00  0.00     0.020 A 
ENDBRANCH   2  11
BRANCH   3  16
HETATM   16  N   UNL     1      63.629  11.305   5.967  1.00  0.00    -0.393 N 
HETATM   17  H   UNL     1      63.506  11.198   6.938  1.00  0.00     0.156 HD
HETATM   18  H   UNL     1      64.117  12.086   5.617  1.00  0.00     0.156 HD
ENDBRANCH   3  16
TORSDOF 5
ENDMDL
MODEL 5
REMARK VINA RESULT:      -4.3      2.591      4.331
REMARK  5 active torsions:
REMARK  status: ('A' for Active; 'I' for Inactive)
REMARK    1  A    between atoms: C_1  and  C_7 
REMARK    2  A    between atoms: C_2  and  C_6 
REMARK    3  A    between atoms: C_3  and  N_13 
REMARK    4  A    between atoms: C_7  and  O_14 
REMARK    5  A    between atoms: O_14  and  C_15 
ROOT
HETATM    1  C   UNL     1      62.718   8.667   3.395  1.00  0.00     0.084 A 
HETATM    2  C   UNL     1      63.354   8.960   4.664  1.00  0.00     0.007 A 
HETATM    3  C   UNL     1      61.995   9.761   2.935  1.00  0.00     0.085 A 
HETATM    4  C   UNL     1      63.007  10.209   5.135  1.00  0.00     0.065 A 
HETATM    5  S   UNL     1      62.049  11.076   4.027  1.00  0.00    -0.083 SA
ENDROOT
BRANCH   1   6
HETATM    6  C   UNL     1      62.722   7.371   2.724  1.00  0.00     0.297 C 
HETATM    7  O   UNL     1      63.746   6.802   2.361  1.00  0.00    -0.259 OA
BRANCH   6   8
HETATM    8  O   UNL     1      61.468   6.857   2.518  1.00  0.00    -0.318 OA
BRANCH   8   9
HETATM    9  C   UNL     1      60.822   6.349   3.695  1.00  0.00     0.174 C 
HETATM   10  C   UNL     1      59.454   6.985   3.873  1.00  0.00     0.034 C 
ENDBRANCH   8   9
ENDBRANCH   6   8
ENDBRANCH   1   6
BRANCH   2  11
HETATM   11  C   UNL     1      64.280   8.056   5.441  1.00  0.00     0.016 A 
HETATM   12  S   UNL     1      63.761   6.695   6.344  1.00  0.00    -0.101 SA
HETATM   13  C   UNL     1      65.367   6.258   6.740  1.00  0.00     0.050 A 
HETATM   14  C   UNL     1      66.277   7.181   6.279  1.00  0.00     0.008 A 
HETATM   15  C   UNL     1      65.648   8.225   5.541  1.00  0.00     0.020 A 
ENDBRANCH   2  11
BRANCH   3  16
HETATM   16  N   UNL     1      61.260   9.871   1.808  1.00  0.00    -0.393 N 
HETATM   17  H   UNL     1      61.618   9.544   0.951  1.00  0.00     0.156 HD
HETATM   18  H   UNL     1      60.364  10.280   1.842  1.00  0.00     0.156 HD
ENDBRANCH   3  16
TORSDOF 5
ENDMDL
MODEL 6
REMARK VINA RESULT:      -4.2      3.115      4.535
REMARK  5 active torsions:
REMARK  status: ('A' for Active; 'I' for Inactive)
REMARK    1  A    between atoms: C_1  and  C_7 
REMARK    2  A    between atoms: C_2  and  C_6 
REMARK    3  A    between atoms: C_3  and  N_13 
REMARK    4  A    between atoms: C_7  and  O_14 
REMARK    5  A    between atoms: O_14  and  C_15 
ROOT
HETATM    1  C   UNL     1      61.051   8.155   2.612  1.00  0.00     0.084 A 
HETATM    2  C   UNL     1      61.712   7.046   3.272  1.00  0.00     0.007 A 
HETATM    3  C   UNL     1      60.006   7.709   1.813  1.00  0.00     0.085 A 
HETATM    4  C   UNL     1      61.199   5.831   2.869  1.00  0.00     0.065 A 
HETATM    5  S   UNL     1      59.865   6.004   1.826  1.00  0.00    -0.083 SA
ENDROOT
BRANCH   1   6
HETATM    6  C   UNL     1      61.475   9.550   2.669  1.00  0.00     0.297 C 
HETATM    7  O   UNL     1      61.975  10.143   1.719  1.00  0.00    -0.259 OA
BRANCH   6   8
HETATM    8  O   UNL     1      61.283  10.132   3.896  1.00  0.00    -0.318 OA
BRANCH   8   9
HETATM    9  C   UNL     1      62.217  11.171   4.226  1.00  0.00     0.174 C 
HETATM   10  C   UNL     1      62.955  10.839   5.511  1.00  0.00     0.034 C 
ENDBRANCH   8   9
ENDBRANCH   6   8
ENDBRANCH   1   6
BRANCH   2  11
HETATM   11  C   UNL     1      62.837   7.132   4.274  1.00  0.00     0.016 A 
HETATM   12  S   UNL     1      62.641   6.894   5.960  1.00  0.00    -0.101 SA
HETATM   13  C   UNL     1      64.321   7.049   6.246  1.00  0.00     0.050 A 
HETATM   14  C   UNL     1      65.009   7.373   5.099  1.00  0.00     0.008 A 
HETATM   15  C   UNL     1      64.149   7.433   3.964  1.00  0.00     0.020 A 
ENDBRANCH   2  11
BRANCH   3  16
HETATM   16  N   UNL     1      59.171   8.432   1.035  1.00  0.00    -0.393 N 
HETATM   17  H   UNL     1      58.386   8.874   1.432  1.00  0.00     0.156 HD
HETATM   18  H   UNL     1      59.347   8.517   0.070  1.00  0.00     0.156 HD
ENDBRANCH   3  16
TORSDOF 5
ENDMDL
MODEL 7
REMARK VINA RESULT:      -4.2      3.327      5.026
REMARK  5 active torsions:
REMARK  status: ('A' for Active; 'I' for Inactive)
REMARK    1  A    between atoms: C_1  and  C_7 
REMARK    2  A    between atoms: C_2  and  C_6 
REMARK    3  A    between atoms: C_3  and  N_13 
REMARK    4  A    between atoms: C_7  and  O_14 
REMARK    5  A    between atoms: O_14  and  C_15 
ROOT
HETATM    1  C   UNL     1      63.987   6.727   6.056  1.00  0.00     0.084 A 
HETATM    2  C   UNL     1      64.368   7.995   5.465  1.00  0.00     0.007 A 
HETATM    3  C   UNL     1      65.059   6.146   6.722  1.00  0.00     0.085 A 
HETATM    4  C   UNL     1      65.712   8.256   5.632  1.00  0.00     0.065 A 
HETATM    5  S   UNL     1      66.486   7.081   6.591  1.00  0.00    -0.083 SA
ENDROOT
BRANCH   1   6
HETATM    6  C   UNL     1      62.694   6.070   5.894  1.00  0.00     0.297 C 
HETATM    7  O   UNL     1      62.467   5.233   5.028  1.00  0.00    -0.259 OA
BRANCH   6   8
HETATM    8  O   UNL     1      61.748   6.494   6.791  1.00  0.00    -0.318 OA
BRANCH   8   9
HETATM    9  C   UNL     1      60.437   5.943   6.593  1.00  0.00     0.174 C 
HETATM   10  C   UNL     1      59.690   5.851   7.911  1.00  0.00     0.034 C 
ENDBRANCH   8   9
ENDBRANCH   6   8
ENDBRANCH   1   6
BRANCH   2  11
HETATM   11  C   UNL     1      63.466   8.956   4.730  1.00  0.00     0.016 A 
HETATM   12  S   UNL     1      62.793   8.651   3.183  1.00  0.00    -0.101 SA
HETATM   13  C   UNL     1      61.897  10.109   3.209  1.00  0.00     0.050 A 
HETATM   14  C   UNL     1      62.177  10.862   4.326  1.00  0.00     0.008 A 
HETATM   15  C   UNL     1      63.092  10.202   5.197  1.00  0.00     0.020 A 
ENDBRANCH   2  11
BRANCH   3  16
HETATM   16  N   UNL     1      65.104   4.967   7.380  1.00  0.00    -0.393 N 
HETATM   17  H   UNL     1      65.540   4.187   6.965  1.00  0.00     0.156 HD
HETATM   18  H   UNL     1      64.701   4.886   8.275  1.00  0.00     0.156 HD
ENDBRANCH   3  16
TORSDOF 5
ENDMDL
MODEL 8
REMARK VINA RESULT:      -4.2      2.424      3.754
REMARK  5 active torsions:
REMARK  status: ('A' for Active; 'I' for Inactive)
REMARK    1  A    between atoms: C_1  and  C_7 
REMARK    2  A    between atoms: C_2  and  C_6 
REMARK    3  A    between atoms: C_3  and  N_13 
REMARK    4  A    between atoms: C_7  and  O_14 
REMARK    5  A    between atoms: O_14  and  C_15 
ROOT
HETATM    1  C   UNL     1      62.634   8.489   3.328  1.00  0.00     0.084 A 
HETATM    2  C   UNL     1      63.281   8.889   4.563  1.00  0.00     0.007 A 
HETATM    3  C   UNL     1      61.903   9.538   2.786  1.00  0.00     0.085 A 
HETATM    4  C   UNL     1      62.933  10.172   4.932  1.00  0.00     0.065 A 
HETATM    5  S   UNL     1      61.960  10.941   3.765  1.00  0.00    -0.083 SA
ENDROOT
BRANCH   1   6
HETATM    6  C   UNL     1      62.638   7.142   2.768  1.00  0.00     0.297 C 
HETATM    7  O   UNL     1      61.642   6.428   2.720  1.00  0.00    -0.259 OA
BRANCH   6   8
HETATM    8  O   UNL     1      63.868   6.740   2.316  1.00  0.00    -0.318 OA
BRANCH   8   9
HETATM    9  C   UNL     1      64.238   5.402   2.680  1.00  0.00     0.174 C 
HETATM   10  C   UNL     1      65.674   5.358   3.173  1.00  0.00     0.034 C 
ENDBRANCH   8   9
ENDBRANCH   6   8
ENDBRANCH   1   6
BRANCH   2  11
HETATM   11  C   UNL     1      64.219   8.056   5.403  1.00  0.00     0.016 A 
HETATM   12  S   UNL     1      63.727   6.711   6.344  1.00  0.00    -0.101 SA
HETATM   13  C   UNL     1      65.337   6.359   6.805  1.00  0.00     0.050 A 
HETATM   14  C   UNL     1      66.222   7.300   6.334  1.00  0.00     0.008 A 
HETATM   15  C   UNL     1      65.574   8.287   5.536  1.00  0.00     0.020 A 
ENDBRANCH   2  11
BRANCH   3  16
HETATM   16  N   UNL     1      61.156   9.553   1.661  1.00  0.00    -0.393 N 
HETATM   17  H   UNL     1      60.548  10.306   1.482  1.00  0.00     0.156 HD
HETATM   18  H   UNL     1      61.218   8.809   1.018  1.00  0.00     0.156 HD
ENDBRANCH   3  16
TORSDOF 5
ENDMDL
MODEL 9
REMARK VINA RESULT:      -4.2      3.005      4.389
REMARK  5 active torsions:
REMARK  status: ('A' for Active; 'I' for Inactive)
REMARK    1  A    between atoms: C_1  and  C_7 
REMARK    2  A    between atoms: C_2  and  C_6 
REMARK    3  A    between atoms: C_3  and  N_13 
REMARK    4  A    between atoms: C_7  and  O_14 
REMARK    5  A    between atoms: O_14  and  C_15 
ROOT
HETATM    1  C   UNL     1      65.184   7.367   5.947  1.00  0.00     0.084 A 
HETATM    2  C   UNL     1      64.384   6.200   6.262  1.00  0.00     0.007 A 
HETATM    3  C   UNL     1      66.466   7.248   6.468  1.00  0.00     0.085 A 
HETATM    4  C   UNL     1      65.065   5.315   7.072  1.00  0.00     0.065 A 
HETATM    5  S   UNL     1      66.675   5.795   7.348  1.00  0.00    -0.083 SA
ENDROOT
BRANCH   1   6
HETATM    6  C   UNL     1      64.701   8.569   5.276  1.00  0.00     0.297 C 
HETATM    7  O   UNL     1      64.764   9.690   5.770  1.00  0.00    -0.259 OA
BRANCH   6   8
HETATM    8  O   UNL     1      64.149   8.325   4.045  1.00  0.00    -0.318 OA
BRANCH   8   9
HETATM    9  C   UNL     1      62.933   9.040   3.775  1.00  0.00     0.174 C 
HETATM   10  C   UNL     1      62.054   8.258   2.815  1.00  0.00     0.034 C 
ENDBRANCH   8   9
ENDBRANCH   6   8
ENDBRANCH   1   6
BRANCH   2  11
HETATM   11  C   UNL     1      62.971   5.923   5.808  1.00  0.00     0.016 A 
HETATM   12  S   UNL     1      62.564   4.857   4.529  1.00  0.00    -0.101 SA
HETATM   13  C   UNL     1      60.888   5.069   4.794  1.00  0.00     0.050 A 
HETATM   14  C   UNL     1      60.637   6.005   5.771  1.00  0.00     0.008 A 
HETATM   15  C   UNL     1      61.841   6.508   6.346  1.00  0.00     0.020 A 
ENDBRANCH   2  11
BRANCH   3  16
HETATM   16  N   UNL     1      67.489   8.127   6.400  1.00  0.00    -0.393 N 
HETATM   17  H   UNL     1      67.969   8.390   7.219  1.00  0.00     0.156 HD
HETATM   18  H   UNL     1      67.756   8.507   5.531  1.00  0.00     0.156 HD
ENDBRANCH   3  16
TORSDOF 5
ENDMDL
