MODEL 1
REMARK VINA RESULT:      -4.9      0.000      0.000
REMARK  1 active torsions:
REMARK  status: ('A' for Active; 'I' for Inactive)
REMARK    1  A    between atoms: C_2  and  N_11 
ROOT
HETATM    1  C   UNL     1      62.395   9.346   3.345  1.00  0.00     0.085 A 
HETATM    2  C   UNL     1      61.690   8.684   2.357  1.00  0.00     0.089 A 
HETATM    3  C   UNL     1      63.399   8.522   3.942  1.00  0.00    -0.018 A 
HETATM    4  C   UNL     1      63.398   7.249   3.406  1.00  0.00     0.018 A 
HETATM    5  S   UNL     1      62.245   7.069   2.170  1.00  0.00    -0.074 SA
HETATM    6  C   UNL     1      62.132  10.702   3.724  1.00  0.00     0.103 C 
HETATM    7  N   UNL     1      61.923  11.797   4.043  1.00  0.00    -0.191 NA
HETATM    8  N   UNL     1      64.977   6.413   5.127  1.00  0.00    -0.070 N 
HETATM    9  C   UNL     1      64.323   6.138   3.824  1.00  0.00     0.281 C 
HETATM   10  C   UNL     1      64.349   8.882   5.047  1.00  0.00     0.069 C 
HETATM   11  C   UNL     1      65.457   7.813   5.185  1.00  0.00     0.239 C 
HETATM   12  C   UNL     1      64.086   6.100   6.246  1.00  0.00     0.270 C 
HETATM   13  H   UNL     1      65.789   5.802   5.212  1.00  0.00     0.279 HD
ENDROOT
BRANCH   2  14
HETATM   14  N   UNL     1      60.686   9.149   1.585  1.00  0.00    -0.392 N 
HETATM   15  H   UNL     1      60.424  10.096   1.637  1.00  0.00     0.156 HD
HETATM   16  H   UNL     1      60.216   8.541   0.970  1.00  0.00     0.156 HD
ENDBRANCH   2  14
TORSDOF 1
ENDMDL
MODEL 2
REMARK VINA RESULT:      -4.9      1.868      4.111
REMARK  1 active torsions:
REMARK  status: ('A' for Active; 'I' for Inactive)
REMARK    1  A    between atoms: C_2  and  N_11 
ROOT
HETATM    1  C   UNL     1      63.743   9.126   4.781  1.00  0.00     0.085 A 
HETATM    2  C   UNL     1      63.177  10.359   5.049  1.00  0.00     0.089 A 
HETATM    3  C   UNL     1      63.174   8.506   3.625  1.00  0.00    -0.018 A 
HETATM    4  C   UNL     1      62.170   9.279   3.076  1.00  0.00     0.018 A 
HETATM    5  S   UNL     1      61.955  10.746   3.905  1.00  0.00    -0.074 SA
HETATM    6  C   UNL     1      64.777   8.544   5.584  1.00  0.00     0.103 C 
HETATM    7  N   UNL     1      65.610   8.062   6.231  1.00  0.00    -0.191 NA
HETATM    8  N   UNL     1      61.478   7.463   1.534  1.00  0.00    -0.070 N 
HETATM    9  C   UNL     1      61.363   8.905   1.862  1.00  0.00     0.281 C 
HETATM   10  C   UNL     1      63.518   7.171   3.033  1.00  0.00     0.069 C 
HETATM   11  C   UNL     1      62.886   7.016   1.631  1.00  0.00     0.239 C 
HETATM   12  C   UNL     1      60.594   6.654   2.375  1.00  0.00     0.270 C 
HETATM   13  H   UNL     1      61.175   7.330   0.569  1.00  0.00     0.279 HD
ENDROOT
BRANCH   2  14
HETATM   14  N   UNL     1      63.470  11.219   6.046  1.00  0.00    -0.392 N 
HETATM   15  H   UNL     1      62.744  11.666   6.539  1.00  0.00     0.156 HD
HETATM   16  H   UNL     1      64.408  11.399   6.281  1.00  0.00     0.156 HD
ENDBRANCH   2  14
TORSDOF 1
ENDMDL
MODEL 3
REMARK VINA RESULT:      -4.5      1.724      2.155
REMARK  1 active torsions:
REMARK  status: ('A' for Active; 'I' for Inactive)
REMARK    1  A    between atoms: C_2  and  N_11 
ROOT
HETATM    1  C   UNL     1      62.662   9.783   3.871  1.00  0.00     0.085 A 
HETATM    2  C   UNL     1      62.067  10.328   2.748  1.00  0.00     0.089 A 
HETATM    3  C   UNL     1      63.052   8.422   3.674  1.00  0.00    -0.018 A 
HETATM    4  C   UNL     1      62.705   7.971   2.415  1.00  0.00     0.018 A 
HETATM    5  S   UNL     1      61.975   9.181   1.473  1.00  0.00    -0.074 SA
HETATM    6  C   UNL     1      62.854  10.510   5.091  1.00  0.00     0.103 C 
HETATM    7  N   UNL     1      63.009  11.087   6.084  1.00  0.00    -0.191 NA
HETATM    8  N   UNL     1      63.274   5.625   2.989  1.00  0.00    -0.070 N 
HETATM    9  C   UNL     1      62.962   6.581   1.897  1.00  0.00     0.281 C 
HETATM   10  C   UNL     1      63.711   7.500   4.658  1.00  0.00     0.069 C 
HETATM   11  C   UNL     1      64.225   6.224   3.953  1.00  0.00     0.239 C 
HETATM   12  C   UNL     1      62.054   5.157   3.650  1.00  0.00     0.270 C 
HETATM   13  H   UNL     1      63.722   4.807   2.577  1.00  0.00     0.279 HD
ENDROOT
BRANCH   2  14
HETATM   14  N   UNL     1      61.588  11.577   2.574  1.00  0.00    -0.392 N 
HETATM   15  H   UNL     1      61.343  12.124   3.354  1.00  0.00     0.156 HD
HETATM   16  H   UNL     1      61.483  11.941   1.665  1.00  0.00     0.156 HD
ENDBRANCH   2  14
TORSDOF 1
ENDMDL
MODEL 4
REMARK VINA RESULT:      -4.5      2.342      3.342
REMARK  1 active torsions:
REMARK  status: ('A' for Active; 'I' for Inactive)
REMARK    1  A    between atoms: C_2  and  N_11 
ROOT
HETATM    1  C   UNL     1      62.287   9.927   3.637  1.00  0.00     0.085 A 
HETATM    2  C   UNL     1      62.797   9.955   4.922  1.00  0.00     0.089 A 
HETATM    3  C   UNL     1      62.106   8.595   3.152  1.00  0.00    -0.018 A 
HETATM    4  C   UNL     1      62.519   7.656   4.078  1.00  0.00     0.018 A 
HETATM    5  S   UNL     1      63.063   8.367   5.522  1.00  0.00    -0.074 SA
HETATM    6  C   UNL     1      61.985  11.109   2.885  1.00  0.00     0.103 C 
HETATM    7  N   UNL     1      61.744  12.059   2.266  1.00  0.00    -0.191 NA
HETATM    8  N   UNL     1      62.306   5.803   2.442  1.00  0.00    -0.070 N 
HETATM    9  C   UNL     1      62.474   6.166   3.871  1.00  0.00     0.281 C 
HETATM   10  C   UNL     1      61.590   8.166   1.811  1.00  0.00     0.069 C 
HETATM   11  C   UNL     1      61.274   6.652   1.806  1.00  0.00     0.239 C 
HETATM   12  C   UNL     1      63.580   5.868   1.724  1.00  0.00     0.270 C 
HETATM   13  H   UNL     1      61.986   4.836   2.395  1.00  0.00     0.279 HD
ENDROOT
BRANCH   2  14
HETATM   14  N   UNL     1      63.085  11.027   5.690  1.00  0.00    -0.392 N 
HETATM   15  H   UNL     1      62.360  11.525   6.131  1.00  0.00     0.156 HD
HETATM   16  H   UNL     1      64.020  11.310   5.808  1.00  0.00     0.156 HD
ENDBRANCH   2  14
TORSDOF 1
ENDMDL
MODEL 5
REMARK VINA RESULT:      -4.5      1.473      4.309
REMARK  1 active torsions:
REMARK  status: ('A' for Active; 'I' for Inactive)
REMARK    1  A    between atoms: C_2  and  N_11 
ROOT
HETATM    1  C   UNL     1      64.702   7.762   4.466  1.00  0.00     0.085 A 
HETATM    2  C   UNL     1      64.983   6.598   3.774  1.00  0.00     0.089 A 
HETATM    3  C   UNL     1      63.504   8.392   4.009  1.00  0.00    -0.018 A 
HETATM    4  C   UNL     1      62.934   7.698   2.958  1.00  0.00     0.018 A 
HETATM    5  S   UNL     1      63.799   6.288   2.569  1.00  0.00    -0.074 SA
HETATM    6  C   UNL     1      65.533   8.272   5.517  1.00  0.00     0.103 C 
HETATM    7  N   UNL     1      66.201   8.696   6.364  1.00  0.00    -0.191 NA
HETATM    8  N   UNL     1      61.307   9.516   2.508  1.00  0.00    -0.070 N 
HETATM    9  C   UNL     1      61.674   8.103   2.242  1.00  0.00     0.281 C 
HETATM   10  C   UNL     1      62.886   9.667   4.503  1.00  0.00     0.069 C 
HETATM   11  C   UNL     1      61.453   9.831   3.948  1.00  0.00     0.239 C 
HETATM   12  C   UNL     1      62.082  10.434   1.672  1.00  0.00     0.270 C 
HETATM   13  H   UNL     1      60.326   9.643   2.260  1.00  0.00     0.279 HD
ENDROOT
BRANCH   2  14
HETATM   14  N   UNL     1      66.019   5.750   3.941  1.00  0.00    -0.392 N 
HETATM   15  H   UNL     1      66.462   5.354   3.157  1.00  0.00     0.156 HD
HETATM   16  H   UNL     1      66.331   5.527   4.848  1.00  0.00     0.156 HD
ENDBRANCH   2  14
TORSDOF 1
ENDMDL
MODEL 6
REMARK VINA RESULT:      -4.5      1.788      3.975
REMARK  1 active torsions:
REMARK  status: ('A' for Active; 'I' for Inactive)
REMARK    1  A    between atoms: C_2  and  N_11 
ROOT
HETATM    1  C   UNL     1      63.673   9.227   4.907  1.00  0.00     0.085 A 
HETATM    2  C   UNL     1      64.758   8.403   5.143  1.00  0.00     0.089 A 
HETATM    3  C   UNL     1      62.865   8.766   3.822  1.00  0.00    -0.018 A 
HETATM    4  C   UNL     1      63.386   7.621   3.251  1.00  0.00     0.018 A 
HETATM    5  S   UNL     1      64.792   7.086   4.041  1.00  0.00    -0.074 SA
HETATM    6  C   UNL     1      63.406  10.413   5.666  1.00  0.00     0.103 C 
HETATM    7  N   UNL     1      63.185  11.377   6.271  1.00  0.00    -0.191 NA
HETATM    8  N   UNL     1      61.791   7.721   1.353  1.00  0.00    -0.070 N 
HETATM    9  C   UNL     1      62.782   6.891   2.081  1.00  0.00     0.281 C 
HETATM   10  C   UNL     1      61.621   9.396   3.267  1.00  0.00     0.069 C 
HETATM   11  C   UNL     1      60.900   8.425   2.304  1.00  0.00     0.239 C 
HETATM   12  C   UNL     1      62.449   8.654   0.436  1.00  0.00     0.270 C 
HETATM   13  H   UNL     1      61.213   7.103   0.785  1.00  0.00     0.279 HD
ENDROOT
BRANCH   2  14
HETATM   14  N   UNL     1      65.718   8.526   6.083  1.00  0.00    -0.392 N 
HETATM   15  H   UNL     1      65.703   7.949   6.880  1.00  0.00     0.156 HD
HETATM   16  H   UNL     1      66.434   9.192   5.971  1.00  0.00     0.156 HD
ENDBRANCH   2  14
TORSDOF 1
ENDMDL
MODEL 7
REMARK VINA RESULT:      -4.3      1.534      2.761
REMARK  1 active torsions:
REMARK  status: ('A' for Active; 'I' for Inactive)
REMARK    1  A    between atoms: C_2  and  N_11 
ROOT
HETATM    1  C   UNL     1      62.691   8.727   2.769  1.00  0.00     0.085 A 
HETATM    2  C   UNL     1      62.340   9.833   3.520  1.00  0.00     0.089 A 
HETATM    3  C   UNL     1      63.534   7.825   3.490  1.00  0.00    -0.018 A 
HETATM    4  C   UNL     1      63.822   8.300   4.755  1.00  0.00     0.018 A 
HETATM    5  S   UNL     1      63.046   9.775   5.085  1.00  0.00    -0.074 SA
HETATM    6  C   UNL     1      62.256   8.522   1.419  1.00  0.00     0.103 C 
HETATM    7  N   UNL     1      61.915   8.351   0.325  1.00  0.00    -0.191 NA
HETATM    8  N   UNL     1      65.526   6.537   5.138  1.00  0.00    -0.070 N 
HETATM    9  C   UNL     1      64.694   7.596   5.760  1.00  0.00     0.281 C 
HETATM   10  C   UNL     1      64.124   6.532   3.009  1.00  0.00     0.069 C 
HETATM   11  C   UNL     1      64.723   5.732   4.189  1.00  0.00     0.239 C 
HETATM   12  C   UNL     1      66.715   7.102   4.497  1.00  0.00     0.270 C 
HETATM   13  H   UNL     1      65.853   5.913   5.875  1.00  0.00     0.279 HD
ENDROOT
BRANCH   2  14
HETATM   14  N   UNL     1      61.558  10.875   3.168  1.00  0.00    -0.392 N 
HETATM   15  H   UNL     1      60.956  10.798   2.393  1.00  0.00     0.156 HD
HETATM   16  H   UNL     1      61.590  11.711   3.686  1.00  0.00     0.156 HD
ENDBRANCH   2  14
TORSDOF 1
ENDMDL
MODEL 8
REMARK VINA RESULT:      -3.8      2.902      4.039
REMARK  1 active torsions:
REMARK  status: ('A' for Active; 'I' for Inactive)
REMARK    1  A    between atoms: C_2  and  N_11 
ROOT
HETATM    1  C   UNL     1      65.004   6.496   3.622  1.00  0.00     0.085 A 
HETATM    2  C   UNL     1      65.522   5.351   3.044  1.00  0.00     0.089 A 
HETATM    3  C   UNL     1      65.750   6.913   4.767  1.00  0.00    -0.018 A 
HETATM    4  C   UNL     1      66.792   6.047   5.039  1.00  0.00     0.018 A 
HETATM    5  S   UNL     1      66.899   4.787   3.903  1.00  0.00    -0.074 SA
HETATM    6  C   UNL     1      63.844   7.173   3.122  1.00  0.00     0.103 C 
HETATM    7  N   UNL     1      62.904   7.725   2.729  1.00  0.00    -0.191 NA
HETATM    8  N   UNL     1      67.262   7.136   7.218  1.00  0.00    -0.070 N 
HETATM    9  C   UNL     1      67.758   6.194   6.183  1.00  0.00     0.281 C 
HETATM   10  C   UNL     1      65.490   8.093   5.656  1.00  0.00     0.069 C 
HETATM   11  C   UNL     1      66.695   8.351   6.589  1.00  0.00     0.239 C 
HETATM   12  C   UNL     1      66.298   6.488   8.109  1.00  0.00     0.270 C 
HETATM   13  H   UNL     1      68.053   7.423   7.793  1.00  0.00     0.279 HD
ENDROOT
BRANCH   2  14
HETATM   14  N   UNL     1      65.083   4.685   1.956  1.00  0.00    -0.392 N 
HETATM   15  H   UNL     1      65.234   5.057   1.057  1.00  0.00     0.156 HD
HETATM   16  H   UNL     1      64.611   3.828   2.061  1.00  0.00     0.156 HD
ENDBRANCH   2  14
TORSDOF 1
ENDMDL
MODEL 9
REMARK VINA RESULT:      -3.7      3.151      5.356
REMARK  1 active torsions:
REMARK  status: ('A' for Active; 'I' for Inactive)
REMARK    1  A    between atoms: C_2  and  N_11 
ROOT
HETATM    1  C   UNL     1      65.388   6.477   6.870  1.00  0.00     0.085 A 
HETATM    2  C   UNL     1      65.863   7.716   6.482  1.00  0.00     0.089 A 
HETATM    3  C   UNL     1      64.275   6.049   6.082  1.00  0.00    -0.018 A 
HETATM    4  C   UNL     1      63.923   6.999   5.142  1.00  0.00     0.018 A 
HETATM    5  S   UNL     1      64.948   8.353   5.175  1.00  0.00    -0.074 SA
HETATM    6  C   UNL     1      65.952   5.721   7.949  1.00  0.00     0.103 C 
HETATM    7  N   UNL     1      66.398   5.104   8.824  1.00  0.00    -0.191 NA
HETATM    8  N   UNL     1      61.838   5.789   4.553  1.00  0.00    -0.070 N 
HETATM    9  C   UNL     1      62.786   6.862   4.165  1.00  0.00     0.281 C 
HETATM   10  C   UNL     1      63.489   4.777   6.210  1.00  0.00     0.069 C 
HETATM   11  C   UNL     1      62.571   4.576   4.983  1.00  0.00     0.239 C 
HETATM   12  C   UNL     1      60.904   6.250   5.581  1.00  0.00     0.270 C 
HETATM   13  H   UNL     1      61.283   5.543   3.734  1.00  0.00     0.279 HD
ENDROOT
BRANCH   2  14
HETATM   14  N   UNL     1      66.896   8.418   6.993  1.00  0.00    -0.392 N 
HETATM   15  H   UNL     1      67.798   8.311   6.616  1.00  0.00     0.156 HD
HETATM   16  H   UNL     1      66.746   9.038   7.743  1.00  0.00     0.156 HD
ENDBRANCH   2  14
TORSDOF 1
ENDMDL
