MODEL 1
REMARK VINA RESULT:      -4.8      0.000      0.000
REMARK  2 active torsions:
REMARK  status: ('A' for Active; 'I' for Inactive)
REMARK    1  A    between atoms: N_1  and  C_6 
REMARK    2  A    between atoms: C_6  and  C_8 
ROOT
HETATM    1  N   UNL     1      65.424   5.590   5.937  1.00  0.00    -0.075 N 
HETATM    2  C   UNL     1      64.510   7.886   4.311  1.00  0.00     0.007 C 
HETATM    3  C   UNL     1      64.724   5.351   4.678  1.00  0.00     0.232 C 
HETATM    4  C   UNL     1      64.972   6.811   6.593  1.00  0.00     0.232 C 
HETATM    5  C   UNL     1      64.870   6.521   3.705  1.00  0.00     0.034 C 
HETATM    6  C   UNL     1      65.179   8.028   5.691  1.00  0.00     0.034 C 
HETATM    7  H   UNL     1      65.256   4.800   6.561  1.00  0.00     0.277 HD
HETATM    8  H   UNL     1      66.417   5.694   5.729  1.00  0.00     0.277 HD
ENDROOT
BRANCH   2   9
HETATM    9  C   UNL     1      62.991   8.179   4.381  1.00  0.00     0.133 C 
BRANCH   9  10
HETATM   10  N   UNL     1      62.541   9.360   3.640  1.00  0.00    -0.354 N 
HETATM   11  C   UNL     1      62.246   9.423   2.288  1.00  0.00     0.008 C 
HETATM   12  C   UNL     1      61.677  10.659   2.047  1.00  0.00     0.026 C 
HETATM   13  C   UNL     1      62.512   8.352   1.289  1.00  0.00     0.068 C 
HETATM   14  C   UNL     1      61.797  11.423   3.222  1.00  0.00     0.026 C 
HETATM   15  C   UNL     1      62.423  10.635   4.167  1.00  0.00     0.008 C 
HETATM   16  C   UNL     1      62.922  11.042   5.510  1.00  0.00     0.068 C 
ENDBRANCH   9  10
ENDBRANCH   2   9
TORSDOF 2
ENDMDL
MODEL 2
REMARK VINA RESULT:      -4.6      1.512      2.873
REMARK  2 active torsions:
REMARK  status: ('A' for Active; 'I' for Inactive)
REMARK    1  A    between atoms: N_1  and  C_6 
REMARK    2  A    between atoms: C_6  and  C_8 
ROOT
HETATM    1  N   UNL     1      66.967   7.266   7.357  1.00  0.00    -0.075 N 
HETATM    2  C   UNL     1      64.653   6.945   5.540  1.00  0.00     0.007 C 
HETATM    3  C   UNL     1      65.841   6.428   7.761  1.00  0.00     0.232 C 
HETATM    4  C   UNL     1      66.548   8.376   6.510  1.00  0.00     0.232 C 
HETATM    5  C   UNL     1      65.072   5.875   6.561  1.00  0.00     0.034 C 
HETATM    6  C   UNL     1      65.848   7.871   5.247  1.00  0.00     0.034 C 
HETATM    7  H   UNL     1      67.414   7.641   8.194  1.00  0.00     0.277 HD
HETATM    8  H   UNL     1      67.612   6.687   6.819  1.00  0.00     0.277 HD
ENDROOT
BRANCH   2   9
HETATM    9  C   UNL     1      63.391   7.751   5.933  1.00  0.00     0.133 C 
BRANCH   9  10
HETATM   10  N   UNL     1      62.715   8.441   4.832  1.00  0.00    -0.354 N 
HETATM   11  C   UNL     1      62.655   9.811   4.628  1.00  0.00     0.008 C 
HETATM   12  C   UNL     1      62.097  10.017   3.381  1.00  0.00     0.026 C 
HETATM   13  C   UNL     1      63.101  10.854   5.592  1.00  0.00     0.068 C 
HETATM   14  C   UNL     1      61.644   8.775   2.902  1.00  0.00     0.026 C 
HETATM   15  C   UNL     1      61.948   7.826   3.857  1.00  0.00     0.008 C 
HETATM   16  C   UNL     1      61.528   6.398   3.892  1.00  0.00     0.068 C 
ENDBRANCH   9  10
ENDBRANCH   2   9
TORSDOF 2
ENDMDL
MODEL 3
REMARK VINA RESULT:      -4.6      0.425      2.158
REMARK  2 active torsions:
REMARK  status: ('A' for Active; 'I' for Inactive)
REMARK    1  A    between atoms: N_1  and  C_6 
REMARK    2  A    between atoms: C_6  and  C_8 
ROOT
HETATM    1  N   UNL     1      65.617   5.660   5.942  1.00  0.00    -0.075 N 
HETATM    2  C   UNL     1      64.519   7.852   4.285  1.00  0.00     0.007 C 
HETATM    3  C   UNL     1      64.796   5.343   4.776  1.00  0.00     0.232 C 
HETATM    4  C   UNL     1      65.221   6.915   6.568  1.00  0.00     0.232 C 
HETATM    5  C   UNL     1      64.831   6.454   3.726  1.00  0.00     0.034 C 
HETATM    6  C   UNL     1      65.322   8.078   5.579  1.00  0.00     0.034 C 
HETATM    7  H   UNL     1      65.522   4.908   6.624  1.00  0.00     0.277 HD
HETATM    8  H   UNL     1      66.583   5.756   5.628  1.00  0.00     0.277 HD
ENDROOT
BRANCH   2   9
HETATM    9  C   UNL     1      63.011   8.141   4.492  1.00  0.00     0.133 C 
BRANCH   9  10
HETATM   10  N   UNL     1      62.463   9.234   3.686  1.00  0.00    -0.354 N 
HETATM   11  C   UNL     1      62.377  10.568   4.053  1.00  0.00     0.008 C 
HETATM   12  C   UNL     1      61.983  11.278   2.935  1.00  0.00     0.026 C 
HETATM   13  C   UNL     1      62.648  11.116   5.410  1.00  0.00     0.068 C 
HETATM   14  C   UNL     1      61.648  10.350   1.933  1.00  0.00     0.026 C 
HETATM   15  C   UNL     1      61.858   9.088   2.449  1.00  0.00     0.008 C 
HETATM   16  C   UNL     1      61.495   7.779   1.839  1.00  0.00     0.068 C 
ENDBRANCH   9  10
ENDBRANCH   2   9
TORSDOF 2
ENDMDL
MODEL 4
REMARK VINA RESULT:      -4.5      2.209      4.087
REMARK  2 active torsions:
REMARK  status: ('A' for Active; 'I' for Inactive)
REMARK    1  A    between atoms: N_1  and  C_6 
REMARK    2  A    between atoms: C_6  and  C_8 
ROOT
HETATM    1  N   UNL     1      60.169   5.297   3.029  1.00  0.00    -0.075 N 
HETATM    2  C   UNL     1      60.703   8.057   2.103  1.00  0.00     0.007 C 
HETATM    3  C   UNL     1      60.337   6.369   4.008  1.00  0.00     0.232 C 
HETATM    4  C   UNL     1      60.966   5.519   1.829  1.00  0.00     0.232 C 
HETATM    5  C   UNL     1      59.991   7.740   3.428  1.00  0.00     0.034 C 
HETATM    6  C   UNL     1      60.595   6.844   1.160  1.00  0.00     0.034 C 
HETATM    7  H   UNL     1      60.454   4.416   3.455  1.00  0.00     0.277 HD
HETATM    8  H   UNL     1      59.187   5.276   2.754  1.00  0.00     0.277 HD
ENDROOT
BRANCH   2   9
HETATM    9  C   UNL     1      62.170   8.529   2.257  1.00  0.00     0.133 C 
BRANCH   9  10
HETATM   10  N   UNL     1      62.414   9.484   3.341  1.00  0.00    -0.354 N 
HETATM   11  C   UNL     1      62.127  10.839   3.329  1.00  0.00     0.008 C 
HETATM   12  C   UNL     1      62.333  11.315   4.609  1.00  0.00     0.026 C 
HETATM   13  C   UNL     1      61.692  11.625   2.142  1.00  0.00     0.068 C 
HETATM   14  C   UNL     1      62.925  10.285   5.361  1.00  0.00     0.026 C 
HETATM   15  C   UNL     1      63.058   9.190   4.532  1.00  0.00     0.008 C 
HETATM   16  C   UNL     1      63.776   7.915   4.809  1.00  0.00     0.068 C 
ENDBRANCH   9  10
ENDBRANCH   2   9
TORSDOF 2
ENDMDL
MODEL 5
REMARK VINA RESULT:      -4.2      2.625      4.460
REMARK  2 active torsions:
REMARK  status: ('A' for Active; 'I' for Inactive)
REMARK    1  A    between atoms: N_1  and  C_6 
REMARK    2  A    between atoms: C_6  and  C_8 
ROOT
HETATM    1  N   UNL     1      67.026   4.075   8.583  1.00  0.00    -0.075 N 
HETATM    2  C   UNL     1      65.763   6.505   7.462  1.00  0.00     0.007 C 
HETATM    3  C   UNL     1      67.659   5.376   8.782  1.00  0.00     0.232 C 
HETATM    4  C   UNL     1      66.307   4.002   7.317  1.00  0.00     0.232 C 
HETATM    5  C   UNL     1      66.651   6.524   8.716  1.00  0.00     0.034 C 
HETATM    6  C   UNL     1      65.225   5.079   7.236  1.00  0.00     0.034 C 
HETATM    7  H   UNL     1      67.748   3.354   8.593  1.00  0.00     0.277 HD
HETATM    8  H   UNL     1      66.351   3.935   9.335  1.00  0.00     0.277 HD
ENDROOT
BRANCH   2   9
HETATM    9  C   UNL     1      66.437   7.067   6.186  1.00  0.00     0.133 C 
BRANCH   9  10
HETATM   10  N   UNL     1      65.684   6.886   4.943  1.00  0.00    -0.354 N 
HETATM   11  C   UNL     1      65.943   5.956   3.949  1.00  0.00     0.008 C 
HETATM   12  C   UNL     1      64.886   5.997   3.061  1.00  0.00     0.026 C 
HETATM   13  C   UNL     1      67.151   5.090   3.862  1.00  0.00     0.068 C 
HETATM   14  C   UNL     1      64.070   7.086   3.414  1.00  0.00     0.026 C 
HETATM   15  C   UNL     1      64.634   7.684   4.523  1.00  0.00     0.008 C 
HETATM   16  C   UNL     1      64.239   8.965   5.170  1.00  0.00     0.068 C 
ENDBRANCH   9  10
ENDBRANCH   2   9
TORSDOF 2
ENDMDL
MODEL 6
REMARK VINA RESULT:      -4.1      1.716      2.531
REMARK  2 active torsions:
REMARK  status: ('A' for Active; 'I' for Inactive)
REMARK    1  A    between atoms: N_1  and  C_6 
REMARK    2  A    between atoms: C_6  and  C_8 
ROOT
HETATM    1  N   UNL     1      67.078   7.455   7.574  1.00  0.00    -0.075 N 
HETATM    2  C   UNL     1      65.422   6.371   5.375  1.00  0.00     0.007 C 
HETATM    3  C   UNL     1      66.149   6.360   7.840  1.00  0.00     0.232 C 
HETATM    4  C   UNL     1      66.594   8.342   6.523  1.00  0.00     0.232 C 
HETATM    5  C   UNL     1      65.855   5.534   6.588  1.00  0.00     0.034 C 
HETATM    6  C   UNL     1      66.367   7.577   5.219  1.00  0.00     0.034 C 
HETATM    7  H   UNL     1      67.203   7.996   8.430  1.00  0.00     0.277 HD
HETATM    8  H   UNL     1      67.960   7.049   7.260  1.00  0.00     0.277 HD
ENDROOT
BRANCH   2   9
HETATM    9  C   UNL     1      63.937   6.809   5.392  1.00  0.00     0.133 C 
BRANCH   9  10
HETATM   10  N   UNL     1      63.475   7.519   4.196  1.00  0.00    -0.354 N 
HETATM   11  C   UNL     1      63.422   7.016   2.906  1.00  0.00     0.008 C 
HETATM   12  C   UNL     1      62.747   7.938   2.131  1.00  0.00     0.026 C 
HETATM   13  C   UNL     1      64.004   5.723   2.453  1.00  0.00     0.068 C 
HETATM   14  C   UNL     1      62.550   9.092   2.911  1.00  0.00     0.026 C 
HETATM   15  C   UNL     1      63.095   8.850   4.156  1.00  0.00     0.008 C 
HETATM   16  C   UNL     1      63.286   9.815   5.273  1.00  0.00     0.068 C 
ENDBRANCH   9  10
ENDBRANCH   2   9
TORSDOF 2
ENDMDL
MODEL 7
REMARK VINA RESULT:      -4.1      1.425      5.351
REMARK  2 active torsions:
REMARK  status: ('A' for Active; 'I' for Inactive)
REMARK    1  A    between atoms: N_1  and  C_6 
REMARK    2  A    between atoms: C_6  and  C_8 
ROOT
HETATM    1  N   UNL     1      60.951   9.353   3.531  1.00  0.00    -0.075 N 
HETATM    2  C   UNL     1      63.263   8.682   5.252  1.00  0.00     0.007 C 
HETATM    3  C   UNL     1      61.396   7.965   3.636  1.00  0.00     0.232 C 
HETATM    4  C   UNL     1      62.055  10.295   3.663  1.00  0.00     0.232 C 
HETATM    5  C   UNL     1      62.128   7.692   4.950  1.00  0.00     0.034 C 
HETATM    6  C   UNL     1      62.769  10.120   5.005  1.00  0.00     0.034 C 
HETATM    7  H   UNL     1      60.510   9.488   2.621  1.00  0.00     0.277 HD
HETATM    8  H   UNL     1      60.294   9.530   4.291  1.00  0.00     0.277 HD
ENDROOT
BRANCH   2   9
HETATM    9  C   UNL     1      64.584   8.397   4.496  1.00  0.00     0.133 C 
BRANCH   9  10
HETATM   10  N   UNL     1      65.255   7.144   4.849  1.00  0.00    -0.354 N 
HETATM   11  C   UNL     1      66.133   6.945   5.902  1.00  0.00     0.008 C 
HETATM   12  C   UNL     1      66.371   5.587   5.990  1.00  0.00     0.026 C 
HETATM   13  C   UNL     1      66.715   8.011   6.762  1.00  0.00     0.068 C 
HETATM   14  C   UNL     1      65.782   4.975   4.869  1.00  0.00     0.026 C 
HETATM   15  C   UNL     1      65.179   5.967   4.123  1.00  0.00     0.008 C 
HETATM   16  C   UNL     1      64.569   5.850   2.770  1.00  0.00     0.068 C 
ENDBRANCH   9  10
ENDBRANCH   2   9
TORSDOF 2
ENDMDL
MODEL 8
REMARK VINA RESULT:      -3.9      2.041      5.349
REMARK  2 active torsions:
REMARK  status: ('A' for Active; 'I' for Inactive)
REMARK    1  A    between atoms: N_1  and  C_6 
REMARK    2  A    between atoms: C_6  and  C_8 
ROOT
HETATM    1  N   UNL     1      59.820   8.309   1.383  1.00  0.00    -0.075 N 
HETATM    2  C   UNL     1      62.353   8.782   2.837  1.00  0.00     0.007 C 
HETATM    3  C   UNL     1      59.981   7.796   2.741  1.00  0.00     0.232 C 
HETATM    4  C   UNL     1      61.081   8.339   0.654  1.00  0.00     0.232 C 
HETATM    5  C   UNL     1      61.002   8.601   3.546  1.00  0.00     0.034 C 
HETATM    6  C   UNL     1      62.114   9.206   1.376  1.00  0.00     0.034 C 
HETATM    7  H   UNL     1      59.163   7.711   0.882  1.00  0.00     0.277 HD
HETATM    8  H   UNL     1      59.473   9.266   1.449  1.00  0.00     0.277 HD
ENDROOT
BRANCH   2   9
HETATM    9  C   UNL     1      63.298   7.559   2.927  1.00  0.00     0.133 C 
BRANCH   9  10
HETATM   10  N   UNL     1      63.408   6.944   4.252  1.00  0.00    -0.354 N 
HETATM   11  C   UNL     1      64.155   7.412   5.321  1.00  0.00     0.008 C 
HETATM   12  C   UNL     1      63.821   6.649   6.423  1.00  0.00     0.026 C 
HETATM   13  C   UNL     1      65.142   8.525   5.271  1.00  0.00     0.068 C 
HETATM   14  C   UNL     1      63.006   5.591   5.982  1.00  0.00     0.026 C 
HETATM   15  C   UNL     1      62.841   5.734   4.619  1.00  0.00     0.008 C 
HETATM   16  C   UNL     1      62.204   4.780   3.671  1.00  0.00     0.068 C 
ENDBRANCH   9  10
ENDBRANCH   2   9
TORSDOF 2
ENDMDL
MODEL 9
REMARK VINA RESULT:      -3.9      1.783      2.574
REMARK  2 active torsions:
REMARK  status: ('A' for Active; 'I' for Inactive)
REMARK    1  A    between atoms: N_1  and  C_6 
REMARK    2  A    between atoms: C_6  and  C_8 
ROOT
HETATM    1  N   UNL     1      64.248   5.489   5.195  1.00  0.00    -0.075 N 
HETATM    2  C   UNL     1      63.684   8.168   4.072  1.00  0.00     0.007 C 
HETATM    3  C   UNL     1      63.537   5.606   3.924  1.00  0.00     0.232 C 
HETATM    4  C   UNL     1      63.963   6.606   6.088  1.00  0.00     0.232 C 
HETATM    5  C   UNL     1      63.857   6.914   3.201  1.00  0.00     0.034 C 
HETATM    6  C   UNL     1      64.349   7.938   5.442  1.00  0.00     0.034 C 
HETATM    7  H   UNL     1      63.963   4.622   5.652  1.00  0.00     0.277 HD
HETATM    8  H   UNL     1      65.248   5.493   4.996  1.00  0.00     0.277 HD
ENDROOT
BRANCH   2   9
HETATM    9  C   UNL     1      62.220   8.651   4.224  1.00  0.00     0.133 C 
BRANCH   9  10
HETATM   10  N   UNL     1      61.359   8.427   3.061  1.00  0.00    -0.354 N 
HETATM   11  C   UNL     1      61.325   9.183   1.900  1.00  0.00     0.008 C 
HETATM   12  C   UNL     1      60.523   8.514   0.996  1.00  0.00     0.026 C 
HETATM   13  C   UNL     1      62.020  10.482   1.688  1.00  0.00     0.068 C 
HETATM   14  C   UNL     1      59.916   7.441   1.672  1.00  0.00     0.026 C 
HETATM   15  C   UNL     1      60.370   7.461   2.975  1.00  0.00     0.008 C 
HETATM   16  C   UNL     1      59.896   6.636   4.121  1.00  0.00     0.068 C 
ENDBRANCH   9  10
ENDBRANCH   2   9
TORSDOF 2
ENDMDL
