MODEL 1
REMARK VINA RESULT:      -4.3      0.000      0.000
REMARK  0 active torsions:
REMARK  status: ('A' for Active; 'I' for Inactive)
ROOT
HETATM    1  N   UNL     1      63.243   9.356   4.717  1.00  0.00    -0.366 N 
ATOM      2  HN  UNL     1      63.809   8.745   5.306  1.00  0.00     0.165 HD
HETATM    3  N   UNL     1      61.686  11.068   3.089  1.00  0.00    -0.366 N 
ATOM      4  HN  UNL     1      61.120  11.687   2.508  1.00  0.00     0.165 HD
HETATM    5  C   UNL     1      62.830   8.983   3.478  1.00  0.00     0.031 A 
HETATM    6  C   UNL     1      62.073   9.837   2.666  1.00  0.00     0.031 A 
HETATM    7  C   UNL     1      62.859  10.586   5.120  1.00  0.00     0.105 A 
HETATM    8  C   UNL     1      62.095  11.421   4.326  1.00  0.00     0.105 A 
HETATM    9  C   UNL     1      61.592   9.411   1.305  1.00  0.00     0.059 C 
HETATM   10  C   UNL     1      63.282   7.633   2.994  1.00  0.00     0.059 C 
HETATM   11  C   UNL     1      62.367   8.221   0.742  1.00  0.00     0.006 C 
HETATM   12  C   UNL     1      62.481   7.127   1.797  1.00  0.00     0.006 C 
ENDROOT
TORSDOF 0
ENDMDL
MODEL 2
REMARK VINA RESULT:      -4.3      0.068      2.149
REMARK  0 active torsions:
REMARK  status: ('A' for Active; 'I' for Inactive)
ROOT
HETATM    1  N   UNL     1      61.694  11.037   3.087  1.00  0.00    -0.366 N 
ATOM      2  HN  UNL     1      61.142  11.649   2.486  1.00  0.00     0.165 HD
HETATM    3  N   UNL     1      63.214   9.345   4.771  1.00  0.00    -0.366 N 
ATOM      4  HN  UNL     1      63.765   8.741   5.380  1.00  0.00     0.165 HD
HETATM    5  C   UNL     1      62.088   9.799   2.689  1.00  0.00     0.031 A 
HETATM    6  C   UNL     1      62.825   8.956   3.529  1.00  0.00     0.031 A 
HETATM    7  C   UNL     1      62.079  11.407   4.328  1.00  0.00     0.105 A 
HETATM    8  C   UNL     1      62.824  10.582   5.149  1.00  0.00     0.105 A 
HETATM    9  C   UNL     1      63.285   7.596   3.076  1.00  0.00     0.059 C 
HETATM   10  C   UNL     1      61.635   9.353   1.326  1.00  0.00     0.059 C 
HETATM   11  C   UNL     1      62.507   7.073   1.870  1.00  0.00     0.006 C 
HETATM   12  C   UNL     1      62.417   8.154   0.798  1.00  0.00     0.006 C 
ENDROOT
TORSDOF 0
ENDMDL
MODEL 3
REMARK VINA RESULT:      -4.1      1.498      2.946
REMARK  0 active torsions:
REMARK  status: ('A' for Active; 'I' for Inactive)
ROOT
HETATM    1  N   UNL     1      63.399   9.170   5.377  1.00  0.00    -0.366 N 
ATOM      2  HN  UNL     1      63.268   9.861   6.116  1.00  0.00     0.165 HD
HETATM    3  N   UNL     1      63.759   7.238   3.342  1.00  0.00    -0.366 N 
ATOM      4  HN  UNL     1      63.896   6.540   2.610  1.00  0.00     0.165 HD
HETATM    5  C   UNL     1      62.890   9.342   4.130  1.00  0.00     0.031 A 
HETATM    6  C   UNL     1      63.054   8.378   3.128  1.00  0.00     0.031 A 
HETATM    7  C   UNL     1      64.089   8.027   5.579  1.00  0.00     0.105 A 
HETATM    8  C   UNL     1      64.269   7.085   4.583  1.00  0.00     0.105 A 
HETATM    9  C   UNL     1      62.514   8.584   1.738  1.00  0.00     0.059 C 
HETATM   10  C   UNL     1      62.082  10.590   3.897  1.00  0.00     0.059 C 
HETATM   11  C   UNL     1      61.428   9.656   1.672  1.00  0.00     0.006 C 
HETATM   12  C   UNL     1      61.881  10.906   2.418  1.00  0.00     0.006 C 
ENDROOT
TORSDOF 0
ENDMDL
MODEL 4
REMARK VINA RESULT:      -4.1      2.079      3.686
REMARK  0 active torsions:
REMARK  status: ('A' for Active; 'I' for Inactive)
ROOT
HETATM    1  N   UNL     1      64.378   7.155   3.640  1.00  0.00    -0.366 N 
ATOM      2  HN  UNL     1      64.197   6.546   2.841  1.00  0.00     0.165 HD
HETATM    3  N   UNL     1      64.897   8.841   5.852  1.00  0.00    -0.366 N 
ATOM      4  HN  UNL     1      65.086   9.443   6.653  1.00  0.00     0.165 HD
HETATM    5  C   UNL     1      63.615   8.248   3.900  1.00  0.00     0.031 A 
HETATM    6  C   UNL     1      63.883   9.092   4.984  1.00  0.00     0.031 A 
HETATM    7  C   UNL     1      65.388   6.923   4.505  1.00  0.00     0.105 A 
HETATM    8  C   UNL     1      65.640   7.745   5.588  1.00  0.00     0.105 A 
HETATM    9  C   UNL     1      63.020  10.288   5.287  1.00  0.00     0.059 C 
HETATM   10  C   UNL     1      62.509   8.547   2.924  1.00  0.00     0.059 C 
HETATM   11  C   UNL     1      62.174  10.731   4.094  1.00  0.00     0.006 C 
HETATM   12  C   UNL     1      61.476   9.527   3.472  1.00  0.00     0.006 C 
ENDROOT
TORSDOF 0
ENDMDL
MODEL 5
REMARK VINA RESULT:      -3.9      1.525      3.371
REMARK  0 active torsions:
REMARK  status: ('A' for Active; 'I' for Inactive)
ROOT
HETATM    1  N   UNL     1      62.827   7.368   2.007  1.00  0.00    -0.366 N 
ATOM      2  HN  UNL     1      63.377   6.509   2.040  1.00  0.00     0.165 HD
HETATM    3  N   UNL     1      61.284   9.737   1.908  1.00  0.00    -0.366 N 
ATOM      4  HN  UNL     1      60.729  10.592   1.866  1.00  0.00     0.165 HD
HETATM    5  C   UNL     1      62.894   8.306   2.987  1.00  0.00     0.031 A 
HETATM    6  C   UNL     1      62.117   9.470   2.947  1.00  0.00     0.031 A 
HETATM    7  C   UNL     1      61.986   7.642   0.986  1.00  0.00     0.105 A 
HETATM    8  C   UNL     1      61.236   8.801   0.936  1.00  0.00     0.105 A 
HETATM    9  C   UNL     1      62.214  10.521   4.019  1.00  0.00     0.059 C 
HETATM   10  C   UNL     1      63.793   7.999   4.153  1.00  0.00     0.059 C 
HETATM   11  C   UNL     1      62.841  10.001   5.311  1.00  0.00     0.006 C 
HETATM   12  C   UNL     1      64.117   9.228   4.998  1.00  0.00     0.006 C 
ENDROOT
TORSDOF 0
ENDMDL
MODEL 6
REMARK VINA RESULT:      -3.9      5.996      7.380
REMARK  0 active torsions:
REMARK  status: ('A' for Active; 'I' for Inactive)
ROOT
HETATM    1  N   UNL     1      67.321   7.150   8.391  1.00  0.00    -0.366 N 
ATOM      2  HN  UNL     1      67.136   8.086   8.752  1.00  0.00     0.165 HD
HETATM    3  N   UNL     1      67.823   4.545   7.406  1.00  0.00    -0.366 N 
ATOM      4  HN  UNL     1      68.009   3.605   7.055  1.00  0.00     0.165 HD
HETATM    5  C   UNL     1      67.266   6.864   7.064  1.00  0.00     0.031 A 
HETATM    6  C   UNL     1      67.498   5.572   6.578  1.00  0.00     0.031 A 
HETATM    7  C   UNL     1      67.635   6.117   9.202  1.00  0.00     0.105 A 
HETATM    8  C   UNL     1      67.884   4.846   8.721  1.00  0.00     0.105 A 
HETATM    9  C   UNL     1      67.465   5.264   5.106  1.00  0.00     0.059 C 
HETATM   10  C   UNL     1      66.878   7.992   6.147  1.00  0.00     0.059 C 
HETATM   11  C   UNL     1      66.728   6.324   4.290  1.00  0.00     0.006 C 
HETATM   12  C   UNL     1      67.211   7.716   4.684  1.00  0.00     0.006 C 
ENDROOT
TORSDOF 0
ENDMDL
MODEL 7
REMARK VINA RESULT:      -3.8      5.975      7.216
REMARK  0 active torsions:
REMARK  status: ('A' for Active; 'I' for Inactive)
ROOT
HETATM    1  N   UNL     1      67.632   4.525   7.485  1.00  0.00    -0.366 N 
ATOM      2  HN  UNL     1      67.748   3.566   7.156  1.00  0.00     0.165 HD
HETATM    3  N   UNL     1      67.325   7.180   8.413  1.00  0.00    -0.366 N 
ATOM      4  HN  UNL     1      67.210   8.135   8.753  1.00  0.00     0.165 HD
HETATM    5  C   UNL     1      67.385   5.555   6.635  1.00  0.00     0.031 A 
HETATM    6  C   UNL     1      67.250   6.871   7.092  1.00  0.00     0.031 A 
HETATM    7  C   UNL     1      67.714   4.848   8.794  1.00  0.00     0.105 A 
HETATM    8  C   UNL     1      67.560   6.145   9.247  1.00  0.00     0.105 A 
HETATM    9  C   UNL     1      66.948   8.007   6.153  1.00  0.00     0.059 C 
HETATM   10  C   UNL     1      67.330   5.221   5.169  1.00  0.00     0.059 C 
HETATM   11  C   UNL     1      67.262   7.676   4.695  1.00  0.00     0.006 C 
HETATM   12  C   UNL     1      66.677   6.316   4.330  1.00  0.00     0.006 C 
ENDROOT
TORSDOF 0
ENDMDL
MODEL 8
REMARK VINA RESULT:      -3.7      1.448      2.640
REMARK  0 active torsions:
REMARK  status: ('A' for Active; 'I' for Inactive)
ROOT
HETATM    1  N   UNL     1      62.227  11.011   4.081  1.00  0.00    -0.366 N 
ATOM      2  HN  UNL     1      62.241  11.575   4.931  1.00  0.00     0.165 HD
HETATM    3  N   UNL     1      62.195   9.465   1.712  1.00  0.00    -0.366 N 
ATOM      4  HN  UNL     1      62.177   8.910   0.856  1.00  0.00     0.165 HD
HETATM    5  C   UNL     1      62.623   9.712   4.070  1.00  0.00     0.031 A 
HETATM    6  C   UNL     1      62.623   8.952   2.894  1.00  0.00     0.031 A 
HETATM    7  C   UNL     1      61.813  11.511   2.897  1.00  0.00     0.105 A 
HETATM    8  C   UNL     1      61.793  10.754   1.740  1.00  0.00     0.105 A 
HETATM    9  C   UNL     1      63.036   7.505   2.889  1.00  0.00     0.059 C 
HETATM   10  C   UNL     1      63.127   9.150   5.371  1.00  0.00     0.059 C 
HETATM   11  C   UNL     1      63.857   7.113   4.116  1.00  0.00     0.006 C 
HETATM   12  C   UNL     1      63.180   7.625   5.383  1.00  0.00     0.006 C 
ENDROOT
TORSDOF 0
ENDMDL
MODEL 9
REMARK VINA RESULT:      -3.6      2.504      3.877
REMARK  0 active torsions:
REMARK  status: ('A' for Active; 'I' for Inactive)
ROOT
HETATM    1  N   UNL     1      63.071   8.048   3.343  1.00  0.00    -0.366 N 
ATOM      2  HN  UNL     1      62.714   7.514   2.551  1.00  0.00     0.165 HD
HETATM    3  N   UNL     1      64.041   9.530   5.549  1.00  0.00    -0.366 N 
ATOM      4  HN  UNL     1      64.389  10.071   6.341  1.00  0.00     0.165 HD
HETATM    5  C   UNL     1      64.234   7.724   3.966  1.00  0.00     0.031 A 
HETATM    6  C   UNL     1      64.705   8.447   5.069  1.00  0.00     0.031 A 
HETATM    7  C   UNL     1      62.417   9.121   3.838  1.00  0.00     0.105 A 
HETATM    8  C   UNL     1      62.893   9.847   4.913  1.00  0.00     0.105 A 
HETATM    9  C   UNL     1      66.008   8.105   5.740  1.00  0.00     0.059 C 
HETATM   10  C   UNL     1      64.956   6.507   3.456  1.00  0.00     0.059 C 
HETATM   11  C   UNL     1      66.488   6.689   5.424  1.00  0.00     0.006 C 
HETATM   12  C   UNL     1      66.407   6.433   3.924  1.00  0.00     0.006 C 
ENDROOT
TORSDOF 0
ENDMDL
