MODEL 1
REMARK VINA RESULT:      -5.0      0.000      0.000
REMARK  2 active torsions:
REMARK  status: ('A' for Active; 'I' for Inactive)
REMARK    1  A    between atoms: S_1  and  C_2 
REMARK    2  A    between atoms: C_5  and  C_6 
ROOT
HETATM    1  C   UNL     1      64.325   8.238   5.035  1.00  0.00     0.058 A 
HETATM    2  C   UNL     1      62.609   9.267   3.082  1.00  0.00     0.009 A 
HETATM    3  C   UNL     1      64.074   7.502   3.873  1.00  0.00     0.024 A 
HETATM    4  C   UNL     1      63.702   9.470   5.246  1.00  0.00     0.024 A 
HETATM    5  C   UNL     1      63.219   8.019   2.896  1.00  0.00     0.016 A 
HETATM    6  C   UNL     1      62.848   9.983   4.265  1.00  0.00     0.016 A 
ENDROOT
BRANCH   1   7
HETATM    7  S   UNL     1      65.398   7.562   6.283  1.00  0.00     0.171 S 
HETATM    8  O   UNL     1      64.551   6.993   7.315  1.00  0.00    -0.223 OA
HETATM    9  O   UNL     1      66.387   8.571   6.603  1.00  0.00    -0.223 OA
HETATM   10  C   UNL     1      66.216   6.229   5.445  1.00  0.00     0.167 C 
ENDBRANCH   1   7
BRANCH   2  11
HETATM   11  C   UNL     1      61.704   9.868   2.054  1.00  0.00     0.155 C 
HETATM   12  O   UNL     1      60.985   9.140   1.374  1.00  0.00    -0.293 OA
HETATM   13  C   UNL     1      61.688  11.364   1.882  1.00  0.00     0.096 C 
ENDBRANCH   2  11
TORSDOF 2
ENDMDL
MODEL 2
REMARK VINA RESULT:      -4.8      1.099      1.741
REMARK  2 active torsions:
REMARK  status: ('A' for Active; 'I' for Inactive)
REMARK    1  A    between atoms: S_1  and  C_2 
REMARK    2  A    between atoms: C_5  and  C_6 
ROOT
HETATM    1  C   UNL     1      64.551   7.857   5.076  1.00  0.00     0.058 A 
HETATM    2  C   UNL     1      62.738   8.283   2.989  1.00  0.00     0.009 A 
HETATM    3  C   UNL     1      63.765   9.013   5.063  1.00  0.00     0.024 A 
HETATM    4  C   UNL     1      64.463   6.926   4.039  1.00  0.00     0.024 A 
HETATM    5  C   UNL     1      62.857   9.223   4.021  1.00  0.00     0.016 A 
HETATM    6  C   UNL     1      63.553   7.141   3.000  1.00  0.00     0.016 A 
ENDROOT
BRANCH   1   7
HETATM    7  S   UNL     1      65.720   7.609   6.394  1.00  0.00     0.171 S 
HETATM    8  O   UNL     1      65.004   6.990   7.492  1.00  0.00    -0.223 OA
HETATM    9  O   UNL     1      66.439   8.854   6.580  1.00  0.00    -0.223 OA
HETATM   10  C   UNL     1      66.847   6.412   5.726  1.00  0.00     0.167 C 
ENDBRANCH   1   7
BRANCH   2  11
HETATM   11  C   UNL     1      61.766   8.457   1.867  1.00  0.00     0.155 C 
HETATM   12  O   UNL     1      60.567   8.274   2.065  1.00  0.00    -0.293 OA
HETATM   13  C   UNL     1      62.282   8.864   0.511  1.00  0.00     0.096 C 
ENDBRANCH   2  11
TORSDOF 2
ENDMDL
MODEL 3
REMARK VINA RESULT:      -4.8      1.463      1.617
REMARK  2 active torsions:
REMARK  status: ('A' for Active; 'I' for Inactive)
REMARK    1  A    between atoms: S_1  and  C_2 
REMARK    2  A    between atoms: C_5  and  C_6 
ROOT
HETATM    1  C   UNL     1      65.052   7.884   5.003  1.00  0.00     0.058 A 
HETATM    2  C   UNL     1      62.934   8.196   3.204  1.00  0.00     0.009 A 
HETATM    3  C   UNL     1      64.811   6.903   4.036  1.00  0.00     0.024 A 
HETATM    4  C   UNL     1      64.226   9.006   5.100  1.00  0.00     0.024 A 
HETATM    5  C   UNL     1      63.754   7.062   3.135  1.00  0.00     0.016 A 
HETATM    6  C   UNL     1      63.171   9.160   4.196  1.00  0.00     0.016 A 
ENDROOT
BRANCH   1   7
HETATM    7  S   UNL     1      66.386   7.662   6.159  1.00  0.00     0.171 S 
HETATM    8  O   UNL     1      66.575   8.925   6.845  1.00  0.00    -0.223 OA
HETATM    9  O   UNL     1      67.479   7.028   5.449  1.00  0.00    -0.223 OA
HETATM   10  C   UNL     1      65.731   6.495   7.324  1.00  0.00     0.167 C 
ENDBRANCH   1   7
BRANCH   2  11
HETATM   11  C   UNL     1      61.805   8.418   2.248  1.00  0.00     0.155 C 
HETATM   12  O   UNL     1      60.680   8.013   2.530  1.00  0.00    -0.293 OA
HETATM   13  C   UNL     1      62.075   9.146   0.958  1.00  0.00     0.096 C 
ENDBRANCH   2  11
TORSDOF 2
ENDMDL
MODEL 4
REMARK VINA RESULT:      -4.5      1.789      2.498
REMARK  2 active torsions:
REMARK  status: ('A' for Active; 'I' for Inactive)
REMARK    1  A    between atoms: S_1  and  C_2 
REMARK    2  A    between atoms: C_5  and  C_6 
ROOT
HETATM    1  C   UNL     1      64.929   7.155   4.796  1.00  0.00     0.058 A 
HETATM    2  C   UNL     1      63.088   9.020   3.820  1.00  0.00     0.009 A 
HETATM    3  C   UNL     1      64.735   8.362   5.475  1.00  0.00     0.024 A 
HETATM    4  C   UNL     1      64.234   6.884   3.615  1.00  0.00     0.024 A 
HETATM    5  C   UNL     1      63.812   9.292   4.988  1.00  0.00     0.016 A 
HETATM    6  C   UNL     1      63.312   7.817   3.133  1.00  0.00     0.016 A 
ENDROOT
BRANCH   1   7
HETATM    7  S   UNL     1      66.122   5.988   5.412  1.00  0.00     0.171 S 
HETATM    8  O   UNL     1      67.340   6.175   4.647  1.00  0.00    -0.223 OA
HETATM    9  O   UNL     1      65.474   4.693   5.476  1.00  0.00    -0.223 OA
HETATM   10  C   UNL     1      66.422   6.541   7.071  1.00  0.00     0.167 C 
ENDBRANCH   1   7
BRANCH   2  11
HETATM   11  C   UNL     1      62.076   9.976   3.274  1.00  0.00     0.155 C 
HETATM   12  O   UNL     1      61.498  10.752   4.033  1.00  0.00    -0.293 OA
HETATM   13  C   UNL     1      61.792   9.972   1.795  1.00  0.00     0.096 C 
ENDBRANCH   2  11
TORSDOF 2
ENDMDL
MODEL 5
REMARK VINA RESULT:      -4.4      2.087      5.278
REMARK  2 active torsions:
REMARK  status: ('A' for Active; 'I' for Inactive)
REMARK    1  A    between atoms: S_1  and  C_2 
REMARK    2  A    between atoms: C_5  and  C_6 
ROOT
HETATM    1  C   UNL     1      63.165   8.569   3.894  1.00  0.00     0.058 A 
HETATM    2  C   UNL     1      65.505   7.184   4.549  1.00  0.00     0.009 A 
HETATM    3  C   UNL     1      63.519   7.424   3.174  1.00  0.00     0.024 A 
HETATM    4  C   UNL     1      63.984   9.048   4.919  1.00  0.00     0.024 A 
HETATM    5  C   UNL     1      64.688   6.731   3.505  1.00  0.00     0.016 A 
HETATM    6  C   UNL     1      65.151   8.350   5.246  1.00  0.00     0.016 A 
ENDROOT
BRANCH   1   7
HETATM    7  S   UNL     1      61.688   9.457   3.452  1.00  0.00     0.171 S 
HETATM    8  O   UNL     1      61.714  10.717   4.168  1.00  0.00    -0.223 OA
HETATM    9  O   UNL     1      60.571   8.544   3.589  1.00  0.00    -0.223 OA
HETATM   10  C   UNL     1      61.915   9.800   1.725  1.00  0.00     0.167 C 
ENDBRANCH   1   7
BRANCH   2  11
HETATM   11  C   UNL     1      66.752   6.463   4.950  1.00  0.00     0.155 C 
HETATM   12  O   UNL     1      67.388   6.845   5.930  1.00  0.00    -0.293 OA
HETATM   13  C   UNL     1      67.196   5.271   4.144  1.00  0.00     0.096 C 
ENDBRANCH   2  11
TORSDOF 2
ENDMDL
MODEL 6
REMARK VINA RESULT:      -4.4      2.675      3.367
REMARK  2 active torsions:
REMARK  status: ('A' for Active; 'I' for Inactive)
REMARK    1  A    between atoms: S_1  and  C_2 
REMARK    2  A    between atoms: C_5  and  C_6 
ROOT
HETATM    1  C   UNL     1      63.159   7.166   3.101  1.00  0.00     0.058 A 
HETATM    2  C   UNL     1      62.379   9.849   3.222  1.00  0.00     0.009 A 
HETATM    3  C   UNL     1      63.393   7.906   4.264  1.00  0.00     0.024 A 
HETATM    4  C   UNL     1      62.567   7.762   1.985  1.00  0.00     0.024 A 
HETATM    5  C   UNL     1      62.999   9.246   4.324  1.00  0.00     0.016 A 
HETATM    6  C   UNL     1      62.175   9.102   2.052  1.00  0.00     0.016 A 
ENDROOT
BRANCH   1   7
HETATM    7  S   UNL     1      63.684   5.468   3.025  1.00  0.00     0.171 S 
HETATM    8  O   UNL     1      64.472   5.208   4.215  1.00  0.00    -0.223 OA
HETATM    9  O   UNL     1      64.231   5.238   1.703  1.00  0.00    -0.223 OA
HETATM   10  C   UNL     1      62.165   4.561   3.162  1.00  0.00     0.167 C 
ENDBRANCH   1   7
BRANCH   2  11
HETATM   11  C   UNL     1      61.923  11.272   3.250  1.00  0.00     0.155 C 
HETATM   12  O   UNL     1      61.772  11.844   4.327  1.00  0.00    -0.293 OA
HETATM   13  C   UNL     1      61.666  11.981   1.946  1.00  0.00     0.096 C 
ENDBRANCH   2  11
TORSDOF 2
ENDMDL
MODEL 7
REMARK VINA RESULT:      -4.0      3.078      5.449
REMARK  2 active torsions:
REMARK  status: ('A' for Active; 'I' for Inactive)
REMARK    1  A    between atoms: S_1  and  C_2 
REMARK    2  A    between atoms: C_5  and  C_6 
ROOT
HETATM    1  C   UNL     1      60.808   7.599   3.506  1.00  0.00     0.058 A 
HETATM    2  C   UNL     1      63.271   8.347   4.601  1.00  0.00     0.009 A 
HETATM    3  C   UNL     1      61.378   6.830   4.525  1.00  0.00     0.024 A 
HETATM    4  C   UNL     1      61.472   8.722   3.006  1.00  0.00     0.024 A 
HETATM    5  C   UNL     1      62.607   7.207   5.074  1.00  0.00     0.016 A 
HETATM    6  C   UNL     1      62.700   9.094   3.559  1.00  0.00     0.016 A 
ENDROOT
BRANCH   1   7
HETATM    7  S   UNL     1      59.254   7.099   2.799  1.00  0.00     0.171 S 
HETATM    8  O   UNL     1      59.229   5.649   2.799  1.00  0.00    -0.223 OA
HETATM    9  O   UNL     1      59.071   7.849   1.573  1.00  0.00    -0.223 OA
HETATM   10  C   UNL     1      58.061   7.670   3.982  1.00  0.00     0.167 C 
ENDBRANCH   1   7
BRANCH   2  11
HETATM   11  C   UNL     1      64.577   8.799   5.172  1.00  0.00     0.155 C 
HETATM   12  O   UNL     1      64.646   9.877   5.758  1.00  0.00    -0.293 OA
HETATM   13  C   UNL     1      65.784   7.911   5.022  1.00  0.00     0.096 C 
ENDBRANCH   2  11
TORSDOF 2
ENDMDL
MODEL 8
REMARK VINA RESULT:      -3.9      7.521      9.150
REMARK  2 active torsions:
REMARK  status: ('A' for Active; 'I' for Inactive)
REMARK    1  A    between atoms: S_1  and  C_2 
REMARK    2  A    between atoms: C_5  and  C_6 
ROOT
HETATM    1  C   UNL     1      56.357   6.668   3.260  1.00  0.00     0.058 A 
HETATM    2  C   UNL     1      55.897   6.525   6.015  1.00  0.00     0.009 A 
HETATM    3  C   UNL     1      55.212   6.026   3.741  1.00  0.00     0.024 A 
HETATM    4  C   UNL     1      57.291   7.213   4.143  1.00  0.00     0.024 A 
HETATM    5  C   UNL     1      54.981   5.958   5.118  1.00  0.00     0.016 A 
HETATM    6  C   UNL     1      57.055   7.143   5.519  1.00  0.00     0.016 A 
ENDROOT
BRANCH   1   7
HETATM    7  S   UNL     1      56.652   6.729   1.507  1.00  0.00     0.171 S 
HETATM    8  O   UNL     1      57.780   7.615   1.292  1.00  0.00    -0.223 OA
HETATM    9  O   UNL     1      55.380   6.971   0.857  1.00  0.00    -0.223 OA
HETATM   10  C   UNL     1      57.169   5.077   1.118  1.00  0.00     0.167 C 
ENDBRANCH   1   7
BRANCH   2  11
HETATM   11  C   UNL     1      55.680   6.495   7.494  1.00  0.00     0.155 C 
HETATM   12  O   UNL     1      56.615   6.742   8.252  1.00  0.00    -0.293 OA
HETATM   13  C   UNL     1      54.309   6.168   8.024  1.00  0.00     0.096 C 
ENDBRANCH   2  11
TORSDOF 2
ENDMDL
MODEL 9
REMARK VINA RESULT:      -3.8      2.537      5.377
REMARK  2 active torsions:
REMARK  status: ('A' for Active; 'I' for Inactive)
REMARK    1  A    between atoms: S_1  and  C_2 
REMARK    2  A    between atoms: C_5  and  C_6 
ROOT
HETATM    1  C   UNL     1      62.519   7.277   4.592  1.00  0.00     0.058 A 
HETATM    2  C   UNL     1      65.016   7.622   5.802  1.00  0.00     0.009 A 
HETATM    3  C   UNL     1      62.860   6.513   5.712  1.00  0.00     0.024 A 
HETATM    4  C   UNL     1      63.426   8.190   4.050  1.00  0.00     0.024 A 
HETATM    5  C   UNL     1      64.107   6.689   6.318  1.00  0.00     0.016 A 
HETATM    6  C   UNL     1      64.671   8.363   4.661  1.00  0.00     0.016 A 
ENDROOT
BRANCH   1   7
HETATM    7  S   UNL     1      60.938   7.030   3.814  1.00  0.00     0.171 S 
HETATM    8  O   UNL     1      61.132   6.074   2.740  1.00  0.00    -0.223 OA
HETATM    9  O   UNL     1      60.369   8.337   3.555  1.00  0.00    -0.223 OA
HETATM   10  C   UNL     1      59.973   6.246   5.080  1.00  0.00     0.167 C 
ENDBRANCH   1   7
BRANCH   2  11
HETATM   11  C   UNL     1      66.352   7.858   6.430  1.00  0.00     0.155 C 
HETATM   12  O   UNL     1      66.635   8.974   6.861  1.00  0.00    -0.293 OA
HETATM   13  C   UNL     1      67.324   6.712   6.528  1.00  0.00     0.096 C 
ENDBRANCH   2  11
TORSDOF 2
ENDMDL
