MODEL 1
REMARK VINA RESULT:      -5.2      0.000      0.000
REMARK  0 active torsions:
REMARK  status: ('A' for Active; 'I' for Inactive)
ROOT
HETATM    1  C   UNL     1      63.042   9.539   5.232  1.00  0.00     0.164 A 
HETATM    2  C   UNL     1      62.592   9.841   3.875  1.00  0.00     0.016 A 
HETATM    3  C   UNL     1      62.782   8.710   3.091  1.00  0.00    -0.043 A 
HETATM    4  C   UNL     1      63.637   8.140   5.262  1.00  0.00     0.061 A 
HETATM    5  C   UNL     1      63.388   7.574   3.848  1.00  0.00     0.051 A 
HETATM    6  O   UNL     1      62.952  10.312   6.170  1.00  0.00    -0.292 OA
HETATM    7  C   UNL     1      62.052  11.012   3.376  1.00  0.00     0.015 A 
HETATM    8  C   UNL     1      62.404   8.716   1.758  1.00  0.00     0.008 A 
HETATM    9  C   UNL     1      63.010   7.261   6.332  1.00  0.00     0.018 C 
HETATM   10  C   UNL     1      61.678  11.026   2.030  1.00  0.00     0.001 A 
HETATM   11  C   UNL     1      61.848   9.885   1.229  1.00  0.00     0.001 A 
ENDROOT
TORSDOF 0
ENDMDL
MODEL 2
REMARK VINA RESULT:      -5.2      1.100      3.552
REMARK  0 active torsions:
REMARK  status: ('A' for Active; 'I' for Inactive)
ROOT
HETATM    1  C   UNL     1      62.273  10.528   4.062  1.00  0.00     0.164 A 
HETATM    2  C   UNL     1      63.012   9.271   4.153  1.00  0.00     0.016 A 
HETATM    3  C   UNL     1      62.827   8.569   2.968  1.00  0.00    -0.043 A 
HETATM    4  C   UNL     1      61.502  10.560   2.751  1.00  0.00     0.061 A 
HETATM    5  C   UNL     1      61.940   9.285   2.002  1.00  0.00     0.051 A 
HETATM    6  O   UNL     1      62.283  11.391   4.922  1.00  0.00    -0.292 OA
HETATM    7  C   UNL     1      63.789   8.790   5.191  1.00  0.00     0.015 A 
HETATM    8  C   UNL     1      63.451   7.347   2.779  1.00  0.00     0.008 A 
HETATM    9  C   UNL     1      61.789  11.811   1.936  1.00  0.00     0.018 C 
HETATM   10  C   UNL     1      64.413   7.553   5.008  1.00  0.00     0.001 A 
HETATM   11  C   UNL     1      64.250   6.841   3.810  1.00  0.00     0.001 A 
ENDROOT
TORSDOF 0
ENDMDL
MODEL 3
REMARK VINA RESULT:      -5.1      0.997      1.237
REMARK  0 active torsions:
REMARK  status: ('A' for Active; 'I' for Inactive)
ROOT
HETATM    1  C   UNL     1      62.970   8.518   5.013  1.00  0.00     0.164 A 
HETATM    2  C   UNL     1      62.557   9.541   4.055  1.00  0.00     0.016 A 
HETATM    3  C   UNL     1      62.522   8.965   2.791  1.00  0.00    -0.043 A 
HETATM    4  C   UNL     1      63.299   7.235   4.265  1.00  0.00     0.061 A 
HETATM    5  C   UNL     1      62.924   7.526   2.797  1.00  0.00     0.051 A 
HETATM    6  O   UNL     1      63.042   8.698   6.217  1.00  0.00    -0.292 OA
HETATM    7  C   UNL     1      62.232  10.865   4.280  1.00  0.00     0.015 A 
HETATM    8  C   UNL     1      62.126   9.715   1.696  1.00  0.00     0.008 A 
HETATM    9  C   UNL     1      62.542   6.033   4.806  1.00  0.00     0.018 C 
HETATM   10  C   UNL     1      61.841  11.629   3.177  1.00  0.00     0.001 A 
HETATM   11  C   UNL     1      61.784  11.056   1.896  1.00  0.00     0.001 A 
ENDROOT
TORSDOF 0
ENDMDL
MODEL 4
REMARK VINA RESULT:      -5.0      1.924      3.773
REMARK  0 active torsions:
REMARK  status: ('A' for Active; 'I' for Inactive)
ROOT
HETATM    1  C   UNL     1      62.853   7.732   2.302  1.00  0.00     0.164 A 
HETATM    2  C   UNL     1      62.795   8.833   3.260  1.00  0.00     0.016 A 
HETATM    3  C   UNL     1      62.136   9.899   2.659  1.00  0.00    -0.043 A 
HETATM    4  C   UNL     1      62.261   8.190   0.977  1.00  0.00     0.061 A 
HETATM    5  C   UNL     1      61.721   9.608   1.255  1.00  0.00     0.051 A 
HETATM    6  O   UNL     1      63.320   6.634   2.550  1.00  0.00    -0.292 OA
HETATM    7  C   UNL     1      63.274   8.888   4.555  1.00  0.00     0.015 A 
HETATM    8  C   UNL     1      61.916  11.069   3.368  1.00  0.00     0.008 A 
HETATM    9  C   UNL     1      61.164   7.263   0.478  1.00  0.00     0.018 C 
HETATM   10  C   UNL     1      63.062  10.069   5.271  1.00  0.00     0.001 A 
HETATM   11  C   UNL     1      62.383  11.148   4.684  1.00  0.00     0.001 A 
ENDROOT
TORSDOF 0
ENDMDL
MODEL 5
REMARK VINA RESULT:      -4.9      1.708      2.222
REMARK  0 active torsions:
REMARK  status: ('A' for Active; 'I' for Inactive)
ROOT
HETATM    1  C   UNL     1      65.159   8.395   5.334  1.00  0.00     0.164 A 
HETATM    2  C   UNL     1      63.984   9.060   4.776  1.00  0.00     0.016 A 
HETATM    3  C   UNL     1      63.478   8.265   3.755  1.00  0.00    -0.043 A 
HETATM    4  C   UNL     1      65.449   7.136   4.532  1.00  0.00     0.061 A 
HETATM    5  C   UNL     1      64.279   7.024   3.534  1.00  0.00     0.051 A 
HETATM    6  O   UNL     1      65.794   8.815   6.286  1.00  0.00    -0.292 OA
HETATM    7  C   UNL     1      63.404  10.259   5.144  1.00  0.00     0.015 A 
HETATM    8  C   UNL     1      62.335   8.652   3.074  1.00  0.00     0.008 A 
HETATM    9  C   UNL     1      65.555   5.898   5.408  1.00  0.00     0.018 C 
HETATM   10  C   UNL     1      62.256  10.658   4.454  1.00  0.00     0.001 A 
HETATM   11  C   UNL     1      61.723   9.858   3.432  1.00  0.00     0.001 A 
ENDROOT
TORSDOF 0
ENDMDL
MODEL 6
REMARK VINA RESULT:      -4.8      1.770      2.533
REMARK  0 active torsions:
REMARK  status: ('A' for Active; 'I' for Inactive)
ROOT
HETATM    1  C   UNL     1      63.448   7.462   3.323  1.00  0.00     0.164 A 
HETATM    2  C   UNL     1      62.813   8.726   2.960  1.00  0.00     0.016 A 
HETATM    3  C   UNL     1      62.719   9.510   4.103  1.00  0.00    -0.043 A 
HETATM    4  C   UNL     1      63.683   7.433   4.826  1.00  0.00     0.061 A 
HETATM    5  C   UNL     1      63.261   8.832   5.319  1.00  0.00     0.051 A 
HETATM    6  O   UNL     1      63.724   6.582   2.526  1.00  0.00    -0.292 OA
HETATM    7  C   UNL     1      62.364   9.153   1.724  1.00  0.00     0.015 A 
HETATM    8  C   UNL     1      62.179  10.784   4.030  1.00  0.00     0.008 A 
HETATM    9  C   UNL     1      65.128   7.127   5.185  1.00  0.00     0.018 C 
HETATM   10  C   UNL     1      61.810  10.433   1.647  1.00  0.00     0.001 A 
HETATM   11  C   UNL     1      61.724  11.244   2.790  1.00  0.00     0.001 A 
ENDROOT
TORSDOF 0
ENDMDL
MODEL 7
REMARK VINA RESULT:      -4.8      2.946      3.857
REMARK  0 active torsions:
REMARK  status: ('A' for Active; 'I' for Inactive)
ROOT
HETATM    1  C   UNL     1      66.541   8.043   5.975  1.00  0.00     0.164 A 
HETATM    2  C   UNL     1      65.418   7.970   5.043  1.00  0.00     0.016 A 
HETATM    3  C   UNL     1      65.599   6.860   4.228  1.00  0.00    -0.043 A 
HETATM    4  C   UNL     1      67.535   6.939   5.647  1.00  0.00     0.061 A 
HETATM    5  C   UNL     1      66.857   6.116   4.532  1.00  0.00     0.051 A 
HETATM    6  O   UNL     1      66.644   8.876   6.858  1.00  0.00    -0.292 OA
HETATM    7  C   UNL     1      64.324   8.808   4.930  1.00  0.00     0.015 A 
HETATM    8  C   UNL     1      64.651   6.540   3.269  1.00  0.00     0.008 A 
HETATM    9  C   UNL     1      67.867   6.076   6.853  1.00  0.00     0.018 C 
HETATM   10  C   UNL     1      63.370   8.494   3.958  1.00  0.00     0.001 A 
HETATM   11  C   UNL     1      63.530   7.366   3.138  1.00  0.00     0.001 A 
ENDROOT
TORSDOF 0
ENDMDL
MODEL 8
REMARK VINA RESULT:      -4.7      1.403      2.175
REMARK  0 active torsions:
REMARK  status: ('A' for Active; 'I' for Inactive)
ROOT
HETATM    1  C   UNL     1      62.631   7.781   4.058  1.00  0.00     0.164 A 
HETATM    2  C   UNL     1      62.352   9.106   3.512  1.00  0.00     0.016 A 
HETATM    3  C   UNL     1      62.298   9.005   2.127  1.00  0.00    -0.043 A 
HETATM    4  C   UNL     1      62.854   6.804   2.913  1.00  0.00     0.061 A 
HETATM    5  C   UNL     1      62.554   7.617   1.637  1.00  0.00     0.051 A 
HETATM    6  O   UNL     1      62.683   7.529   5.250  1.00  0.00    -0.292 OA
HETATM    7  C   UNL     1      62.153  10.300   4.180  1.00  0.00     0.015 A 
HETATM    8  C   UNL     1      62.013  10.121   1.359  1.00  0.00     0.008 A 
HETATM    9  C   UNL     1      61.964   5.576   3.013  1.00  0.00     0.018 C 
HETATM   10  C   UNL     1      61.875  11.432   3.408  1.00  0.00     0.001 A 
HETATM   11  C   UNL     1      61.800  11.341   2.009  1.00  0.00     0.001 A 
ENDROOT
TORSDOF 0
ENDMDL
MODEL 9
REMARK VINA RESULT:      -4.6      2.213      4.190
REMARK  0 active torsions:
REMARK  status: ('A' for Active; 'I' for Inactive)
ROOT
HETATM    1  C   UNL     1      64.190   9.064   5.111  1.00  0.00     0.164 A 
HETATM    2  C   UNL     1      65.218   8.067   4.826  1.00  0.00     0.016 A 
HETATM    3  C   UNL     1      64.692   7.140   3.935  1.00  0.00    -0.043 A 
HETATM    4  C   UNL     1      62.901   8.668   4.406  1.00  0.00     0.061 A 
HETATM    5  C   UNL     1      63.274   7.428   3.568  1.00  0.00     0.051 A 
HETATM    6  O   UNL     1      64.363  10.043   5.816  1.00  0.00    -0.292 OA
HETATM    7  C   UNL     1      66.513   7.988   5.306  1.00  0.00     0.015 A 
HETATM    8  C   UNL     1      65.478   6.097   3.472  1.00  0.00     0.008 A 
HETATM    9  C   UNL     1      62.346   9.783   3.535  1.00  0.00     0.018 C 
HETATM   10  C   UNL     1      67.306   6.932   4.849  1.00  0.00     0.001 A 
HETATM   11  C   UNL     1      66.794   5.998   3.935  1.00  0.00     0.001 A 
ENDROOT
TORSDOF 0
ENDMDL
