MODEL 1
REMARK VINA RESULT:      -4.3      0.000      0.000
REMARK  0 active torsions:
REMARK  status: ('A' for Active; 'I' for Inactive)
ROOT
HETATM    1  C   UNL     1      60.896   8.291   2.616  1.00  0.00     0.224 C 
HETATM    2  N   UNL     1      60.706   9.064   1.511  1.00  0.00    -0.355 N 
HETATM    3  C   UNL     1      62.369   8.699   2.719  1.00  0.00     0.104 C 
HETATM    4  C   UNL     1      62.023   9.729   1.616  1.00  0.00     0.101 C 
HETATM    5  O   UNL     1      60.167   7.471   3.118  1.00  0.00    -0.273 OA
HETATM    6  C   UNL     1      62.358  10.553   4.380  1.00  0.00    -0.030 C 
HETATM    7  C   UNL     1      61.882  11.424   3.481  1.00  0.00    -0.029 C 
HETATM    8  C   UNL     1      62.900   9.204   4.042  1.00  0.00     0.043 C 
HETATM    9  C   UNL     1      61.825  11.198   1.996  1.00  0.00     0.053 C 
HETATM   10  H   UNL     1      59.961   9.149   0.873  1.00  0.00     0.162 HD
ENDROOT
TORSDOF 0
ENDMDL
MODEL 2
REMARK VINA RESULT:      -4.1      2.091      3.454
REMARK  0 active torsions:
REMARK  status: ('A' for Active; 'I' for Inactive)
ROOT
HETATM    1  C   UNL     1      61.869  10.651   2.409  1.00  0.00     0.224 C 
HETATM    2  N   UNL     1      61.410  10.169   3.597  1.00  0.00    -0.355 N 
HETATM    3  C   UNL     1      62.469   9.295   2.024  1.00  0.00     0.104 C 
HETATM    4  C   UNL     1      61.719   8.759   3.269  1.00  0.00     0.101 C 
HETATM    5  O   UNL     1      61.915  11.787   2.004  1.00  0.00    -0.273 OA
HETATM    6  C   UNL     1      60.719   8.256   0.590  1.00  0.00    -0.030 C 
HETATM    7  C   UNL     1      59.963   7.944   1.650  1.00  0.00    -0.029 C 
HETATM    8  C   UNL     1      62.141   8.704   0.671  1.00  0.00     0.043 C 
HETATM    9  C   UNL     1      60.415   7.981   3.083  1.00  0.00     0.053 C 
HETATM   10  H   UNL     1      61.016  10.602   4.388  1.00  0.00     0.162 HD
ENDROOT
TORSDOF 0
ENDMDL
MODEL 3
REMARK VINA RESULT:      -4.1      2.398      3.082
REMARK  0 active torsions:
REMARK  status: ('A' for Active; 'I' for Inactive)
ROOT
HETATM    1  C   UNL     1      62.964   7.921   5.812  1.00  0.00     0.224 C 
HETATM    2  N   UNL     1      63.013   7.138   4.699  1.00  0.00    -0.355 N 
HETATM    3  C   UNL     1      63.821   9.008   5.155  1.00  0.00     0.104 C 
HETATM    4  C   UNL     1      63.636   8.183   3.857  1.00  0.00     0.101 C 
HETATM    5  O   UNL     1      62.551   7.667   6.917  1.00  0.00    -0.273 OA
HETATM    6  C   UNL     1      62.152  10.641   4.293  1.00  0.00    -0.030 C 
HETATM    7  C   UNL     1      61.843   9.854   3.254  1.00  0.00    -0.029 C 
HETATM    8  C   UNL     1      63.336  10.440   5.179  1.00  0.00     0.043 C 
HETATM    9  C   UNL     1      62.632   8.657   2.805  1.00  0.00     0.053 C 
HETATM   10  H   UNL     1      62.734   6.211   4.520  1.00  0.00     0.162 HD
ENDROOT
TORSDOF 0
ENDMDL
MODEL 4
REMARK VINA RESULT:      -3.9      2.778      3.547
REMARK  0 active torsions:
REMARK  status: ('A' for Active; 'I' for Inactive)
ROOT
HETATM    1  C   UNL     1      64.341   9.012   5.076  1.00  0.00     0.224 C 
HETATM    2  N   UNL     1      63.724  10.156   5.484  1.00  0.00    -0.355 N 
HETATM    3  C   UNL     1      63.002   8.317   4.809  1.00  0.00     0.104 C 
HETATM    4  C   UNL     1      62.379   9.714   5.054  1.00  0.00     0.101 C 
HETATM    5  O   UNL     1      65.504   8.699   5.140  1.00  0.00    -0.273 OA
HETATM    6  C   UNL     1      62.640   8.641   2.367  1.00  0.00    -0.030 C 
HETATM    7  C   UNL     1      62.270   9.917   2.540  1.00  0.00    -0.029 C 
HETATM    8  C   UNL     1      62.776   7.647   3.472  1.00  0.00     0.043 C 
HETATM    9  C   UNL     1      61.924  10.552   3.857  1.00  0.00     0.053 C 
HETATM   10  H   UNL     1      64.054  10.979   5.910  1.00  0.00     0.162 HD
ENDROOT
TORSDOF 0
ENDMDL
MODEL 5
REMARK VINA RESULT:      -3.8      2.616      3.904
REMARK  0 active torsions:
REMARK  status: ('A' for Active; 'I' for Inactive)
ROOT
HETATM    1  C   UNL     1      62.428  10.204   4.475  1.00  0.00     0.224 C 
HETATM    2  N   UNL     1      63.115   9.961   5.626  1.00  0.00    -0.355 N 
HETATM    3  C   UNL     1      63.079   9.012   3.766  1.00  0.00     0.104 C 
HETATM    4  C   UNL     1      63.639   8.656   5.166  1.00  0.00     0.101 C 
HETATM    5  O   UNL     1      61.748  11.152   4.169  1.00  0.00    -0.273 OA
HETATM    6  C   UNL     1      61.411   7.182   4.027  1.00  0.00    -0.030 C 
HETATM    7  C   UNL     1      61.758   6.980   5.305  1.00  0.00    -0.029 C 
HETATM    8  C   UNL     1      62.197   8.006   3.061  1.00  0.00     0.043 C 
HETATM    9  C   UNL     1      62.986   7.531   5.971  1.00  0.00     0.053 C 
HETATM   10  H   UNL     1      63.223  10.469   6.461  1.00  0.00     0.162 HD
ENDROOT
TORSDOF 0
ENDMDL
MODEL 6
REMARK VINA RESULT:      -3.7      6.350      7.359
REMARK  0 active torsions:
REMARK  status: ('A' for Active; 'I' for Inactive)
ROOT
HETATM    1  C   UNL     1      66.580   8.108   6.272  1.00  0.00     0.224 C 
HETATM    2  N   UNL     1      67.090   7.412   7.326  1.00  0.00    -0.355 N 
HETATM    3  C   UNL     1      67.530   7.423   5.285  1.00  0.00     0.104 C 
HETATM    4  C   UNL     1      67.894   6.504   6.477  1.00  0.00     0.101 C 
HETATM    5  O   UNL     1      65.814   9.041   6.263  1.00  0.00    -0.273 OA
HETATM    6  C   UNL     1      66.167   5.567   4.339  1.00  0.00    -0.030 C 
HETATM    7  C   UNL     1      66.319   4.824   5.443  1.00  0.00    -0.029 C 
HETATM    8  C   UNL     1      66.959   6.794   4.033  1.00  0.00     0.043 C 
HETATM    9  C   UNL     1      67.308   5.092   6.543  1.00  0.00     0.053 C 
HETATM   10  H   UNL     1      66.969   7.486   8.299  1.00  0.00     0.162 HD
ENDROOT
TORSDOF 0
ENDMDL
MODEL 7
REMARK VINA RESULT:      -3.6      2.506      3.263
REMARK  0 active torsions:
REMARK  status: ('A' for Active; 'I' for Inactive)
ROOT
HETATM    1  C   UNL     1      63.295   9.882   5.017  1.00  0.00     0.224 C 
HETATM    2  N   UNL     1      62.533  10.827   4.399  1.00  0.00    -0.355 N 
HETATM    3  C   UNL     1      62.254   8.788   4.755  1.00  0.00     0.104 C 
HETATM    4  C   UNL     1      61.558   9.848   3.867  1.00  0.00     0.101 C 
HETATM    5  O   UNL     1      64.298  10.010   5.675  1.00  0.00    -0.273 OA
HETATM    6  C   UNL     1      63.075   7.671   2.687  1.00  0.00    -0.030 C 
HETATM    7  C   UNL     1      62.639   8.672   1.912  1.00  0.00    -0.029 C 
HETATM    8  C   UNL     1      62.699   7.489   4.121  1.00  0.00     0.043 C 
HETATM    9  C   UNL     1      61.700   9.762   2.346  1.00  0.00     0.053 C 
HETATM   10  H   UNL     1      62.605  11.805   4.330  1.00  0.00     0.162 HD
ENDROOT
TORSDOF 0
ENDMDL
MODEL 8
REMARK VINA RESULT:      -3.5      7.540      8.451
REMARK  0 active torsions:
REMARK  status: ('A' for Active; 'I' for Inactive)
ROOT
HETATM    1  C   UNL     1      65.948   6.233   7.801  1.00  0.00     0.224 C 
HETATM    2  N   UNL     1      66.214   5.142   8.572  1.00  0.00    -0.355 N 
HETATM    3  C   UNL     1      67.410   6.346   7.355  1.00  0.00     0.104 C 
HETATM    4  C   UNL     1      67.590   4.976   8.054  1.00  0.00     0.101 C 
HETATM    5  O   UNL     1      64.947   6.903   7.732  1.00  0.00    -0.273 OA
HETATM    6  C   UNL     1      67.454   5.172   5.160  1.00  0.00    -0.030 C 
HETATM    7  C   UNL     1      67.425   3.968   5.746  1.00  0.00    -0.029 C 
HETATM    8  C   UNL     1      67.721   6.453   5.879  1.00  0.00     0.043 C 
HETATM    9  C   UNL     1      67.665   3.705   7.205  1.00  0.00     0.053 C 
HETATM   10  H   UNL     1      65.682   4.645   9.234  1.00  0.00     0.162 HD
ENDROOT
TORSDOF 0
ENDMDL
MODEL 9
REMARK VINA RESULT:      -3.5     12.536     13.406
REMARK  0 active torsions:
REMARK  status: ('A' for Active; 'I' for Inactive)
ROOT
HETATM    1  C   UNL     1      57.105   2.616  11.807  1.00  0.00     0.224 C 
HETATM    2  N   UNL     1      58.396   3.048  11.849  1.00  0.00    -0.355 N 
HETATM    3  C   UNL     1      57.538   1.146  11.789  1.00  0.00     0.104 C 
HETATM    4  C   UNL     1      58.956   1.697  12.075  1.00  0.00     0.101 C 
HETATM    5  O   UNL     1      56.088   3.242  11.640  1.00  0.00    -0.273 OA
HETATM    6  C   UNL     1      57.384   0.450  14.174  1.00  0.00    -0.030 C 
HETATM    7  C   UNL     1      58.525   1.080  14.484  1.00  0.00    -0.029 C 
HETATM    8  C   UNL     1      56.919   0.186  12.780  1.00  0.00     0.043 C 
HETATM    9  C   UNL     1      59.523   1.610  13.493  1.00  0.00     0.053 C 
HETATM   10  H   UNL     1      58.808   3.938  11.760  1.00  0.00     0.162 HD
ENDROOT
TORSDOF 0
ENDMDL
