MODEL 1
REMARK VINA RESULT:      -4.9      0.000      0.000
REMARK  3 active torsions:
REMARK  status: ('A' for Active; 'I' for Inactive)
REMARK    1  A    between atoms: C_1  and  C_2 
REMARK    2  A    between atoms: C_2  and  C_4 
REMARK    3  A    between atoms: C_2  and  O_6 
ROOT
HETATM    1  C   UNL     1      63.630   9.064   4.651  1.00  0.00    -0.019 A 
HETATM    2  C   UNL     1      63.047   8.665   3.435  1.00  0.00     0.010 A 
HETATM    3  C   UNL     1      63.282  10.308   5.191  1.00  0.00     0.010 A 
HETATM    4  C   UNL     1      62.370  11.137   4.534  1.00  0.00     0.001 A 
HETATM    5  C   UNL     1      62.130   9.492   2.782  1.00  0.00     0.001 A 
HETATM    6  C   UNL     1      61.795  10.726   3.329  1.00  0.00     0.000 A 
ENDROOT
BRANCH   1   7
HETATM    7  C   UNL     1      64.591   8.151   5.376  1.00  0.00     0.252 C 
BRANCH   7   8
HETATM    8  C   UNL     1      63.871   7.114   6.255  1.00  0.00     0.207 C 
HETATM    9  O   UNL     1      64.212   5.941   6.325  1.00  0.00    -0.646 OA
HETATM   10  O   UNL     1      62.821   7.602   6.957  1.00  0.00    -0.646 OA
ENDBRANCH   7   8
BRANCH   7  11
HETATM   11  O   UNL     1      65.499   8.973   6.105  1.00  0.00    -0.380 OA
HETATM   12  H   UNL     1      65.119   9.184   6.972  1.00  0.00     0.211 HD
ENDBRANCH   7  11
ENDBRANCH   1   7
TORSDOF 3
ENDMDL
MODEL 2
REMARK VINA RESULT:      -4.9      1.366      2.521
REMARK  3 active torsions:
REMARK  status: ('A' for Active; 'I' for Inactive)
REMARK    1  A    between atoms: C_1  and  C_2 
REMARK    2  A    between atoms: C_2  and  C_4 
REMARK    3  A    between atoms: C_2  and  O_6 
ROOT
HETATM    1  C   UNL     1      62.583   9.408   3.971  1.00  0.00    -0.019 A 
HETATM    2  C   UNL     1      62.265  10.750   4.253  1.00  0.00     0.010 A 
HETATM    3  C   UNL     1      62.475   8.952   2.651  1.00  0.00     0.010 A 
HETATM    4  C   UNL     1      62.060   9.814   1.634  1.00  0.00     0.001 A 
HETATM    5  C   UNL     1      61.856  11.612   3.233  1.00  0.00     0.001 A 
HETATM    6  C   UNL     1      61.752  11.145   1.928  1.00  0.00     0.000 A 
ENDROOT
BRANCH   1   7
HETATM    7  C   UNL     1      63.063   8.487   5.067  1.00  0.00     0.252 C 
BRANCH   7   8
HETATM    8  C   UNL     1      64.598   8.398   5.134  1.00  0.00     0.207 C 
HETATM    9  O   UNL     1      65.244   7.518   4.582  1.00  0.00    -0.646 OA
HETATM   10  O   UNL     1      65.188   9.380   5.856  1.00  0.00    -0.646 OA
ENDBRANCH   7   8
BRANCH   7  11
HETATM   11  O   UNL     1      62.434   7.223   4.874  1.00  0.00    -0.380 OA
HETATM   12  H   UNL     1      62.362   6.765   5.727  1.00  0.00     0.211 HD
ENDBRANCH   7  11
ENDBRANCH   1   7
TORSDOF 3
ENDMDL
MODEL 3
REMARK VINA RESULT:      -4.9      0.719      1.854
REMARK  3 active torsions:
REMARK  status: ('A' for Active; 'I' for Inactive)
REMARK    1  A    between atoms: C_1  and  C_2 
REMARK    2  A    between atoms: C_2  and  C_4 
REMARK    3  A    between atoms: C_2  and  O_6 
ROOT
HETATM    1  C   UNL     1      63.196   9.148   4.227  1.00  0.00    -0.019 A 
HETATM    2  C   UNL     1      62.776  10.415   4.675  1.00  0.00     0.010 A 
HETATM    3  C   UNL     1      62.825   8.729   2.944  1.00  0.00     0.010 A 
HETATM    4  C   UNL     1      62.054   9.554   2.123  1.00  0.00     0.001 A 
HETATM    5  C   UNL     1      62.010  11.241   3.850  1.00  0.00     0.001 A 
HETATM    6  C   UNL     1      61.648  10.810   2.578  1.00  0.00     0.000 A 
ENDROOT
BRANCH   1   7
HETATM    7  C   UNL     1      64.058   8.272   5.104  1.00  0.00     0.252 C 
BRANCH   7   8
HETATM    8  C   UNL     1      63.230   7.384   6.049  1.00  0.00     0.207 C 
HETATM    9  O   UNL     1      62.657   7.812   7.042  1.00  0.00    -0.646 OA
HETATM   10  O   UNL     1      63.179   6.078   5.694  1.00  0.00    -0.646 OA
ENDBRANCH   7   8
BRANCH   7  11
HETATM   11  O   UNL     1      64.978   9.118   5.789  1.00  0.00    -0.380 OA
HETATM   12  H   UNL     1      64.537   9.521   6.555  1.00  0.00     0.211 HD
ENDBRANCH   7  11
ENDBRANCH   1   7
TORSDOF 3
ENDMDL
MODEL 4
REMARK VINA RESULT:      -4.6      2.831      4.659
REMARK  3 active torsions:
REMARK  status: ('A' for Active; 'I' for Inactive)
REMARK    1  A    between atoms: C_1  and  C_2 
REMARK    2  A    between atoms: C_2  and  C_4 
REMARK    3  A    between atoms: C_2  and  O_6 
ROOT
HETATM    1  C   UNL     1      62.870   8.786   3.483  1.00  0.00    -0.019 A 
HETATM    2  C   UNL     1      63.578   9.227   4.616  1.00  0.00     0.010 A 
HETATM    3  C   UNL     1      63.260   7.591   2.865  1.00  0.00     0.010 A 
HETATM    4  C   UNL     1      64.332   6.850   3.367  1.00  0.00     0.001 A 
HETATM    5  C   UNL     1      64.646   8.481   5.120  1.00  0.00     0.001 A 
HETATM    6  C   UNL     1      65.024   7.297   4.495  1.00  0.00     0.000 A 
ENDROOT
BRANCH   1   7
HETATM    7  C   UNL     1      61.691   9.572   2.962  1.00  0.00     0.252 C 
BRANCH   7   8
HETATM    8  C   UNL     1      61.863  11.089   3.148  1.00  0.00     0.207 C 
HETATM    9  O   UNL     1      61.797  11.644   4.236  1.00  0.00    -0.646 OA
HETATM   10  O   UNL     1      62.099  11.774   2.003  1.00  0.00    -0.646 OA
ENDBRANCH   7   8
BRANCH   7  11
HETATM   11  O   UNL     1      60.519   9.057   3.589  1.00  0.00    -0.380 OA
HETATM   12  H   UNL     1      60.702   8.170   3.938  1.00  0.00     0.211 HD
ENDBRANCH   7  11
ENDBRANCH   1   7
TORSDOF 3
ENDMDL
MODEL 5
REMARK VINA RESULT:      -4.3      2.313      4.265
REMARK  3 active torsions:
REMARK  status: ('A' for Active; 'I' for Inactive)
REMARK    1  A    between atoms: C_1  and  C_2 
REMARK    2  A    between atoms: C_2  and  C_4 
REMARK    3  A    between atoms: C_2  and  O_6 
ROOT
HETATM    1  C   UNL     1      63.430   8.666   4.973  1.00  0.00    -0.019 A 
HETATM    2  C   UNL     1      64.836   8.624   5.002  1.00  0.00     0.010 A 
HETATM    3  C   UNL     1      62.710   7.701   5.688  1.00  0.00     0.010 A 
HETATM    4  C   UNL     1      63.378   6.715   6.418  1.00  0.00     0.001 A 
HETATM    5  C   UNL     1      65.501   7.641   5.737  1.00  0.00     0.001 A 
HETATM    6  C   UNL     1      64.774   6.688   6.441  1.00  0.00     0.000 A 
ENDROOT
BRANCH   1   7
HETATM    7  C   UNL     1      62.710   9.753   4.210  1.00  0.00     0.252 C 
BRANCH   7   8
HETATM    8  C   UNL     1      62.582  11.056   5.018  1.00  0.00     0.207 C 
HETATM    9  O   UNL     1      63.041  11.196   6.143  1.00  0.00    -0.646 OA
HETATM   10  O   UNL     1      61.917  12.050   4.382  1.00  0.00    -0.646 OA
ENDBRANCH   7   8
BRANCH   7  11
HETATM   11  O   UNL     1      61.455   9.226   3.789  1.00  0.00    -0.380 OA
HETATM   12  H   UNL     1      61.598   8.388   3.319  1.00  0.00     0.211 HD
ENDBRANCH   7  11
ENDBRANCH   1   7
TORSDOF 3
ENDMDL
MODEL 6
REMARK VINA RESULT:      -4.2      3.076      4.355
REMARK  3 active torsions:
REMARK  status: ('A' for Active; 'I' for Inactive)
REMARK    1  A    between atoms: C_1  and  C_2 
REMARK    2  A    between atoms: C_2  and  C_4 
REMARK    3  A    between atoms: C_2  and  O_6 
ROOT
HETATM    1  C   UNL     1      62.517   9.189   4.248  1.00  0.00    -0.019 A 
HETATM    2  C   UNL     1      61.934   7.909   4.200  1.00  0.00     0.010 A 
HETATM    3  C   UNL     1      63.834   9.315   4.705  1.00  0.00     0.010 A 
HETATM    4  C   UNL     1      64.556   8.189   5.107  1.00  0.00     0.001 A 
HETATM    5  C   UNL     1      62.660   6.784   4.596  1.00  0.00     0.001 A 
HETATM    6  C   UNL     1      63.967   6.924   5.050  1.00  0.00     0.000 A 
ENDROOT
BRANCH   1   7
HETATM    7  C   UNL     1      61.745  10.401   3.782  1.00  0.00     0.252 C 
BRANCH   7   8
HETATM    8  C   UNL     1      61.950  10.693   2.286  1.00  0.00     0.207 C 
HETATM    9  O   UNL     1      62.095   9.817   1.444  1.00  0.00    -0.646 OA
HETATM   10  O   UNL     1      61.955  12.008   1.964  1.00  0.00    -0.646 OA
ENDBRANCH   7   8
BRANCH   7  11
HETATM   11  O   UNL     1      62.107  11.492   4.623  1.00  0.00    -0.380 OA
HETATM   12  H   UNL     1      62.292  12.273   4.078  1.00  0.00     0.211 HD
ENDBRANCH   7  11
ENDBRANCH   1   7
TORSDOF 3
ENDMDL
MODEL 7
REMARK VINA RESULT:      -4.2      2.262      4.748
REMARK  3 active torsions:
REMARK  status: ('A' for Active; 'I' for Inactive)
REMARK    1  A    between atoms: C_1  and  C_2 
REMARK    2  A    between atoms: C_2  and  C_4 
REMARK    3  A    between atoms: C_2  and  O_6 
ROOT
HETATM    1  C   UNL     1      65.121   7.307   5.815  1.00  0.00    -0.019 A 
HETATM    2  C   UNL     1      65.548   6.802   7.057  1.00  0.00     0.010 A 
HETATM    3  C   UNL     1      66.029   7.337   4.750  1.00  0.00     0.010 A 
HETATM    4  C   UNL     1      67.335   6.872   4.918  1.00  0.00     0.001 A 
HETATM    5  C   UNL     1      66.853   6.332   7.221  1.00  0.00     0.001 A 
HETATM    6  C   UNL     1      67.744   6.369   6.155  1.00  0.00     0.000 A 
ENDROOT
BRANCH   1   7
HETATM    7  C   UNL     1      63.699   7.779   5.627  1.00  0.00     0.252 C 
BRANCH   7   8
HETATM    8  C   UNL     1      63.619   9.200   5.044  1.00  0.00     0.207 C 
HETATM    9  O   UNL     1      63.008   9.472   4.019  1.00  0.00    -0.646 OA
HETATM   10  O   UNL     1      64.281  10.140   5.759  1.00  0.00    -0.646 OA
ENDBRANCH   7   8
BRANCH   7  11
HETATM   11  O   UNL     1      63.031   7.646   6.879  1.00  0.00    -0.380 OA
HETATM   12  H   UNL     1      63.671   7.384   7.560  1.00  0.00     0.211 HD
ENDBRANCH   7  11
ENDBRANCH   1   7
TORSDOF 3
ENDMDL
MODEL 8
REMARK VINA RESULT:      -4.1      2.579      3.669
REMARK  3 active torsions:
REMARK  status: ('A' for Active; 'I' for Inactive)
REMARK    1  A    between atoms: C_1  and  C_2 
REMARK    2  A    between atoms: C_2  and  C_4 
REMARK    3  A    between atoms: C_2  and  O_6 
ROOT
HETATM    1  C   UNL     1      61.583   9.026   2.626  1.00  0.00    -0.019 A 
HETATM    2  C   UNL     1      61.783   8.971   1.234  1.00  0.00     0.010 A 
HETATM    3  C   UNL     1      60.704   8.112   3.219  1.00  0.00     0.010 A 
HETATM    4  C   UNL     1      60.039   7.161   2.441  1.00  0.00     0.001 A 
HETATM    5  C   UNL     1      61.121   8.015   0.459  1.00  0.00     0.001 A 
HETATM    6  C   UNL     1      60.250   7.114   1.061  1.00  0.00     0.000 A 
ENDROOT
BRANCH   1   7
HETATM    7  C   UNL     1      62.329  10.033   3.468  1.00  0.00     0.252 C 
BRANCH   7   8
HETATM    8  C   UNL     1      63.187   9.372   4.559  1.00  0.00     0.207 C 
HETATM    9  O   UNL     1      64.025   8.512   4.325  1.00  0.00    -0.646 OA
HETATM   10  O   UNL     1      62.946   9.819   5.814  1.00  0.00    -0.646 OA
ENDBRANCH   7   8
BRANCH   7  11
HETATM   11  O   UNL     1      61.373  10.955   3.985  1.00  0.00    -0.380 OA
HETATM   12  H   UNL     1      61.806  11.807   4.158  1.00  0.00     0.211 HD
ENDBRANCH   7  11
ENDBRANCH   1   7
TORSDOF 3
ENDMDL
MODEL 9
REMARK VINA RESULT:      -4.1      1.911      2.857
REMARK  3 active torsions:
REMARK  status: ('A' for Active; 'I' for Inactive)
REMARK    1  A    between atoms: C_1  and  C_2 
REMARK    2  A    between atoms: C_2  and  C_4 
REMARK    3  A    between atoms: C_2  and  O_6 
ROOT
HETATM    1  C   UNL     1      65.311   7.793   4.904  1.00  0.00    -0.019 A 
HETATM    2  C   UNL     1      65.268   6.718   3.997  1.00  0.00     0.010 A 
HETATM    3  C   UNL     1      64.300   8.760   4.852  1.00  0.00     0.010 A 
HETATM    4  C   UNL     1      63.266   8.658   3.918  1.00  0.00     0.001 A 
HETATM    5  C   UNL     1      64.230   6.614   3.068  1.00  0.00     0.001 A 
HETATM    6  C   UNL     1      63.234   7.583   3.027  1.00  0.00     0.000 A 
ENDROOT
BRANCH   1   7
HETATM    7  C   UNL     1      66.410   7.884   5.934  1.00  0.00     0.252 C 
BRANCH   7   8
HETATM    8  C   UNL     1      66.435   6.671   6.880  1.00  0.00     0.207 C 
HETATM    9  O   UNL     1      65.486   6.346   7.580  1.00  0.00    -0.646 OA
HETATM   10  O   UNL     1      67.599   5.979   6.879  1.00  0.00    -0.646 OA
ENDBRANCH   7   8
BRANCH   7  11
HETATM   11  O   UNL     1      66.262   9.126   6.616  1.00  0.00    -0.380 OA
HETATM   12  H   UNL     1      65.809   8.978   7.462  1.00  0.00     0.211 HD
ENDBRANCH   7  11
ENDBRANCH   1   7
TORSDOF 3
ENDMDL
