MODEL 1
REMARK VINA RESULT:      -4.6      0.000      0.000
REMARK  1 active torsions:
REMARK  status: ('A' for Active; 'I' for Inactive)
REMARK    1  A    between atoms: C_6  and  N_12 
ROOT
HETATM    1  C   UNL     1      64.400   8.640   4.870  1.00  0.00     0.068 A 
HETATM    2  C   UNL     1      63.369   8.654   3.952  1.00  0.00     0.081 A 
HETATM    3  N   UNL     1      64.114   9.667   5.731  1.00  0.00    -0.298 N 
HETATM    4  N   UNL     1      62.988  10.336   5.429  1.00  0.00    -0.285 N 
ATOM      5  HN  UNL     1      62.574  11.126   5.922  1.00  0.00     0.188 HD
HETATM    6  C   UNL     1      62.544   9.725   4.338  1.00  0.00     0.115 A 
HETATM    7  C   UNL     1      65.550   7.790   4.971  1.00  0.00     0.033 A 
HETATM    8  S   UNL     1      66.702   7.952   6.232  1.00  0.00    -0.100 SA
HETATM    9  C   UNL     1      65.898   6.764   4.112  1.00  0.00     0.021 A 
HETATM   10  C   UNL     1      67.643   6.656   5.638  1.00  0.00     0.050 A 
HETATM   11  C   UNL     1      67.104   6.108   4.496  1.00  0.00     0.008 A 
HETATM   12  H   UNL     1      64.682   9.894   6.501  1.00  0.00     0.187 HD
ENDROOT
BRANCH   6  13
HETATM   13  N   UNL     1      61.438  10.087   3.682  1.00  0.00    -0.384 N 
HETATM   14  H   UNL     1      60.706   9.441   3.558  1.00  0.00     0.157 HD
HETATM   15  H   UNL     1      61.354  11.001   3.324  1.00  0.00     0.157 HD
ENDBRANCH   6  13
TORSDOF 1
ENDMDL
MODEL 2
REMARK VINA RESULT:      -4.5      3.554      4.549
REMARK  1 active torsions:
REMARK  status: ('A' for Active; 'I' for Inactive)
REMARK    1  A    between atoms: C_6  and  N_12 
ROOT
HETATM    1  C   UNL     1      62.787   9.153   3.652  1.00  0.00     0.068 A 
HETATM    2  C   UNL     1      62.444  10.346   4.256  1.00  0.00     0.081 A 
HETATM    3  N   UNL     1      63.760   8.622   4.457  1.00  0.00    -0.298 N 
HETATM    4  N   UNL     1      64.068   9.386   5.519  1.00  0.00    -0.285 N 
ATOM      5  HN  UNL     1      64.751   9.199   6.253  1.00  0.00     0.188 HD
HETATM    6  C   UNL     1      63.275  10.442   5.387  1.00  0.00     0.115 A 
HETATM    7  C   UNL     1      62.296   8.537   2.454  1.00  0.00     0.033 A 
HETATM    8  S   UNL     1      62.868   7.015   1.906  1.00  0.00    -0.100 SA
HETATM    9  C   UNL     1      61.340   9.045   1.595  1.00  0.00     0.021 A 
HETATM   10  C   UNL     1      61.837   7.036   0.544  1.00  0.00     0.050 A 
HETATM   11  C   UNL     1      61.073   8.180   0.493  1.00  0.00     0.008 A 
HETATM   12  H   UNL     1      64.195   7.759   4.274  1.00  0.00     0.187 HD
ENDROOT
BRANCH   6  13
HETATM   13  N   UNL     1      63.266  11.475   6.232  1.00  0.00    -0.384 N 
HETATM   14  H   UNL     1      63.426  11.327   7.192  1.00  0.00     0.157 HD
HETATM   15  H   UNL     1      63.100  12.386   5.896  1.00  0.00     0.157 HD
ENDBRANCH   6  13
TORSDOF 1
ENDMDL
MODEL 3
REMARK VINA RESULT:      -4.3      2.416      4.650
REMARK  1 active torsions:
REMARK  status: ('A' for Active; 'I' for Inactive)
REMARK    1  A    between atoms: C_6  and  N_12 
ROOT
HETATM    1  C   UNL     1      64.911   8.286   5.033  1.00  0.00     0.068 A 
HETATM    2  C   UNL     1      65.750   7.244   4.695  1.00  0.00     0.081 A 
HETATM    3  N   UNL     1      65.432   8.789   6.196  1.00  0.00    -0.298 N 
HETATM    4  N   UNL     1      66.529   8.144   6.627  1.00  0.00    -0.285 N 
ATOM      5  HN  UNL     1      67.088   8.339   7.458  1.00  0.00     0.188 HD
HETATM    6  C   UNL     1      66.713   7.196   5.718  1.00  0.00     0.115 A 
HETATM    7  C   UNL     1      63.738   8.792   4.381  1.00  0.00     0.033 A 
HETATM    8  S   UNL     1      62.859  10.134   4.988  1.00  0.00    -0.100 SA
HETATM    9  C   UNL     1      63.158   8.302   3.226  1.00  0.00     0.021 A 
HETATM   10  C   UNL     1      61.726  10.062   3.711  1.00  0.00     0.050 A 
HETATM   11  C   UNL     1      61.998   9.034   2.837  1.00  0.00     0.008 A 
HETATM   12  H   UNL     1      65.037   9.553   6.673  1.00  0.00     0.187 HD
ENDROOT
BRANCH   6  13
HETATM   13  N   UNL     1      67.701   6.299   5.770  1.00  0.00    -0.384 N 
HETATM   14  H   UNL     1      68.479   6.456   6.353  1.00  0.00     0.157 HD
HETATM   15  H   UNL     1      67.652   5.479   5.225  1.00  0.00     0.157 HD
ENDBRANCH   6  13
TORSDOF 1
ENDMDL
MODEL 4
REMARK VINA RESULT:      -4.1      3.110      4.913
REMARK  1 active torsions:
REMARK  status: ('A' for Active; 'I' for Inactive)
REMARK    1  A    between atoms: C_6  and  N_12 
ROOT
HETATM    1  C   UNL     1      64.900   7.314   6.488  1.00  0.00     0.068 A 
HETATM    2  C   UNL     1      65.555   6.513   7.402  1.00  0.00     0.081 A 
HETATM    3  N   UNL     1      65.735   8.385   6.303  1.00  0.00    -0.298 N 
HETATM    4  N   UNL     1      66.863   8.332   7.031  1.00  0.00    -0.285 N 
ATOM      5  HN  UNL     1      67.629   9.004   7.057  1.00  0.00     0.188 HD
HETATM    6  C   UNL     1      66.744   7.197   7.710  1.00  0.00     0.115 A 
HETATM    7  C   UNL     1      63.633   7.148   5.837  1.00  0.00     0.033 A 
HETATM    8  S   UNL     1      63.029   8.285   4.704  1.00  0.00    -0.100 SA
HETATM    9  C   UNL     1      62.745   6.104   6.013  1.00  0.00     0.021 A 
HETATM   10  C   UNL     1      61.603   7.380   4.447  1.00  0.00     0.050 A 
HETATM   11  C   UNL     1      61.573   6.236   5.212  1.00  0.00     0.008 A 
HETATM   12  H   UNL     1      65.526   9.127   5.691  1.00  0.00     0.187 HD
ENDROOT
BRANCH   6  13
HETATM   13  N   UNL     1      67.653   6.756   8.584  1.00  0.00    -0.384 N 
HETATM   14  H   UNL     1      68.000   7.360   9.280  1.00  0.00     0.157 HD
HETATM   15  H   UNL     1      67.976   5.827   8.533  1.00  0.00     0.157 HD
ENDBRANCH   6  13
TORSDOF 1
ENDMDL
MODEL 5
REMARK VINA RESULT:      -3.9      2.076      2.367
REMARK  1 active torsions:
REMARK  status: ('A' for Active; 'I' for Inactive)
REMARK    1  A    between atoms: C_6  and  N_12 
ROOT
HETATM    1  C   UNL     1      63.672   8.676   4.352  1.00  0.00     0.068 A 
HETATM    2  C   UNL     1      62.768   9.651   3.980  1.00  0.00     0.081 A 
HETATM    3  N   UNL     1      64.278   9.174   5.476  1.00  0.00    -0.298 N 
HETATM    4  N   UNL     1      63.836  10.390   5.842  1.00  0.00    -0.285 N 
ATOM      5  HN  UNL     1      64.131  10.953   6.639  1.00  0.00     0.188 HD
HETATM    6  C   UNL     1      62.926  10.683   4.922  1.00  0.00     0.115 A 
HETATM    7  C   UNL     1      63.979   7.409   3.756  1.00  0.00     0.033 A 
HETATM    8  S   UNL     1      65.145   6.341   4.423  1.00  0.00    -0.100 SA
HETATM    9  C   UNL     1      63.419   6.877   2.610  1.00  0.00     0.021 A 
HETATM   10  C   UNL     1      64.889   5.180   3.196  1.00  0.00     0.050 A 
HETATM   11  C   UNL     1      63.942   5.591   2.285  1.00  0.00     0.008 A 
HETATM   12  H   UNL     1      64.974   8.685   5.970  1.00  0.00     0.187 HD
ENDROOT
BRANCH   6  13
HETATM   13  N   UNL     1      62.239  11.828   4.895  1.00  0.00    -0.384 N 
HETATM   14  H   UNL     1      61.423  11.899   4.348  1.00  0.00     0.157 HD
HETATM   15  H   UNL     1      62.548  12.601   5.421  1.00  0.00     0.157 HD
ENDBRANCH   6  13
TORSDOF 1
ENDMDL
MODEL 6
REMARK VINA RESULT:      -3.8      3.714      5.370
REMARK  1 active torsions:
REMARK  status: ('A' for Active; 'I' for Inactive)
REMARK    1  A    between atoms: C_6  and  N_12 
ROOT
HETATM    1  C   UNL     1      65.463   6.478   6.961  1.00  0.00     0.068 A 
HETATM    2  C   UNL     1      66.551   6.967   7.655  1.00  0.00     0.081 A 
HETATM    3  N   UNL     1      65.273   5.215   7.458  1.00  0.00    -0.298 N 
HETATM    4  N   UNL     1      66.158   4.861   8.405  1.00  0.00    -0.285 N 
ATOM      5  HN  UNL     1      66.213   3.983   8.919  1.00  0.00     0.188 HD
HETATM    6  C   UNL     1      66.944   5.926   8.514  1.00  0.00     0.115 A 
HETATM    7  C   UNL     1      64.660   7.078   5.936  1.00  0.00     0.033 A 
HETATM    8  S   UNL     1      63.323   6.270   5.228  1.00  0.00    -0.100 SA
HETATM    9  C   UNL     1      64.829   8.333   5.383  1.00  0.00     0.021 A 
HETATM   10  C   UNL     1      62.973   7.592   4.204  1.00  0.00     0.050 A 
HETATM   11  C   UNL     1      63.857   8.631   4.384  1.00  0.00     0.008 A 
HETATM   12  H   UNL     1      64.553   4.621   7.149  1.00  0.00     0.187 HD
ENDROOT
BRANCH   6  13
HETATM   13  N   UNL     1      67.987   5.998   9.345  1.00  0.00    -0.384 N 
HETATM   14  H   UNL     1      67.873   5.775  10.297  1.00  0.00     0.157 HD
HETATM   15  H   UNL     1      68.869   6.273   9.005  1.00  0.00     0.157 HD
ENDBRANCH   6  13
TORSDOF 1
ENDMDL
MODEL 7
REMARK VINA RESULT:      -3.8      3.130      4.953
REMARK  1 active torsions:
REMARK  status: ('A' for Active; 'I' for Inactive)
REMARK    1  A    between atoms: C_6  and  N_12 
ROOT
HETATM    1  C   UNL     1      62.926   8.062   4.241  1.00  0.00     0.068 A 
HETATM    2  C   UNL     1      64.243   8.429   4.437  1.00  0.00     0.081 A 
HETATM    3  N   UNL     1      62.531   7.532   5.441  1.00  0.00    -0.298 N 
HETATM    4  N   UNL     1      63.493   7.525   6.380  1.00  0.00    -0.285 N 
ATOM      5  HN  UNL     1      63.433   7.189   7.340  1.00  0.00     0.188 HD
HETATM    6  C   UNL     1      64.538   8.060   5.761  1.00  0.00     0.115 A 
HETATM    7  C   UNL     1      62.089   8.167   3.082  1.00  0.00     0.033 A 
HETATM    8  S   UNL     1      60.451   7.656   3.086  1.00  0.00    -0.100 SA
HETATM    9  C   UNL     1      62.449   8.666   1.844  1.00  0.00     0.021 A 
HETATM   10  C   UNL     1      60.230   8.110   1.453  1.00  0.00     0.050 A 
HETATM   11  C   UNL     1      61.379   8.634   0.904  1.00  0.00     0.008 A 
HETATM   12  H   UNL     1      61.624   7.186   5.601  1.00  0.00     0.187 HD
ENDROOT
BRANCH   6  13
HETATM   13  N   UNL     1      65.733   8.229   6.333  1.00  0.00    -0.384 N 
HETATM   14  H   UNL     1      66.255   9.044   6.151  1.00  0.00     0.157 HD
HETATM   15  H   UNL     1      66.092   7.540   6.938  1.00  0.00     0.157 HD
ENDBRANCH   6  13
TORSDOF 1
ENDMDL
MODEL 8
REMARK VINA RESULT:      -3.8      2.717      3.089
REMARK  1 active torsions:
REMARK  status: ('A' for Active; 'I' for Inactive)
REMARK    1  A    between atoms: C_6  and  N_12 
ROOT
HETATM    1  C   UNL     1      62.645   8.807   3.050  1.00  0.00     0.068 A 
HETATM    2  C   UNL     1      62.192   9.632   2.040  1.00  0.00     0.081 A 
HETATM    3  N   UNL     1      62.575   9.575   4.183  1.00  0.00    -0.298 N 
HETATM    4  N   UNL     1      62.121  10.822   3.971  1.00  0.00    -0.285 N 
ATOM      5  HN  UNL     1      61.980  11.565   4.655  1.00  0.00     0.188 HD
HETATM    6  C   UNL     1      61.902  10.858   2.663  1.00  0.00     0.115 A 
HETATM    7  C   UNL     1      63.109   7.451   3.013  1.00  0.00     0.033 A 
HETATM    8  S   UNL     1      63.608   6.614   4.426  1.00  0.00    -0.100 SA
HETATM    9  C   UNL     1      63.227   6.648   1.895  1.00  0.00     0.021 A 
HETATM   10  C   UNL     1      63.963   5.193   3.546  1.00  0.00     0.050 A 
HETATM   11  C   UNL     1      63.718   5.345   2.200  1.00  0.00     0.008 A 
HETATM   12  H   UNL     1      62.834   9.242   5.072  1.00  0.00     0.187 HD
ENDROOT
BRANCH   6  13
HETATM   13  N   UNL     1      61.455  11.936   2.014  1.00  0.00    -0.384 N 
HETATM   14  H   UNL     1      61.186  12.738   2.519  1.00  0.00     0.157 HD
HETATM   15  H   UNL     1      61.394  11.930   1.031  1.00  0.00     0.157 HD
ENDBRANCH   6  13
TORSDOF 1
ENDMDL
MODEL 9
REMARK VINA RESULT:      -3.6      2.100      2.199
REMARK  1 active torsions:
REMARK  status: ('A' for Active; 'I' for Inactive)
REMARK    1  A    between atoms: C_6  and  N_12 
ROOT
HETATM    1  C   UNL     1      63.252   8.030   4.819  1.00  0.00     0.068 A 
HETATM    2  C   UNL     1      63.052   9.160   4.052  1.00  0.00     0.081 A 
HETATM    3  N   UNL     1      62.075   7.334   4.727  1.00  0.00    -0.298 N 
HETATM    4  N   UNL     1      61.142   7.936   3.970  1.00  0.00    -0.285 N 
ATOM      5  HN  UNL     1      60.201   7.610   3.753  1.00  0.00     0.188 HD
HETATM    6  C   UNL     1      61.735   9.054   3.571  1.00  0.00     0.115 A 
HETATM    7  C   UNL     1      64.392   7.604   5.578  1.00  0.00     0.033 A 
HETATM    8  S   UNL     1      64.414   6.125   6.447  1.00  0.00    -0.100 SA
HETATM    9  C   UNL     1      65.587   8.283   5.726  1.00  0.00     0.021 A 
HETATM   10  C   UNL     1      66.008   6.390   7.001  1.00  0.00     0.050 A 
HETATM   11  C   UNL     1      66.521   7.584   6.545  1.00  0.00     0.008 A 
HETATM   12  H   UNL     1      61.927   6.472   5.176  1.00  0.00     0.187 HD
ENDROOT
BRANCH   6  13
HETATM   13  N   UNL     1      61.148   9.973   2.800  1.00  0.00    -0.384 N 
HETATM   14  H   UNL     1      60.238  10.284   3.012  1.00  0.00     0.157 HD
HETATM   15  H   UNL     1      61.624  10.339   2.019  1.00  0.00     0.157 HD
ENDBRANCH   6  13
TORSDOF 1
ENDMDL
