MODEL 1
REMARK VINA RESULT:      -4.5      0.000      0.000
REMARK  2 active torsions:
REMARK  status: ('A' for Active; 'I' for Inactive)
REMARK    1  A    between atoms: C_1  and  C_2 
REMARK    2  A    between atoms: C_3  and  O_9 
ROOT
HETATM    1  C   UNL     1      63.431   9.587   4.879  1.00  0.00     0.081 A 
HETATM    2  C   UNL     1      64.625   8.817   5.181  1.00  0.00     0.092 A 
HETATM    3  S   UNL     1      63.384   7.458   3.372  1.00  0.00    -0.110 SA
HETATM    4  C   UNL     1      62.693   8.921   3.902  1.00  0.00     0.070 A 
HETATM    5  C   UNL     1      64.696   7.660   4.428  1.00  0.00     0.087 A 
ENDROOT
BRANCH   1   6
HETATM    6  C   UNL     1      62.935  10.855   5.411  1.00  0.00     0.212 C 
HETATM    7  O   UNL     1      63.176  11.364   6.497  1.00  0.00    -0.644 OA
HETATM    8  O   UNL     1      62.107  11.531   4.575  1.00  0.00    -0.644 OA
ENDBRANCH   1   6
BRANCH   2   9
HETATM    9  O   UNL     1      65.671   8.991   6.032  1.00  0.00    -0.354 OA
HETATM   10  C   UNL     1      66.394   7.848   6.439  1.00  0.00     0.210 C 
ENDBRANCH   2   9
TORSDOF 2
ENDMDL
MODEL 2
REMARK VINA RESULT:      -4.1      1.597      3.607
REMARK  2 active torsions:
REMARK  status: ('A' for Active; 'I' for Inactive)
REMARK    1  A    between atoms: C_1  and  C_2 
REMARK    2  A    between atoms: C_3  and  O_9 
ROOT
HETATM    1  C   UNL     1      62.928   9.341   4.442  1.00  0.00     0.081 A 
HETATM    2  C   UNL     1      61.990   9.983   3.536  1.00  0.00     0.092 A 
HETATM    3  S   UNL     1      61.799   7.459   3.031  1.00  0.00    -0.110 SA
HETATM    4  C   UNL     1      62.890   7.963   4.237  1.00  0.00     0.070 A 
HETATM    5  C   UNL     1      61.335   9.064   2.738  1.00  0.00     0.087 A 
ENDROOT
BRANCH   1   6
HETATM    6  C   UNL     1      63.829   9.891   5.454  1.00  0.00     0.212 C 
HETATM    7  O   UNL     1      64.944   9.499   5.765  1.00  0.00    -0.644 OA
HETATM    8  O   UNL     1      63.340  10.971   6.115  1.00  0.00    -0.644 OA
ENDBRANCH   1   6
BRANCH   2   9
HETATM    9  O   UNL     1      61.627  11.273   3.312  1.00  0.00    -0.354 OA
HETATM   10  C   UNL     1      61.753  11.781   2.000  1.00  0.00     0.210 C 
ENDBRANCH   2   9
TORSDOF 2
ENDMDL
MODEL 3
REMARK VINA RESULT:      -4.1      1.643      2.271
REMARK  2 active torsions:
REMARK  status: ('A' for Active; 'I' for Inactive)
REMARK    1  A    between atoms: C_1  and  C_2 
REMARK    2  A    between atoms: C_3  and  O_9 
ROOT
HETATM    1  C   UNL     1      61.981   9.729   3.787  1.00  0.00     0.081 A 
HETATM    2  C   UNL     1      62.849   8.986   4.685  1.00  0.00     0.092 A 
HETATM    3  S   UNL     1      61.166   7.251   3.781  1.00  0.00    -0.110 SA
HETATM    4  C   UNL     1      61.033   8.863   3.248  1.00  0.00     0.070 A 
HETATM    5  C   UNL     1      62.498   7.651   4.753  1.00  0.00     0.087 A 
ENDROOT
BRANCH   1   6
HETATM    6  C   UNL     1      61.965  11.140   3.402  1.00  0.00     0.212 C 
HETATM    7  O   UNL     1      62.023  11.616   2.278  1.00  0.00    -0.644 OA
HETATM    8  O   UNL     1      61.874  12.006   4.443  1.00  0.00    -0.644 OA
ENDBRANCH   1   6
BRANCH   2   9
HETATM    9  O   UNL     1      63.915   9.321   5.460  1.00  0.00    -0.354 OA
HETATM   10  C   UNL     1      65.110   8.586   5.299  1.00  0.00     0.210 C 
ENDBRANCH   2   9
TORSDOF 2
ENDMDL
MODEL 4
REMARK VINA RESULT:      -4.0      1.647      3.227
REMARK  2 active torsions:
REMARK  status: ('A' for Active; 'I' for Inactive)
REMARK    1  A    between atoms: C_1  and  C_2 
REMARK    2  A    between atoms: C_3  and  O_9 
ROOT
HETATM    1  C   UNL     1      63.168   9.474   4.466  1.00  0.00     0.081 A 
HETATM    2  C   UNL     1      62.720   8.642   3.362  1.00  0.00     0.092 A 
HETATM    3  S   UNL     1      64.690   7.356   4.426  1.00  0.00    -0.110 SA
HETATM    4  C   UNL     1      64.239   8.851   5.103  1.00  0.00     0.070 A 
HETATM    5  C   UNL     1      63.469   7.485   3.255  1.00  0.00     0.087 A 
ENDROOT
BRANCH   1   6
HETATM    6  C   UNL     1      62.691  10.766   4.961  1.00  0.00     0.212 C 
HETATM    7  O   UNL     1      61.946  11.558   4.404  1.00  0.00    -0.644 OA
HETATM    8  O   UNL     1      63.150  11.099   6.193  1.00  0.00    -0.644 OA
ENDBRANCH   1   6
BRANCH   2   9
HETATM    9  O   UNL     1      61.738   8.757   2.430  1.00  0.00    -0.354 OA
HETATM   10  C   UNL     1      61.991   9.558   1.294  1.00  0.00     0.210 C 
ENDBRANCH   2   9
TORSDOF 2
ENDMDL
MODEL 5
REMARK VINA RESULT:      -4.0      2.701      4.207
REMARK  2 active torsions:
REMARK  status: ('A' for Active; 'I' for Inactive)
REMARK    1  A    between atoms: C_1  and  C_2 
REMARK    2  A    between atoms: C_3  and  O_9 
ROOT
HETATM    1  C   UNL     1      62.145   9.894   3.146  1.00  0.00     0.081 A 
HETATM    2  C   UNL     1      61.912   8.827   2.188  1.00  0.00     0.092 A 
HETATM    3  S   UNL     1      62.846   7.657   4.290  1.00  0.00    -0.110 SA
HETATM    4  C   UNL     1      62.655   9.348   4.322  1.00  0.00     0.070 A 
HETATM    5  C   UNL     1      62.254   7.590   2.701  1.00  0.00     0.087 A 
ENDROOT
BRANCH   1   6
HETATM    6  C   UNL     1      61.938  11.339   3.056  1.00  0.00     0.212 C 
HETATM    7  O   UNL     1      61.847  12.028   2.051  1.00  0.00    -0.644 OA
HETATM    8  O   UNL     1      61.838  11.968   4.255  1.00  0.00    -0.644 OA
ENDBRANCH   1   6
BRANCH   2   9
HETATM    9  O   UNL     1      61.436   8.788   0.915  1.00  0.00    -0.354 OA
HETATM   10  C   UNL     1      60.145   8.256   0.704  1.00  0.00     0.210 C 
ENDBRANCH   2   9
TORSDOF 2
ENDMDL
MODEL 6
REMARK VINA RESULT:      -3.8      2.097      2.597
REMARK  2 active torsions:
REMARK  status: ('A' for Active; 'I' for Inactive)
REMARK    1  A    between atoms: C_1  and  C_2 
REMARK    2  A    between atoms: C_3  and  O_9 
ROOT
HETATM    1  C   UNL     1      62.140   9.883   3.810  1.00  0.00     0.081 A 
HETATM    2  C   UNL     1      61.926   8.452   3.948  1.00  0.00     0.092 A 
HETATM    3  S   UNL     1      61.640   8.940   1.430  1.00  0.00    -0.110 SA
HETATM    4  C   UNL     1      62.004  10.238   2.470  1.00  0.00     0.070 A 
HETATM    5  C   UNL     1      61.652   7.853   2.733  1.00  0.00     0.087 A 
ENDROOT
BRANCH   1   6
HETATM    6  C   UNL     1      62.453  10.915   4.798  1.00  0.00     0.212 C 
HETATM    7  O   UNL     1      63.133  10.812   5.808  1.00  0.00    -0.644 OA
HETATM    8  O   UNL     1      61.908  12.129   4.533  1.00  0.00    -0.644 OA
ENDBRANCH   1   6
BRANCH   2   9
HETATM    9  O   UNL     1      61.939   7.592   5.001  1.00  0.00    -0.354 OA
HETATM   10  C   UNL     1      63.187   7.247   5.562  1.00  0.00     0.210 C 
ENDBRANCH   2   9
TORSDOF 2
ENDMDL
MODEL 7
REMARK VINA RESULT:      -3.8      1.190      3.708
REMARK  2 active torsions:
REMARK  status: ('A' for Active; 'I' for Inactive)
REMARK    1  A    between atoms: C_1  and  C_2 
REMARK    2  A    between atoms: C_3  and  O_9 
ROOT
HETATM    1  C   UNL     1      65.328   8.012   5.058  1.00  0.00     0.081 A 
HETATM    2  C   UNL     1      64.293   9.031   5.005  1.00  0.00     0.092 A 
HETATM    3  S   UNL     1      63.580   7.252   3.276  1.00  0.00    -0.110 SA
HETATM    4  C   UNL     1      65.021   7.002   4.148  1.00  0.00     0.070 A 
HETATM    5  C   UNL     1      63.311   8.720   4.084  1.00  0.00     0.087 A 
ENDROOT
BRANCH   1   6
HETATM    6  C   UNL     1      66.543   7.906   5.865  1.00  0.00     0.212 C 
HETATM    7  O   UNL     1      67.440   7.081   5.773  1.00  0.00    -0.644 OA
HETATM    8  O   UNL     1      66.664   8.855   6.827  1.00  0.00    -0.644 OA
ENDBRANCH   1   6
BRANCH   2   9
HETATM    9  O   UNL     1      64.090  10.205   5.659  1.00  0.00    -0.354 OA
HETATM   10  C   UNL     1      62.888  10.904   5.413  1.00  0.00     0.210 C 
ENDBRANCH   2   9
TORSDOF 2
ENDMDL
MODEL 8
REMARK VINA RESULT:      -3.6      3.078      5.245
REMARK  2 active torsions:
REMARK  status: ('A' for Active; 'I' for Inactive)
REMARK    1  A    between atoms: C_1  and  C_2 
REMARK    2  A    between atoms: C_3  and  O_9 
ROOT
HETATM    1  C   UNL     1      66.272   6.573   7.261  1.00  0.00     0.081 A 
HETATM    2  C   UNL     1      65.116   7.172   6.617  1.00  0.00     0.092 A 
HETATM    3  S   UNL     1      67.080   7.569   4.990  1.00  0.00    -0.110 SA
HETATM    4  C   UNL     1      67.389   6.741   6.445  1.00  0.00     0.070 A 
HETATM    5  C   UNL     1      65.441   7.732   5.396  1.00  0.00     0.087 A 
ENDROOT
BRANCH   1   6
HETATM    6  C   UNL     1      66.416   5.875   8.539  1.00  0.00     0.212 C 
HETATM    7  O   UNL     1      66.261   4.685   8.771  1.00  0.00    -0.644 OA
HETATM    8  O   UNL     1      66.766   6.674   9.579  1.00  0.00    -0.644 OA
ENDBRANCH   1   6
BRANCH   2   9
HETATM    9  O   UNL     1      63.805   7.296   6.954  1.00  0.00    -0.354 OA
HETATM   10  C   UNL     1      62.880   7.591   5.929  1.00  0.00     0.210 C 
ENDBRANCH   2   9
TORSDOF 2
ENDMDL
MODEL 9
REMARK VINA RESULT:      -3.5      1.605      1.953
REMARK  2 active torsions:
REMARK  status: ('A' for Active; 'I' for Inactive)
REMARK    1  A    between atoms: C_1  and  C_2 
REMARK    2  A    between atoms: C_3  and  O_9 
ROOT
HETATM    1  C   UNL     1      63.963   8.479   5.350  1.00  0.00     0.081 A 
HETATM    2  C   UNL     1      65.312   7.945   5.279  1.00  0.00     0.092 A 
HETATM    3  S   UNL     1      63.805   5.910   5.777  1.00  0.00    -0.110 SA
HETATM    4  C   UNL     1      63.074   7.439   5.618  1.00  0.00     0.070 A 
HETATM    5  C   UNL     1      65.338   6.580   5.492  1.00  0.00     0.087 A 
ENDROOT
BRANCH   1   6
HETATM    6  C   UNL     1      63.449   9.839   5.194  1.00  0.00     0.212 C 
HETATM    7  O   UNL     1      62.538  10.224   4.475  1.00  0.00    -0.644 OA
HETATM    8  O   UNL     1      64.080  10.769   5.954  1.00  0.00    -0.644 OA
ENDBRANCH   1   6
BRANCH   2   9
HETATM    9  O   UNL     1      66.534   8.495   5.049  1.00  0.00    -0.354 OA
HETATM   10  C   UNL     1      67.667   7.656   5.137  1.00  0.00     0.210 C 
ENDBRANCH   2   9
TORSDOF 2
ENDMDL
