MODEL 1
REMARK VINA RESULT:      -4.4      0.000      0.000
REMARK  0 active torsions:
REMARK  status: ('A' for Active; 'I' for Inactive)
ROOT
HETATM    1  C   UNL     1      62.539   9.785   3.982  1.00  0.00     0.084 A 
HETATM    2  N   UNL     1      61.618  11.451   2.736  1.00  0.00    -0.264 N 
ATOM      3  HN  UNL     1      61.172  11.967   1.977  1.00  0.00     0.194 HD
HETATM    4  C   UNL     1      62.572  10.949   4.703  1.00  0.00     0.165 A 
HETATM    5  O   UNL     1      62.023  11.950   3.965  1.00  0.00    -0.220 OA
HETATM    6  C   UNL     1      61.935  10.150   2.757  1.00  0.00     0.033 A 
HETATM    7  N   UNL     1      63.026  11.250   5.923  1.00  0.00    -0.378 N 
HETATM    8  C   UNL     1      61.648   9.288   1.589  1.00  0.00     0.070 C 
HETATM    9  H   UNL     1      63.430  10.549   6.485  1.00  0.00     0.158 HD
HETATM   10  H   UNL     1      62.956  12.172   6.261  1.00  0.00     0.158 HD
ENDROOT
TORSDOF 0
ENDMDL
MODEL 2
REMARK VINA RESULT:      -3.9      1.012      2.702
REMARK  0 active torsions:
REMARK  status: ('A' for Active; 'I' for Inactive)
ROOT
HETATM    1  C   UNL     1      62.186   9.962   3.246  1.00  0.00     0.084 A 
HETATM    2  N   UNL     1      62.564  11.227   5.099  1.00  0.00    -0.264 N 
ATOM      3  HN  UNL     1      62.820  11.521   6.041  1.00  0.00     0.194 HD
HETATM    4  C   UNL     1      61.860  11.263   2.970  1.00  0.00     0.165 A 
HETATM    5  O   UNL     1      62.084  12.026   4.072  1.00  0.00    -0.220 OA
HETATM    6  C   UNL     1      62.619   9.989   4.592  1.00  0.00     0.033 A 
HETATM    7  N   UNL     1      61.388  11.869   1.876  1.00  0.00    -0.378 N 
HETATM    8  C   UNL     1      63.087   8.857   5.422  1.00  0.00     0.070 C 
HETATM    9  H   UNL     1      61.214  11.347   1.060  1.00  0.00     0.158 HD
HETATM   10  H   UNL     1      61.213  12.838   1.887  1.00  0.00     0.158 HD
ENDROOT
TORSDOF 0
ENDMDL
MODEL 3
REMARK VINA RESULT:      -3.7      2.350      2.391
REMARK  0 active torsions:
REMARK  status: ('A' for Active; 'I' for Inactive)
ROOT
HETATM    1  C   UNL     1      62.516  10.328   4.561  1.00  0.00     0.084 A 
HETATM    2  N   UNL     1      64.101   8.695   4.556  1.00  0.00    -0.264 N 
ATOM      3  HN  UNL     1      64.636   7.858   4.323  1.00  0.00     0.194 HD
HETATM    4  C   UNL     1      63.439  10.600   5.535  1.00  0.00     0.165 A 
HETATM    5  O   UNL     1      64.390   9.629   5.538  1.00  0.00    -0.220 OA
HETATM    6  C   UNL     1      62.972   9.123   3.976  1.00  0.00     0.033 A 
HETATM    7  N   UNL     1      63.555  11.589   6.427  1.00  0.00    -0.378 N 
HETATM    8  C   UNL     1      62.356   8.356   2.870  1.00  0.00     0.070 C 
HETATM    9  H   UNL     1      62.883  12.309   6.453  1.00  0.00     0.158 HD
HETATM   10  H   UNL     1      64.311  11.598   7.057  1.00  0.00     0.158 HD
ENDROOT
TORSDOF 0
ENDMDL
MODEL 4
REMARK VINA RESULT:      -3.4      4.048      4.559
REMARK  0 active torsions:
REMARK  status: ('A' for Active; 'I' for Inactive)
ROOT
HETATM    1  C   UNL     1      65.701   7.460   4.735  1.00  0.00     0.084 A 
HETATM    2  N   UNL     1      64.517   9.209   5.582  1.00  0.00    -0.264 N 
ATOM      3  HN  UNL     1      63.785   9.900   5.747  1.00  0.00     0.194 HD
HETATM    4  C   UNL     1      66.425   8.042   5.741  1.00  0.00     0.165 A 
HETATM    5  O   UNL     1      65.724   9.088   6.253  1.00  0.00    -0.220 OA
HETATM    6  C   UNL     1      64.515   8.227   4.670  1.00  0.00     0.033 A 
HETATM    7  N   UNL     1      67.625   7.777   6.267  1.00  0.00    -0.378 N 
HETATM    8  C   UNL     1      63.366   8.054   3.754  1.00  0.00     0.070 C 
HETATM    9  H   UNL     1      68.160   7.027   5.921  1.00  0.00     0.158 HD
HETATM   10  H   UNL     1      67.974   8.332   7.002  1.00  0.00     0.158 HD
ENDROOT
TORSDOF 0
ENDMDL
MODEL 5
REMARK VINA RESULT:      -3.3      5.335      6.403
REMARK  0 active torsions:
REMARK  status: ('A' for Active; 'I' for Inactive)
ROOT
HETATM    1  C   UNL     1      65.576   6.815   6.605  1.00  0.00     0.084 A 
HETATM    2  N   UNL     1      66.956   8.490   7.289  1.00  0.00    -0.264 N 
ATOM      3  HN  UNL     1      67.658   9.025   7.799  1.00  0.00     0.194 HD
HETATM    4  C   UNL     1      65.372   7.911   5.811  1.00  0.00     0.165 A 
HETATM    5  O   UNL     1      66.193   8.917   6.213  1.00  0.00    -0.220 OA
HETATM    6  C   UNL     1      66.574   7.226   7.518  1.00  0.00     0.033 A 
HETATM    7  N   UNL     1      64.555   8.148   4.780  1.00  0.00    -0.378 N 
HETATM    8  C   UNL     1      67.183   6.444   8.617  1.00  0.00     0.070 C 
HETATM    9  H   UNL     1      63.946   7.442   4.462  1.00  0.00     0.158 HD
HETATM   10  H   UNL     1      64.561   9.027   4.337  1.00  0.00     0.158 HD
ENDROOT
TORSDOF 0
ENDMDL
MODEL 6
REMARK VINA RESULT:      -3.2      2.794      3.572
REMARK  0 active torsions:
REMARK  status: ('A' for Active; 'I' for Inactive)
ROOT
HETATM    1  C   UNL     1      63.466   8.738   4.233  1.00  0.00     0.084 A 
HETATM    2  N   UNL     1      65.242   8.677   5.654  1.00  0.00    -0.264 N 
ATOM      3  HN  UNL     1      66.087   8.383   6.144  1.00  0.00     0.194 HD
HETATM    4  C   UNL     1      63.455   9.868   5.008  1.00  0.00     0.165 A 
HETATM    5  O   UNL     1      64.514   9.839   5.859  1.00  0.00    -0.220 OA
HETATM    6  C   UNL     1      64.602   8.022   4.677  1.00  0.00     0.033 A 
HETATM    7  N   UNL     1      62.634  10.920   5.068  1.00  0.00    -0.378 N 
HETATM    8  C   UNL     1      65.102   6.715   4.194  1.00  0.00     0.070 C 
HETATM    9  H   UNL     1      61.857  10.974   4.466  1.00  0.00     0.158 HD
HETATM   10  H   UNL     1      62.806  11.643   5.714  1.00  0.00     0.158 HD
ENDROOT
TORSDOF 0
ENDMDL
MODEL 7
REMARK VINA RESULT:      -3.1      1.879      3.182
REMARK  0 active torsions:
REMARK  status: ('A' for Active; 'I' for Inactive)
ROOT
HETATM    1  C   UNL     1      62.651   9.140   3.335  1.00  0.00     0.084 A 
HETATM    2  N   UNL     1      61.662  11.112   2.778  1.00  0.00    -0.264 N 
ATOM      3  HN  UNL     1      61.303  12.066   2.816  1.00  0.00     0.194 HD
HETATM    4  C   UNL     1      62.193   9.060   2.047  1.00  0.00     0.165 A 
HETATM    5  O   UNL     1      61.601  10.235   1.706  1.00  0.00    -0.220 OA
HETATM    6  C   UNL     1      62.293  10.443   3.752  1.00  0.00     0.033 A 
HETATM    7  N   UNL     1      62.223   8.087   1.131  1.00  0.00    -0.378 N 
HETATM    8  C   UNL     1      62.533  11.078   5.067  1.00  0.00     0.070 C 
HETATM    9  H   UNL     1      62.644   7.223   1.344  1.00  0.00     0.158 HD
HETATM   10  H   UNL     1      61.825   8.235   0.242  1.00  0.00     0.158 HD
ENDROOT
TORSDOF 0
ENDMDL
MODEL 8
REMARK VINA RESULT:      -3.0      5.599      6.241
REMARK  0 active torsions:
REMARK  status: ('A' for Active; 'I' for Inactive)
ROOT
HETATM    1  C   UNL     1      65.528   6.144   7.678  1.00  0.00     0.084 A 
HETATM    2  N   UNL     1      65.191   7.913   6.287  1.00  0.00    -0.264 N 
ATOM      3  HN  UNL     1      64.785   8.545   5.597  1.00  0.00     0.194 HD
HETATM    4  C   UNL     1      66.571   7.022   7.814  1.00  0.00     0.165 A 
HETATM    5  O   UNL     1      66.376   8.082   6.985  1.00  0.00    -0.220 OA
HETATM    6  C   UNL     1      64.691   6.744   6.709  1.00  0.00     0.033 A 
HETATM    7  N   UNL     1      67.675   7.013   8.567  1.00  0.00    -0.378 N 
HETATM    8  C   UNL     1      63.415   6.230   6.164  1.00  0.00     0.070 C 
HETATM    9  H   UNL     1      67.848   6.261   9.178  1.00  0.00     0.158 HD
HETATM   10  H   UNL     1      68.315   7.759   8.511  1.00  0.00     0.158 HD
ENDROOT
TORSDOF 0
ENDMDL
MODEL 9
REMARK VINA RESULT:      -2.9     13.957     14.586
REMARK  0 active torsions:
REMARK  status: ('A' for Active; 'I' for Inactive)
ROOT
HETATM    1  C   UNL     1      58.439  -0.127  13.458  1.00  0.00     0.084 A 
HETATM    2  N   UNL     1      59.498   1.885  13.554  1.00  0.00    -0.264 N 
ATOM      3  HN  UNL     1      60.193   2.625  13.453  1.00  0.00     0.194 HD
HETATM    4  C   UNL     1      57.619   0.779  14.078  1.00  0.00     0.165 A 
HETATM    5  O   UNL     1      58.246   1.983  14.139  1.00  0.00    -0.220 OA
HETATM    6  C   UNL     1      59.605   0.612  13.150  1.00  0.00     0.033 A 
HETATM    7  N   UNL     1      56.394   0.685  14.602  1.00  0.00    -0.378 N 
HETATM    8  C   UNL     1      60.834   0.136  12.478  1.00  0.00     0.070 C 
HETATM    9  H   UNL     1      55.911  -0.173  14.576  1.00  0.00     0.158 HD
HETATM   10  H   UNL     1      55.973   1.473  15.015  1.00  0.00     0.158 HD
ENDROOT
TORSDOF 0
ENDMDL
