MODEL 1
REMARK VINA RESULT:      -3.9      0.000      0.000
REMARK  0 active torsions:
REMARK  status: ('A' for Active; 'I' for Inactive)
ROOT
HETATM    1  N   UNL     1      61.674  11.217   3.246  1.00  0.00    -0.304 N 
ATOM      2  HN  UNL     1      61.138  11.646   2.491  1.00  0.00     0.186 HD
HETATM    3  C   UNL     1      62.793   9.721   4.556  1.00  0.00     0.075 A 
HETATM    4  C   UNL     1      62.842  10.943   5.176  1.00  0.00     0.115 A 
HETATM    5  N   UNL     1      62.161  11.802   4.356  1.00  0.00    -0.286 N 
HETATM    6  C   UNL     1      62.058   9.940   3.364  1.00  0.00     0.025 A 
HETATM    7  N   UNL     1      63.403  11.334   6.332  1.00  0.00    -0.384 N 
HETATM    8  C   UNL     1      61.708   8.940   2.328  1.00  0.00     0.070 C 
HETATM    9  H   UNL     1      62.038  12.756   4.561  1.00  0.00     0.188 HD
HETATM   10  H   UNL     1      63.884  10.682   6.892  1.00  0.00     0.157 HD
HETATM   11  H   UNL     1      63.333  12.273   6.620  1.00  0.00     0.157 HD
ENDROOT
TORSDOF 0
ENDMDL
MODEL 2
REMARK VINA RESULT:      -3.8      1.525      1.995
REMARK  0 active torsions:
REMARK  status: ('A' for Active; 'I' for Inactive)
ROOT
HETATM    1  N   UNL     1      62.532  11.508   4.915  1.00  0.00    -0.304 N 
ATOM      2  HN  UNL     1      62.419  12.512   5.060  1.00  0.00     0.186 HD
HETATM    3  C   UNL     1      62.556   9.421   3.993  1.00  0.00     0.075 A 
HETATM    4  C   UNL     1      63.016   9.318   5.280  1.00  0.00     0.115 A 
HETATM    5  N   UNL     1      62.984  10.588   5.788  1.00  0.00    -0.286 N 
HETATM    6  C   UNL     1      62.267  10.796   3.812  1.00  0.00     0.025 A 
HETATM    7  N   UNL     1      63.436   8.261   5.996  1.00  0.00    -0.384 N 
HETATM    8  C   UNL     1      61.732  11.449   2.595  1.00  0.00     0.070 C 
HETATM    9  H   UNL     1      63.263  10.807   6.706  1.00  0.00     0.188 HD
HETATM   10  H   UNL     1      63.442   7.363   5.590  1.00  0.00     0.157 HD
HETATM   11  H   UNL     1      63.735   8.383   6.925  1.00  0.00     0.157 HD
ENDROOT
TORSDOF 0
ENDMDL
MODEL 3
REMARK VINA RESULT:      -3.7      1.106      2.620
REMARK  0 active torsions:
REMARK  status: ('A' for Active; 'I' for Inactive)
ROOT
HETATM    1  N   UNL     1      63.027  10.474   5.694  1.00  0.00    -0.304 N 
ATOM      2  HN  UNL     1      63.380  10.629   6.639  1.00  0.00     0.186 HD
HETATM    3  C   UNL     1      62.410   9.507   3.721  1.00  0.00     0.075 A 
HETATM    4  C   UNL     1      62.126  10.846   3.640  1.00  0.00     0.115 A 
HETATM    5  N   UNL     1      62.512  11.379   4.840  1.00  0.00    -0.286 N 
HETATM    6  C   UNL     1      62.968   9.324   5.010  1.00  0.00     0.025 A 
HETATM    7  N   UNL     1      61.590  11.587   2.656  1.00  0.00    -0.384 N 
HETATM    8  C   UNL     1      63.455   8.058   5.607  1.00  0.00     0.070 C 
HETATM    9  H   UNL     1      62.422  12.335   5.058  1.00  0.00     0.188 HD
HETATM   10  H   UNL     1      61.326  11.161   1.807  1.00  0.00     0.157 HD
HETATM   11  H   UNL     1      61.460  12.554   2.783  1.00  0.00     0.157 HD
ENDROOT
TORSDOF 0
ENDMDL
MODEL 4
REMARK VINA RESULT:      -3.5      1.582      3.286
REMARK  0 active torsions:
REMARK  status: ('A' for Active; 'I' for Inactive)
ROOT
HETATM    1  N   UNL     1      61.736  11.586   3.146  1.00  0.00    -0.304 N 
ATOM      2  HN  UNL     1      61.547  12.552   3.416  1.00  0.00     0.186 HD
HETATM    3  C   UNL     1      62.390   9.400   3.162  1.00  0.00     0.075 A 
HETATM    4  C   UNL     1      61.862   9.672   1.927  1.00  0.00     0.115 A 
HETATM    5  N   UNL     1      61.486  10.988   1.966  1.00  0.00    -0.286 N 
HETATM    6  C   UNL     1      62.292  10.616   3.883  1.00  0.00     0.025 A 
HETATM    7  N   UNL     1      61.696   8.903   0.838  1.00  0.00    -0.384 N 
HETATM    8  C   UNL     1      62.728  10.872   5.276  1.00  0.00     0.070 C 
HETATM    9  H   UNL     1      61.074  11.452   1.203  1.00  0.00     0.188 HD
HETATM   10  H   UNL     1      61.981   7.960   0.854  1.00  0.00     0.157 HD
HETATM   11  H   UNL     1      61.290   9.281   0.025  1.00  0.00     0.157 HD
ENDROOT
TORSDOF 0
ENDMDL
MODEL 5
REMARK VINA RESULT:      -3.3      4.036      4.829
REMARK  0 active torsions:
REMARK  status: ('A' for Active; 'I' for Inactive)
ROOT
HETATM    1  N   UNL     1      63.982   7.476   6.465  1.00  0.00    -0.304 N 
ATOM      2  HN  UNL     1      62.994   7.332   6.676  1.00  0.00     0.186 HD
HETATM    3  C   UNL     1      65.936   8.083   5.456  1.00  0.00     0.075 A 
HETATM    4  C   UNL     1      66.248   7.454   6.633  1.00  0.00     0.115 A 
HETATM    5  N   UNL     1      65.050   7.110   7.199  1.00  0.00    -0.286 N 
HETATM    6  C   UNL     1      64.521   8.072   5.394  1.00  0.00     0.025 A 
HETATM    7  N   UNL     1      67.429   7.176   7.210  1.00  0.00    -0.384 N 
HETATM    8  C   UNL     1      63.664   8.622   4.317  1.00  0.00     0.070 C 
HETATM    9  H   UNL     1      64.977   6.639   8.059  1.00  0.00     0.188 HD
HETATM   10  H   UNL     1      68.268   7.442   6.768  1.00  0.00     0.157 HD
HETATM   11  H   UNL     1      67.456   6.707   8.075  1.00  0.00     0.157 HD
ENDROOT
TORSDOF 0
ENDMDL
MODEL 6
REMARK VINA RESULT:      -3.2      1.209      1.230
REMARK  0 active torsions:
REMARK  status: ('A' for Active; 'I' for Inactive)
ROOT
HETATM    1  N   UNL     1      62.207   9.845   2.913  1.00  0.00    -0.304 N 
ATOM      2  HN  UNL     1      61.777   9.910   1.989  1.00  0.00     0.186 HD
HETATM    3  C   UNL     1      63.317   9.094   4.760  1.00  0.00     0.075 A 
HETATM    4  C   UNL     1      62.909  10.380   5.007  1.00  0.00     0.115 A 
HETATM    5  N   UNL     1      62.252  10.784   3.877  1.00  0.00    -0.286 N 
HETATM    6  C   UNL     1      62.858   8.806   3.451  1.00  0.00     0.025 A 
HETATM    7  N   UNL     1      63.060  11.172   6.081  1.00  0.00    -0.384 N 
HETATM    8  C   UNL     1      63.028   7.541   2.698  1.00  0.00     0.070 C 
HETATM    9  H   UNL     1      61.849  11.676   3.779  1.00  0.00     0.188 HD
HETATM   10  H   UNL     1      63.541  10.840   6.874  1.00  0.00     0.157 HD
HETATM   11  H   UNL     1      62.690  12.085   6.075  1.00  0.00     0.157 HD
ENDROOT
TORSDOF 0
ENDMDL
MODEL 7
REMARK VINA RESULT:      -3.2      2.271      2.949
REMARK  0 active torsions:
REMARK  status: ('A' for Active; 'I' for Inactive)
ROOT
HETATM    1  N   UNL     1      62.472   8.761   2.827  1.00  0.00    -0.304 N 
ATOM      2  HN  UNL     1      62.669   7.781   2.622  1.00  0.00     0.186 HD
HETATM    3  C   UNL     1      62.164  10.751   3.901  1.00  0.00     0.075 A 
HETATM    4  C   UNL     1      61.930  10.952   2.565  1.00  0.00     0.115 A 
HETATM    5  N   UNL     1      62.126   9.737   1.967  1.00  0.00    -0.286 N 
HETATM    6  C   UNL     1      62.495   9.378   4.016  1.00  0.00     0.025 A 
HETATM    7  N   UNL     1      61.580  12.052   1.877  1.00  0.00    -0.384 N 
HETATM    8  C   UNL     1      62.832   8.635   5.253  1.00  0.00     0.070 C 
HETATM    9  H   UNL     1      62.023   9.591   0.999  1.00  0.00     0.188 HD
HETATM   10  H   UNL     1      61.449  12.907   2.348  1.00  0.00     0.157 HD
HETATM   11  H   UNL     1      61.454  12.003   0.902  1.00  0.00     0.157 HD
ENDROOT
TORSDOF 0
ENDMDL
MODEL 8
REMARK VINA RESULT:      -3.2      5.865      6.668
REMARK  0 active torsions:
REMARK  status: ('A' for Active; 'I' for Inactive)
ROOT
HETATM    1  N   UNL     1      65.946   7.820   6.629  1.00  0.00    -0.304 N 
ATOM      2  HN  UNL     1      65.483   8.673   6.313  1.00  0.00     0.186 HD
HETATM    3  C   UNL     1      67.406   6.082   6.861  1.00  0.00     0.075 A 
HETATM    4  C   UNL     1      66.410   5.923   7.791  1.00  0.00     0.115 A 
HETATM    5  N   UNL     1      65.564   6.984   7.613  1.00  0.00    -0.286 N 
HETATM    6  C   UNL     1      67.074   7.270   6.164  1.00  0.00     0.025 A 
HETATM    7  N   UNL     1      66.203   4.977   8.722  1.00  0.00    -0.384 N 
HETATM    8  C   UNL     1      67.821   7.894   5.047  1.00  0.00     0.070 C 
HETATM    9  H   UNL     1      64.753   7.121   8.153  1.00  0.00     0.188 HD
HETATM   10  H   UNL     1      66.838   4.230   8.815  1.00  0.00     0.157 HD
HETATM   11  H   UNL     1      65.416   5.031   9.311  1.00  0.00     0.157 HD
ENDROOT
TORSDOF 0
ENDMDL
MODEL 9
REMARK VINA RESULT:      -3.0      6.775      7.835
REMARK  0 active torsions:
REMARK  status: ('A' for Active; 'I' for Inactive)
ROOT
HETATM    1  N   UNL     1      66.294   5.176   8.762  1.00  0.00    -0.304 N 
ATOM      2  HN  UNL     1      65.794   4.571   9.415  1.00  0.00     0.186 HD
HETATM    3  C   UNL     1      67.763   5.977   7.211  1.00  0.00     0.075 A 
HETATM    4  C   UNL     1      66.911   6.996   7.549  1.00  0.00     0.115 A 
HETATM    5  N   UNL     1      66.053   6.470   8.477  1.00  0.00    -0.286 N 
HETATM    6  C   UNL     1      67.343   4.870   7.989  1.00  0.00     0.025 A 
HETATM    7  N   UNL     1      66.835   8.271   7.132  1.00  0.00    -0.384 N 
HETATM    8  C   UNL     1      67.934   3.511   8.011  1.00  0.00     0.070 C 
HETATM    9  H   UNL     1      65.330   6.989   8.897  1.00  0.00     0.188 HD
HETATM   10  H   UNL     1      67.473   8.608   6.462  1.00  0.00     0.157 HD
HETATM   11  H   UNL     1      66.141   8.867   7.496  1.00  0.00     0.157 HD
ENDROOT
TORSDOF 0
ENDMDL
