MODEL 1
REMARK VINA RESULT:      -4.4      0.000      0.000
REMARK  2 active torsions:
REMARK  status: ('A' for Active; 'I' for Inactive)
REMARK    1  A    between atoms: C_1  and  C_6 
REMARK    2  A    between atoms: C_2  and  O_9 
ROOT
HETATM    1  C   UNL     1      62.783   9.590   4.477  1.00  0.00     0.082 A 
HETATM    2  C   UNL     1      63.923   8.705   4.405  1.00  0.00     0.114 A 
HETATM    3  C   UNL     1      61.713   9.098   3.747  1.00  0.00     0.072 A 
HETATM    4  C   UNL     1      63.646   7.607   3.609  1.00  0.00     0.108 A 
HETATM    5  S   UNL     1      62.060   7.614   2.991  1.00  0.00    -0.086 SA
HETATM    6 CL   UNL     1      64.612   6.259   3.131  1.00  0.00    -0.073 Cl
ENDROOT
BRANCH   1   7
HETATM    7  C   UNL     1      62.723  10.849   5.209  1.00  0.00     0.212 C 
HETATM    8  O   UNL     1      63.206  11.077   6.306  1.00  0.00    -0.644 OA
HETATM    9  O   UNL     1      62.062  11.835   4.557  1.00  0.00    -0.644 OA
ENDBRANCH   1   7
BRANCH   2  10
HETATM   10  O   UNL     1      65.071   9.041   5.056  1.00  0.00    -0.353 OA
HETATM   11  C   UNL     1      65.667   8.088   5.914  1.00  0.00     0.210 C 
ENDBRANCH   2  10
TORSDOF 2
ENDMDL
MODEL 2
REMARK VINA RESULT:      -4.4      1.998      3.280
REMARK  2 active torsions:
REMARK  status: ('A' for Active; 'I' for Inactive)
REMARK    1  A    between atoms: C_1  and  C_6 
REMARK    2  A    between atoms: C_2  and  O_9 
ROOT
HETATM    1  C   UNL     1      62.964   9.283   4.348  1.00  0.00     0.082 A 
HETATM    2  C   UNL     1      62.065   9.754   3.319  1.00  0.00     0.114 A 
HETATM    3  C   UNL     1      63.254   7.937   4.190  1.00  0.00     0.072 A 
HETATM    4  C   UNL     1      61.719   8.726   2.458  1.00  0.00     0.108 A 
HETATM    5  S   UNL     1      62.470   7.249   2.846  1.00  0.00    -0.086 SA
HETATM    6 CL   UNL     1      60.668   8.676   1.090  1.00  0.00    -0.073 Cl
ENDROOT
BRANCH   1   7
HETATM    7  C   UNL     1      63.518  10.085   5.432  1.00  0.00     0.212 C 
HETATM    8  O   UNL     1      62.942  10.962   6.056  1.00  0.00    -0.644 OA
HETATM    9  O   UNL     1      64.799   9.779   5.745  1.00  0.00    -0.644 OA
ENDBRANCH   1   7
BRANCH   2  10
HETATM   10  O   UNL     1      61.662  11.054   3.329  1.00  0.00    -0.353 OA
HETATM   11  C   UNL     1      61.787  11.812   2.141  1.00  0.00     0.210 C 
ENDBRANCH   2  10
TORSDOF 2
ENDMDL
MODEL 3
REMARK VINA RESULT:      -4.3      1.839      2.133
REMARK  2 active torsions:
REMARK  status: ('A' for Active; 'I' for Inactive)
REMARK    1  A    between atoms: C_1  and  C_6 
REMARK    2  A    between atoms: C_2  and  O_9 
ROOT
HETATM    1  C   UNL     1      62.114   9.743   2.476  1.00  0.00     0.082 A 
HETATM    2  C   UNL     1      62.894   8.717   3.129  1.00  0.00     0.114 A 
HETATM    3  C   UNL     1      61.586   9.292   1.277  1.00  0.00     0.072 A 
HETATM    4  C   UNL     1      62.920   7.559   2.370  1.00  0.00     0.108 A 
HETATM    5  S   UNL     1      62.012   7.681   0.936  1.00  0.00    -0.086 SA
HETATM    6 CL   UNL     1      63.706   6.042   2.613  1.00  0.00    -0.073 Cl
ENDROOT
BRANCH   1   7
HETATM    7  C   UNL     1      61.887  11.093   2.977  1.00  0.00     0.212 C 
HETATM    8  O   UNL     1      61.685  11.415   4.137  1.00  0.00    -0.644 OA
HETATM    9  O   UNL     1      61.924  12.050   2.020  1.00  0.00    -0.644 OA
ENDBRANCH   1   7
BRANCH   2  10
HETATM   10  O   UNL     1      63.500   8.994   4.316  1.00  0.00    -0.353 OA
HETATM   11  C   UNL     1      63.086   8.288   5.470  1.00  0.00     0.210 C 
ENDBRANCH   2  10
TORSDOF 2
ENDMDL
MODEL 4
REMARK VINA RESULT:      -4.1      2.474      3.211
REMARK  2 active torsions:
REMARK  status: ('A' for Active; 'I' for Inactive)
REMARK    1  A    between atoms: C_1  and  C_6 
REMARK    2  A    between atoms: C_2  and  O_9 
ROOT
HETATM    1  C   UNL     1      63.559   8.893   4.719  1.00  0.00     0.082 A 
HETATM    2  C   UNL     1      63.301   8.325   3.416  1.00  0.00     0.114 A 
HETATM    3  C   UNL     1      62.854  10.071   4.907  1.00  0.00     0.072 A 
HETATM    4  C   UNL     1      62.429   9.122   2.694  1.00  0.00     0.108 A 
HETATM    5  S   UNL     1      61.907  10.492   3.558  1.00  0.00    -0.086 SA
HETATM    6 CL   UNL     1      61.796   8.979   1.095  1.00  0.00    -0.073 Cl
ENDROOT
BRANCH   1   7
HETATM    7  C   UNL     1      64.441   8.334   5.736  1.00  0.00     0.212 C 
HETATM    8  O   UNL     1      64.212   7.371   6.449  1.00  0.00    -0.644 OA
HETATM    9  O   UNL     1      65.625   8.981   5.855  1.00  0.00    -0.644 OA
ENDBRANCH   1   7
BRANCH   2  10
HETATM   10  O   UNL     1      63.924   7.169   3.058  1.00  0.00    -0.353 OA
HETATM   11  C   UNL     1      63.180   5.966   3.069  1.00  0.00     0.210 C 
ENDBRANCH   2  10
TORSDOF 2
ENDMDL
MODEL 5
REMARK VINA RESULT:      -4.1      1.687      2.813
REMARK  2 active torsions:
REMARK  status: ('A' for Active; 'I' for Inactive)
REMARK    1  A    between atoms: C_1  and  C_6 
REMARK    2  A    between atoms: C_2  and  O_9 
ROOT
HETATM    1  C   UNL     1      63.266   9.496   4.541  1.00  0.00     0.082 A 
HETATM    2  C   UNL     1      62.800   8.743   3.399  1.00  0.00     0.114 A 
HETATM    3  C   UNL     1      64.324   8.860   5.171  1.00  0.00     0.072 A 
HETATM    4  C   UNL     1      63.527   7.574   3.250  1.00  0.00     0.108 A 
HETATM    5  S   UNL     1      64.752   7.395   4.418  1.00  0.00    -0.086 SA
HETATM    6 CL   UNL     1      63.405   6.282   2.112  1.00  0.00    -0.073 Cl
ENDROOT
BRANCH   1   7
HETATM    7  C   UNL     1      62.722  10.765   5.009  1.00  0.00     0.212 C 
HETATM    8  O   UNL     1      61.973  11.507   4.393  1.00  0.00    -0.644 OA
HETATM    9  O   UNL     1      63.110  11.104   6.261  1.00  0.00    -0.644 OA
ENDBRANCH   1   7
BRANCH   2  10
HETATM   10  O   UNL     1      61.753   9.218   2.670  1.00  0.00    -0.353 OA
HETATM   11  C   UNL     1      61.975   9.575   1.320  1.00  0.00     0.210 C 
ENDBRANCH   2  10
TORSDOF 2
ENDMDL
MODEL 6
REMARK VINA RESULT:      -4.0      1.931      3.468
REMARK  2 active torsions:
REMARK  status: ('A' for Active; 'I' for Inactive)
REMARK    1  A    between atoms: C_1  and  C_6 
REMARK    2  A    between atoms: C_2  and  O_9 
ROOT
HETATM    1  C   UNL     1      64.498   7.777   5.157  1.00  0.00     0.082 A 
HETATM    2  C   UNL     1      63.355   8.624   4.901  1.00  0.00     0.114 A 
HETATM    3  C   UNL     1      64.713   6.889   4.116  1.00  0.00     0.072 A 
HETATM    4  C   UNL     1      62.768   8.306   3.688  1.00  0.00     0.108 A 
HETATM    5  S   UNL     1      63.577   7.058   2.861  1.00  0.00    -0.086 SA
HETATM    6 CL   UNL     1      61.377   8.937   2.883  1.00  0.00    -0.073 Cl
ENDROOT
BRANCH   1   7
HETATM    7  C   UNL     1      65.343   7.818   6.344  1.00  0.00     0.212 C 
HETATM    8  O   UNL     1      65.313   7.042   7.285  1.00  0.00    -0.644 OA
HETATM    9  O   UNL     1      66.239   8.833   6.349  1.00  0.00    -0.644 OA
ENDBRANCH   1   7
BRANCH   2  10
HETATM   10  O   UNL     1      62.989   9.550   5.830  1.00  0.00    -0.353 OA
HETATM   11  C   UNL     1      62.949  10.912   5.449  1.00  0.00     0.210 C 
ENDBRANCH   2  10
TORSDOF 2
ENDMDL
MODEL 7
REMARK VINA RESULT:      -3.8      2.842      3.536
REMARK  2 active torsions:
REMARK  status: ('A' for Active; 'I' for Inactive)
REMARK    1  A    between atoms: C_1  and  C_6 
REMARK    2  A    between atoms: C_2  and  O_9 
ROOT
HETATM    1  C   UNL     1      64.564   8.167   5.412  1.00  0.00     0.082 A 
HETATM    2  C   UNL     1      64.062   7.113   6.264  1.00  0.00     0.114 A 
HETATM    3  C   UNL     1      65.819   7.860   4.912  1.00  0.00     0.072 A 
HETATM    4  C   UNL     1      64.980   6.082   6.366  1.00  0.00     0.108 A 
HETATM    5  S   UNL     1      66.387   6.348   5.446  1.00  0.00    -0.086 SA
HETATM    6 CL   UNL     1      64.955   4.603   7.254  1.00  0.00    -0.073 Cl
ENDROOT
BRANCH   1   7
HETATM    7  C   UNL     1      63.874   9.412   5.095  1.00  0.00     0.212 C 
HETATM    8  O   UNL     1      63.006   9.568   4.252  1.00  0.00    -0.644 OA
HETATM    9  O   UNL     1      64.267  10.467   5.848  1.00  0.00    -0.644 OA
ENDBRANCH   1   7
BRANCH   2  10
HETATM   10  O   UNL     1      62.843   7.256   6.853  1.00  0.00    -0.353 OA
HETATM   11  C   UNL     1      61.764   6.475   6.377  1.00  0.00     0.210 C 
ENDBRANCH   2  10
TORSDOF 2
ENDMDL
MODEL 8
REMARK VINA RESULT:      -3.7      2.649      4.135
REMARK  2 active torsions:
REMARK  status: ('A' for Active; 'I' for Inactive)
REMARK    1  A    between atoms: C_1  and  C_6 
REMARK    2  A    between atoms: C_2  and  O_9 
ROOT
HETATM    1  C   UNL     1      65.161   7.162   6.100  1.00  0.00     0.082 A 
HETATM    2  C   UNL     1      63.742   7.432   6.065  1.00  0.00     0.114 A 
HETATM    3  C   UNL     1      65.416   5.807   6.232  1.00  0.00     0.072 A 
HETATM    4  C   UNL     1      63.014   6.261   6.191  1.00  0.00     0.108 A 
HETATM    5  S   UNL     1      63.995   4.876   6.315  1.00  0.00    -0.086 SA
HETATM    6 CL   UNL     1      61.315   5.964   6.256  1.00  0.00    -0.073 Cl
ENDROOT
BRANCH   1   7
HETATM    7  C   UNL     1      66.223   8.157   6.012  1.00  0.00     0.212 C 
HETATM    8  O   UNL     1      66.602   8.898   6.904  1.00  0.00    -0.644 OA
HETATM    9  O   UNL     1      66.824   8.217   4.799  1.00  0.00    -0.644 OA
ENDBRANCH   1   7
BRANCH   2  10
HETATM   10  O   UNL     1      63.311   8.718   5.952  1.00  0.00    -0.353 OA
HETATM   11  C   UNL     1      62.923   9.193   4.678  1.00  0.00     0.210 C 
ENDBRANCH   2  10
TORSDOF 2
ENDMDL
MODEL 9
REMARK VINA RESULT:      -3.6      3.648      5.269
REMARK  2 active torsions:
REMARK  status: ('A' for Active; 'I' for Inactive)
REMARK    1  A    between atoms: C_1  and  C_6 
REMARK    2  A    between atoms: C_2  and  O_9 
ROOT
HETATM    1  C   UNL     1      66.342   6.532   6.983  1.00  0.00     0.082 A 
HETATM    2  C   UNL     1      65.147   7.034   6.344  1.00  0.00     0.114 A 
HETATM    3  C   UNL     1      67.425   6.553   6.119  1.00  0.00     0.072 A 
HETATM    4  C   UNL     1      65.401   7.387   5.029  1.00  0.00     0.108 A 
HETATM    5  S   UNL     1      67.026   7.157   4.579  1.00  0.00    -0.086 SA
HETATM    6 CL   UNL     1      64.375   7.998   3.784  1.00  0.00    -0.073 Cl
ENDROOT
BRANCH   1   7
HETATM    7  C   UNL     1      66.440   6.053   8.356  1.00  0.00     0.212 C 
HETATM    8  O   UNL     1      66.083   4.964   8.775  1.00  0.00    -0.644 OA
HETATM    9  O   UNL     1      67.002   6.941   9.211  1.00  0.00    -0.644 OA
ENDBRANCH   1   7
BRANCH   2  10
HETATM   10  O   UNL     1      63.981   7.072   7.046  1.00  0.00    -0.353 OA
HETATM   11  C   UNL     1      62.802   6.592   6.428  1.00  0.00     0.210 C 
ENDBRANCH   2  10
TORSDOF 2
ENDMDL
