MODEL 1
REMARK VINA RESULT:      -3.9      0.000      0.000
REMARK  0 active torsions:
REMARK  status: ('A' for Active; 'I' for Inactive)
ROOT
HETATM    1  C   UNL     1      62.957  10.475   4.923  1.00  0.00     0.117 A 
HETATM    2  N   UNL     1      63.553   9.278   4.601  1.00  0.00    -0.281 N 
HETATM    3  N   UNL     1      63.107   8.757   3.436  1.00  0.00    -0.302 N 
ATOM      4  HN  UNL     1      63.394   7.887   2.987  1.00  0.00     0.186 HD
HETATM    5  C   UNL     1      62.075  10.732   3.901  1.00  0.00     0.075 A 
HETATM    6  C   UNL     1      62.203   9.645   3.009  1.00  0.00     0.025 A 
HETATM    7  N   UNL     1      63.223  11.196   6.028  1.00  0.00    -0.384 N 
HETATM    8  C   UNL     1      64.555   8.544   5.334  1.00  0.00     0.179 C 
HETATM    9  C   UNL     1      61.475   9.419   1.738  1.00  0.00     0.070 C 
HETATM   10  H   UNL     1      63.892  10.874   6.677  1.00  0.00     0.157 HD
HETATM   11  H   UNL     1      62.751  12.043   6.189  1.00  0.00     0.157 HD
ENDROOT
TORSDOF 0
ENDMDL
MODEL 2
REMARK VINA RESULT:      -3.6      1.874      2.700
REMARK  0 active torsions:
REMARK  status: ('A' for Active; 'I' for Inactive)
ROOT
HETATM    1  C   UNL     1      61.936  10.553   2.236  1.00  0.00     0.117 A 
HETATM    2  N   UNL     1      62.359  10.045   3.442  1.00  0.00    -0.281 N 
HETATM    3  N   UNL     1      62.709   8.741   3.378  1.00  0.00    -0.302 N 
ATOM      4  HN  UNL     1      63.053   8.146   4.131  1.00  0.00     0.186 HD
HETATM    5  C   UNL     1      62.018   9.507   1.348  1.00  0.00     0.075 A 
HETATM    6  C   UNL     1      62.500   8.412   2.098  1.00  0.00     0.025 A 
HETATM    7  N   UNL     1      61.532  11.821   2.032  1.00  0.00    -0.384 N 
HETATM    8  C   UNL     1      62.467  10.716   4.714  1.00  0.00     0.179 C 
HETATM    9  C   UNL     1      62.769   7.032   1.627  1.00  0.00     0.070 C 
HETATM   10  H   UNL     1      61.529  12.462   2.780  1.00  0.00     0.157 HD
HETATM   11  H   UNL     1      61.239  12.107   1.138  1.00  0.00     0.157 HD
ENDROOT
TORSDOF 0
ENDMDL
MODEL 3
REMARK VINA RESULT:      -3.6      1.843      3.133
REMARK  0 active torsions:
REMARK  status: ('A' for Active; 'I' for Inactive)
ROOT
HETATM    1  C   UNL     1      61.945  10.636   2.761  1.00  0.00     0.117 A 
HETATM    2  N   UNL     1      62.233   9.423   2.180  1.00  0.00    -0.281 N 
HETATM    3  N   UNL     1      62.636   8.488   3.070  1.00  0.00    -0.302 N 
ATOM      4  HN  UNL     1      62.902   7.521   2.887  1.00  0.00     0.186 HD
HETATM    5  C   UNL     1      62.180  10.465   4.105  1.00  0.00     0.075 A 
HETATM    6  C   UNL     1      62.604   9.125   4.246  1.00  0.00     0.025 A 
HETATM    7  N   UNL     1      61.526  11.729   2.096  1.00  0.00    -0.384 N 
HETATM    8  C   UNL     1      62.161   9.050   0.789  1.00  0.00     0.179 C 
HETATM    9  C   UNL     1      62.991   8.418   5.490  1.00  0.00     0.070 C 
HETATM   10  H   UNL     1      61.403  11.693   1.119  1.00  0.00     0.157 HD
HETATM   11  H   UNL     1      61.343  12.562   2.585  1.00  0.00     0.157 HD
ENDROOT
TORSDOF 0
ENDMDL
MODEL 4
REMARK VINA RESULT:      -3.5      1.355      2.045
REMARK  0 active torsions:
REMARK  status: ('A' for Active; 'I' for Inactive)
ROOT
HETATM    1  C   UNL     1      63.432   8.985   4.634  1.00  0.00     0.117 A 
HETATM    2  N   UNL     1      62.803  10.208   4.649  1.00  0.00    -0.281 N 
HETATM    3  N   UNL     1      62.088  10.453   3.529  1.00  0.00    -0.302 N 
ATOM      4  HN  UNL     1      61.537  11.282   3.304  1.00  0.00     0.186 HD
HETATM    5  C   UNL     1      63.098   8.415   3.428  1.00  0.00     0.075 A 
HETATM    6  C   UNL     1      62.269   9.358   2.782  1.00  0.00     0.025 A 
HETATM    7  N   UNL     1      64.205   8.504   5.626  1.00  0.00    -0.384 N 
HETATM    8  C   UNL     1      62.821  11.218   5.678  1.00  0.00     0.179 C 
HETATM    9  C   UNL     1      61.633   9.248   1.448  1.00  0.00     0.070 C 
HETATM   10  H   UNL     1      64.351   9.039   6.440  1.00  0.00     0.157 HD
HETATM   11  H   UNL     1      64.623   7.618   5.538  1.00  0.00     0.157 HD
ENDROOT
TORSDOF 0
ENDMDL
MODEL 5
REMARK VINA RESULT:      -3.4      1.709      2.581
REMARK  0 active torsions:
REMARK  status: ('A' for Active; 'I' for Inactive)
ROOT
HETATM    1  C   UNL     1      62.471  10.562   4.226  1.00  0.00     0.117 A 
HETATM    2  N   UNL     1      62.132  10.621   2.895  1.00  0.00    -0.281 N 
HETATM    3  N   UNL     1      62.221   9.427   2.269  1.00  0.00    -0.302 N 
ATOM      4  HN  UNL     1      62.023   9.214   1.292  1.00  0.00     0.186 HD
HETATM    5  C   UNL     1      62.799   9.249   4.464  1.00  0.00     0.075 A 
HETATM    6  C   UNL     1      62.630   8.588   3.228  1.00  0.00     0.025 A 
HETATM    7  N   UNL     1      62.467  11.611   5.070  1.00  0.00    -0.384 N 
HETATM    8  C   UNL     1      61.713  11.764   2.122  1.00  0.00     0.179 C 
HETATM    9  C   UNL     1      62.853   7.154   2.923  1.00  0.00     0.070 C 
HETATM   10  H   UNL     1      62.204  12.503   4.745  1.00  0.00     0.157 HD
HETATM   11  H   UNL     1      62.726  11.488   6.011  1.00  0.00     0.157 HD
ENDROOT
TORSDOF 0
ENDMDL
MODEL 6
REMARK VINA RESULT:      -3.4      1.528      3.053
REMARK  0 active torsions:
REMARK  status: ('A' for Active; 'I' for Inactive)
ROOT
HETATM    1  C   UNL     1      62.448   9.387   4.028  1.00  0.00     0.117 A 
HETATM    2  N   UNL     1      63.165   9.975   5.043  1.00  0.00    -0.281 N 
HETATM    3  N   UNL     1      64.272   9.280   5.387  1.00  0.00    -0.302 N 
ATOM      4  HN  UNL     1      64.960   9.509   6.103  1.00  0.00     0.186 HD
HETATM    5  C   UNL     1      63.139   8.244   3.705  1.00  0.00     0.075 A 
HETATM    6  C   UNL     1      64.256   8.221   4.570  1.00  0.00     0.025 A 
HETATM    7  N   UNL     1      61.309   9.877   3.503  1.00  0.00    -0.384 N 
HETATM    8  C   UNL     1      62.882  11.197   5.755  1.00  0.00     0.179 C 
HETATM    9  C   UNL     1      65.328   7.200   4.647  1.00  0.00     0.070 C 
HETATM   10  H   UNL     1      60.933  10.720   3.847  1.00  0.00     0.157 HD
HETATM   11  H   UNL     1      60.853   9.394   2.779  1.00  0.00     0.157 HD
ENDROOT
TORSDOF 0
ENDMDL
MODEL 7
REMARK VINA RESULT:      -3.4      3.666      6.079
REMARK  0 active torsions:
REMARK  status: ('A' for Active; 'I' for Inactive)
ROOT
HETATM    1  C   UNL     1      67.126   7.063   5.553  1.00  0.00     0.117 A 
HETATM    2  N   UNL     1      65.897   7.594   5.863  1.00  0.00    -0.281 N 
HETATM    3  N   UNL     1      65.527   7.370   7.144  1.00  0.00    -0.302 N 
ATOM      4  HN  UNL     1      64.668   7.662   7.610  1.00  0.00     0.186 HD
HETATM    5  C   UNL     1      67.567   6.460   6.707  1.00  0.00     0.075 A 
HETATM    6  C   UNL     1      66.547   6.676   7.659  1.00  0.00     0.025 A 
HETATM    7  N   UNL     1      67.720   7.146   4.347  1.00  0.00    -0.384 N 
HETATM    8  C   UNL     1      64.992   8.330   5.014  1.00  0.00     0.179 C 
HETATM    9  C   UNL     1      66.511   6.230   9.073  1.00  0.00     0.070 C 
HETATM   10  H   UNL     1      67.270   7.618   3.609  1.00  0.00     0.157 HD
HETATM   11  H   UNL     1      68.602   6.735   4.204  1.00  0.00     0.157 HD
ENDROOT
TORSDOF 0
ENDMDL
MODEL 8
REMARK VINA RESULT:      -3.3      1.825      2.327
REMARK  0 active torsions:
REMARK  status: ('A' for Active; 'I' for Inactive)
ROOT
HETATM    1  C   UNL     1      62.792   8.666   5.247  1.00  0.00     0.117 A 
HETATM    2  N   UNL     1      61.920   8.122   4.334  1.00  0.00    -0.281 N 
HETATM    3  N   UNL     1      61.478   9.015   3.422  1.00  0.00    -0.302 N 
ATOM      4  HN  UNL     1      60.831   8.856   2.649  1.00  0.00     0.186 HD
HETATM    5  C   UNL     1      62.913   9.989   4.897  1.00  0.00     0.075 A 
HETATM    6  C   UNL     1      62.083  10.157   3.766  1.00  0.00     0.025 A 
HETATM    7  N   UNL     1      63.373   7.990   6.256  1.00  0.00    -0.384 N 
HETATM    8  C   UNL     1      61.440   6.764   4.243  1.00  0.00     0.179 C 
HETATM    9  C   UNL     1      61.842  11.396   2.989  1.00  0.00     0.070 C 
HETATM   10  H   UNL     1      63.184   7.031   6.379  1.00  0.00     0.157 HD
HETATM   11  H   UNL     1      63.985   8.453   6.871  1.00  0.00     0.157 HD
ENDROOT
TORSDOF 0
ENDMDL
MODEL 9
REMARK VINA RESULT:      -3.3      3.486      4.557
REMARK  0 active torsions:
REMARK  status: ('A' for Active; 'I' for Inactive)
ROOT
HETATM    1  C   UNL     1      66.746   7.741   5.956  1.00  0.00     0.117 A 
HETATM    2  N   UNL     1      66.143   7.224   7.078  1.00  0.00    -0.281 N 
HETATM    3  N   UNL     1      64.796   7.164   6.980  1.00  0.00    -0.302 N 
ATOM      4  HN  UNL     1      64.130   6.821   7.672  1.00  0.00     0.186 HD
HETATM    5  C   UNL     1      65.720   8.031   5.088  1.00  0.00     0.075 A 
HETATM    6  C   UNL     1      64.537   7.658   5.764  1.00  0.00     0.025 A 
HETATM    7  N   UNL     1      68.073   7.908   5.801  1.00  0.00    -0.384 N 
HETATM    8  C   UNL     1      66.756   6.761   8.299  1.00  0.00     0.179 C 
HETATM    9  C   UNL     1      63.140   7.762   5.280  1.00  0.00     0.070 C 
HETATM   10  H   UNL     1      68.689   7.648   6.525  1.00  0.00     0.157 HD
HETATM   11  H   UNL     1      68.427   8.288   4.967  1.00  0.00     0.157 HD
ENDROOT
TORSDOF 0
ENDMDL
