MODEL 1
REMARK VINA RESULT:      -4.3      0.000      0.000
REMARK  1 active torsions:
REMARK  status: ('A' for Active; 'I' for Inactive)
REMARK    1  A    between atoms: C_6  and  C_7 
ROOT
HETATM    1  N   UNL     1      63.769   8.162   3.854  1.00  0.00    -0.301 N 
ATOM      2  HN  UNL     1      64.200   7.293   3.537  1.00  0.00     0.187 HD
HETATM    3  C   UNL     1      62.425   9.987   4.041  1.00  0.00     0.076 A 
HETATM    4  C   UNL     1      63.354  10.051   5.048  1.00  0.00     0.117 A 
HETATM    5  N   UNL     1      64.135   8.932   4.897  1.00  0.00    -0.281 N 
HETATM    6  C   UNL     1      62.711   8.794   3.326  1.00  0.00     0.037 A 
HETATM    7  N   UNL     1      63.534  10.978   6.009  1.00  0.00    -0.384 N 
HETATM    8  C   UNL     1      65.271   8.544   5.697  1.00  0.00     0.179 C 
HETATM    9  H   UNL     1      62.935  11.757   6.058  1.00  0.00     0.157 HD
HETATM   10  H   UNL     1      64.265  10.876   6.660  1.00  0.00     0.157 HD
ENDROOT
BRANCH   6  11
HETATM   11  C   UNL     1      62.015   8.243   2.092  1.00  0.00    -0.007 C 
HETATM   12  C   UNL     1      62.724   6.954   1.633  1.00  0.00     0.021 C 
HETATM   13  C   UNL     1      60.533   7.919   2.382  1.00  0.00     0.021 C 
HETATM   14  C   UNL     1      62.049   9.257   0.928  1.00  0.00     0.021 C 
ENDBRANCH   6  11
TORSDOF 1
ENDMDL
MODEL 2
REMARK VINA RESULT:      -4.3      1.558      2.241
REMARK  1 active torsions:
REMARK  status: ('A' for Active; 'I' for Inactive)
REMARK    1  A    between atoms: C_6  and  C_7 
ROOT
HETATM    1  N   UNL     1      63.912   7.531   3.375  1.00  0.00    -0.301 N 
ATOM      2  HN  UNL     1      63.705   6.956   2.559  1.00  0.00     0.187 HD
HETATM    3  C   UNL     1      63.867   9.159   4.964  1.00  0.00     0.076 A 
HETATM    4  C   UNL     1      64.914   8.323   5.256  1.00  0.00     0.117 A 
HETATM    5  N   UNL     1      64.897   7.361   4.278  1.00  0.00    -0.281 N 
HETATM    6  C   UNL     1      63.263   8.629   3.793  1.00  0.00     0.037 A 
HETATM    7  N   UNL     1      65.814   8.372   6.257  1.00  0.00    -0.384 N 
HETATM    8  C   UNL     1      65.812   6.256   4.122  1.00  0.00     0.179 C 
HETATM    9  H   UNL     1      65.766   9.093   6.926  1.00  0.00     0.157 HD
HETATM   10  H   UNL     1      66.518   7.688   6.320  1.00  0.00     0.157 HD
ENDROOT
BRANCH   6  11
HETATM   11  C   UNL     1      62.079   9.174   3.010  1.00  0.00    -0.007 C 
HETATM   12  C   UNL     1      60.799   8.424   3.424  1.00  0.00     0.021 C 
HETATM   13  C   UNL     1      61.879  10.682   3.276  1.00  0.00     0.021 C 
HETATM   14  C   UNL     1      62.280   8.993   1.491  1.00  0.00     0.021 C 
ENDBRANCH   6  11
TORSDOF 1
ENDMDL
MODEL 3
REMARK VINA RESULT:      -4.2      2.457      3.832
REMARK  1 active torsions:
REMARK  status: ('A' for Active; 'I' for Inactive)
REMARK    1  A    between atoms: C_6  and  C_7 
ROOT
HETATM    1  N   UNL     1      64.577   7.267   6.769  1.00  0.00    -0.301 N 
ATOM      2  HN  UNL     1      63.762   7.039   7.338  1.00  0.00     0.187 HD
HETATM    3  C   UNL     1      65.928   7.960   5.075  1.00  0.00     0.076 A 
HETATM    4  C   UNL     1      66.732   7.487   6.080  1.00  0.00     0.117 A 
HETATM    5  N   UNL     1      65.876   7.087   7.075  1.00  0.00    -0.281 N 
HETATM    6  C   UNL     1      64.596   7.815   5.544  1.00  0.00     0.037 A 
HETATM    7  N   UNL     1      68.074   7.392   6.149  1.00  0.00    -0.384 N 
HETATM    8  C   UNL     1      66.226   6.495   8.344  1.00  0.00     0.179 C 
HETATM    9  H   UNL     1      68.628   7.700   5.396  1.00  0.00     0.157 HD
HETATM   10  H   UNL     1      68.500   7.016   6.953  1.00  0.00     0.157 HD
ENDROOT
BRANCH   6  11
HETATM   11  C   UNL     1      63.299   8.150   4.825  1.00  0.00    -0.007 C 
HETATM   12  C   UNL     1      62.151   7.306   5.413  1.00  0.00     0.021 C 
HETATM   13  C   UNL     1      62.944   9.645   4.976  1.00  0.00     0.021 C 
HETATM   14  C   UNL     1      63.400   7.847   3.315  1.00  0.00     0.021 C 
ENDBRANCH   6  11
TORSDOF 1
ENDMDL
MODEL 4
REMARK VINA RESULT:      -4.1      1.208      1.739
REMARK  1 active torsions:
REMARK  status: ('A' for Active; 'I' for Inactive)
REMARK    1  A    between atoms: C_6  and  C_7 
ROOT
HETATM    1  N   UNL     1      62.370   9.667   3.666  1.00  0.00    -0.301 N 
ATOM      2  HN  UNL     1      61.623  10.282   3.344  1.00  0.00     0.187 HD
HETATM    3  C   UNL     1      63.846   7.947   3.862  1.00  0.00     0.076 A 
HETATM    4  C   UNL     1      64.061   8.800   4.915  1.00  0.00     0.117 A 
HETATM    5  N   UNL     1      63.154   9.817   4.751  1.00  0.00    -0.281 N 
HETATM    6  C   UNL     1      62.794   8.525   3.103  1.00  0.00     0.037 A 
HETATM    7  N   UNL     1      64.940   8.723   5.932  1.00  0.00    -0.384 N 
HETATM    8  C   UNL     1      62.959  10.960   5.609  1.00  0.00     0.179 C 
HETATM    9  H   UNL     1      65.562   7.962   5.986  1.00  0.00     0.157 HD
HETATM   10  H   UNL     1      64.959   9.426   6.620  1.00  0.00     0.157 HD
ENDROOT
BRANCH   6  11
HETATM   11  C   UNL     1      62.128   7.986   1.847  1.00  0.00    -0.007 C 
HETATM   12  C   UNL     1      62.859   6.711   1.384  1.00  0.00     0.021 C 
HETATM   13  C   UNL     1      60.644   7.643   2.102  1.00  0.00     0.021 C 
HETATM   14  C   UNL     1      62.176   9.018   0.700  1.00  0.00     0.021 C 
ENDBRANCH   6  11
TORSDOF 1
ENDMDL
MODEL 5
REMARK VINA RESULT:      -4.0      2.020      3.808
REMARK  1 active torsions:
REMARK  status: ('A' for Active; 'I' for Inactive)
REMARK    1  A    between atoms: C_6  and  C_7 
ROOT
HETATM    1  N   UNL     1      63.053   8.029   2.661  1.00  0.00    -0.301 N 
ATOM      2  HN  UNL     1      63.363   7.145   2.258  1.00  0.00     0.187 HD
HETATM    3  C   UNL     1      62.635   9.742   4.098  1.00  0.00     0.076 A 
HETATM    4  C   UNL     1      62.092  10.077   2.883  1.00  0.00     0.117 A 
HETATM    5  N   UNL     1      62.373   9.020   2.054  1.00  0.00    -0.281 N 
HETATM    6  C   UNL     1      63.231   8.466   3.917  1.00  0.00     0.037 A 
HETATM    7  N   UNL     1      61.411  11.177   2.508  1.00  0.00    -0.384 N 
HETATM    8  C   UNL     1      61.997   8.873   0.668  1.00  0.00     0.179 C 
HETATM    9  H   UNL     1      61.246  11.898   3.158  1.00  0.00     0.157 HD
HETATM   10  H   UNL     1      61.078  11.259   1.586  1.00  0.00     0.157 HD
ENDROOT
BRANCH   6  11
HETATM   11  C   UNL     1      63.947   7.604   4.944  1.00  0.00    -0.007 C 
HETATM   12  C   UNL     1      64.318   6.249   4.310  1.00  0.00     0.021 C 
HETATM   13  C   UNL     1      65.238   8.287   5.446  1.00  0.00     0.021 C 
HETATM   14  C   UNL     1      63.054   7.337   6.174  1.00  0.00     0.021 C 
ENDBRANCH   6  11
TORSDOF 1
ENDMDL
MODEL 6
REMARK VINA RESULT:      -4.0      1.817      2.929
REMARK  1 active torsions:
REMARK  status: ('A' for Active; 'I' for Inactive)
REMARK    1  A    between atoms: C_6  and  C_7 
ROOT
HETATM    1  N   UNL     1      62.605   9.092   3.145  1.00  0.00    -0.301 N 
ATOM      2  HN  UNL     1      62.193   8.891   2.234  1.00  0.00     0.187 HD
HETATM    3  C   UNL     1      63.715   8.917   5.123  1.00  0.00     0.076 A 
HETATM    4  C   UNL     1      63.187  10.181   5.054  1.00  0.00     0.117 A 
HETATM    5  N   UNL     1      62.534  10.239   3.848  1.00  0.00    -0.281 N 
HETATM    6  C   UNL     1      63.339   8.273   3.914  1.00  0.00     0.037 A 
HETATM    7  N   UNL     1      63.243  11.197   5.937  1.00  0.00    -0.384 N 
HETATM    8  C   UNL     1      61.794  11.353   3.308  1.00  0.00     0.179 C 
HETATM    9  H   UNL     1      63.731  11.084   6.785  1.00  0.00     0.157 HD
HETATM   10  H   UNL     1      62.798  12.050   5.734  1.00  0.00     0.157 HD
ENDROOT
BRANCH   6  11
HETATM   11  C   UNL     1      63.627   6.847   3.473  1.00  0.00    -0.007 C 
HETATM   12  C   UNL     1      63.220   6.672   1.998  1.00  0.00     0.021 C 
HETATM   13  C   UNL     1      65.126   6.508   3.618  1.00  0.00     0.021 C 
HETATM   14  C   UNL     1      62.836   5.828   4.320  1.00  0.00     0.021 C 
ENDBRANCH   6  11
TORSDOF 1
ENDMDL
MODEL 7
REMARK VINA RESULT:      -3.8      3.252      5.045
REMARK  1 active torsions:
REMARK  status: ('A' for Active; 'I' for Inactive)
REMARK    1  A    between atoms: C_6  and  C_7 
ROOT
HETATM    1  N   UNL     1      59.941   8.180   3.110  1.00  0.00    -0.301 N 
ATOM      2  HN  UNL     1      60.361   8.468   3.993  1.00  0.00     0.187 HD
HETATM    3  C   UNL     1      59.573   7.762   0.904  1.00  0.00     0.076 A 
HETATM    4  C   UNL     1      58.447   7.384   1.592  1.00  0.00     0.117 A 
HETATM    5  N   UNL     1      58.718   7.650   2.910  1.00  0.00    -0.281 N 
HETATM    6  C   UNL     1      60.481   8.244   1.883  1.00  0.00     0.037 A 
HETATM    7  N   UNL     1      57.287   6.866   1.144  1.00  0.00    -0.384 N 
HETATM    8  C   UNL     1      57.844   7.448   4.040  1.00  0.00     0.179 C 
HETATM    9  H   UNL     1      57.162   6.701   0.182  1.00  0.00     0.157 HD
HETATM   10  H   UNL     1      56.566   6.653   1.779  1.00  0.00     0.157 HD
ENDROOT
BRANCH   6  11
HETATM   11  C   UNL     1      61.872   8.822   1.679  1.00  0.00    -0.007 C 
HETATM   12  C   UNL     1      62.377   8.460   0.269  1.00  0.00     0.021 C 
HETATM   13  C   UNL     1      61.868  10.359   1.826  1.00  0.00     0.021 C 
HETATM   14  C   UNL     1      62.871   8.259   2.712  1.00  0.00     0.021 C 
ENDBRANCH   6  11
TORSDOF 1
ENDMDL
MODEL 8
REMARK VINA RESULT:      -3.7      2.261      3.772
REMARK  1 active torsions:
REMARK  status: ('A' for Active; 'I' for Inactive)
REMARK    1  A    between atoms: C_6  and  C_7 
ROOT
HETATM    1  N   UNL     1      64.857   7.954   6.081  1.00  0.00    -0.301 N 
ATOM      2  HN  UNL     1      64.378   8.442   6.838  1.00  0.00     0.187 HD
HETATM    3  C   UNL     1      65.374   7.018   4.073  1.00  0.00     0.076 A 
HETATM    4  C   UNL     1      66.419   6.771   4.927  1.00  0.00     0.117 A 
HETATM    5  N   UNL     1      66.064   7.356   6.117  1.00  0.00    -0.281 N 
HETATM    6  C   UNL     1      64.427   7.763   4.824  1.00  0.00     0.037 A 
HETATM    7  N   UNL     1      67.570   6.102   4.724  1.00  0.00    -0.384 N 
HETATM    8  C   UNL     1      66.817   7.361   7.347  1.00  0.00     0.179 C 
HETATM    9  H   UNL     1      67.759   5.707   3.842  1.00  0.00     0.157 HD
HETATM   10  H   UNL     1      68.221   6.008   5.456  1.00  0.00     0.157 HD
ENDROOT
BRANCH   6  11
HETATM   11  C   UNL     1      63.066   8.276   4.385  1.00  0.00    -0.007 C 
HETATM   12  C   UNL     1      62.859   9.708   4.916  1.00  0.00     0.021 C 
HETATM   13  C   UNL     1      62.945   8.296   2.845  1.00  0.00     0.021 C 
HETATM   14  C   UNL     1      61.928   7.387   4.929  1.00  0.00     0.021 C 
ENDBRANCH   6  11
TORSDOF 1
ENDMDL
MODEL 9
REMARK VINA RESULT:      -3.7      2.988      4.564
REMARK  1 active torsions:
REMARK  status: ('A' for Active; 'I' for Inactive)
REMARK    1  A    between atoms: C_6  and  C_7 
ROOT
HETATM    1  N   UNL     1      59.738   8.379   3.348  1.00  0.00    -0.301 N 
ATOM      2  HN  UNL     1      59.405   9.148   2.767  1.00  0.00     0.187 HD
HETATM    3  C   UNL     1      61.058   6.945   4.522  1.00  0.00     0.076 A 
HETATM    4  C   UNL     1      59.765   6.497   4.623  1.00  0.00     0.117 A 
HETATM    5  N   UNL     1      59.011   7.392   3.907  1.00  0.00    -0.281 N 
HETATM    6  C   UNL     1      60.998   8.122   3.729  1.00  0.00     0.037 A 
HETATM    7  N   UNL     1      59.265   5.420   5.259  1.00  0.00    -0.384 N 
HETATM    8  C   UNL     1      57.585   7.355   3.687  1.00  0.00     0.179 C 
HETATM    9  H   UNL     1      59.866   4.819   5.755  1.00  0.00     0.157 HD
HETATM   10  H   UNL     1      58.299   5.235   5.227  1.00  0.00     0.157 HD
ENDROOT
BRANCH   6  11
HETATM   11  C   UNL     1      62.143   9.011   3.271  1.00  0.00    -0.007 C 
HETATM   12  C   UNL     1      62.162   9.074   1.731  1.00  0.00     0.021 C 
HETATM   13  C   UNL     1      61.995  10.445   3.825  1.00  0.00     0.021 C 
HETATM   14  C   UNL     1      63.504   8.466   3.751  1.00  0.00     0.021 C 
ENDBRANCH   6  11
TORSDOF 1
ENDMDL
