MODEL 1
REMARK VINA RESULT:      -4.5      0.000      0.000
REMARK  2 active torsions:
REMARK  status: ('A' for Active; 'I' for Inactive)
REMARK    1  A    between atoms: C_3  and  C_7 
REMARK    2  A    between atoms: C_5  and  N_11 
ROOT
HETATM    1  N   UNL     1      64.560   7.443   6.588  1.00  0.00    -0.296 N 
ATOM      2  HN  UNL     1      63.677   7.338   7.087  1.00  0.00     0.187 HD
HETATM    3  C   UNL     1      64.791   8.114   5.450  1.00  0.00     0.069 A 
HETATM    4  C   UNL     1      66.160   8.076   5.093  1.00  0.00     0.081 A 
HETATM    5  C   UNL     1      66.775   7.339   6.076  1.00  0.00     0.117 A 
HETATM    6  N   UNL     1      65.767   6.942   6.919  1.00  0.00    -0.281 N 
HETATM    7  C   UNL     1      65.871   6.036   8.038  1.00  0.00     0.179 C 
ENDROOT
BRANCH   3   8
HETATM    8  C   UNL     1      63.689   8.791   4.688  1.00  0.00     0.033 A 
HETATM    9  S   UNL     1      62.958  10.265   5.155  1.00  0.00    -0.100 SA
HETATM   10  C   UNL     1      61.943  10.272   3.777  1.00  0.00     0.050 A 
HETATM   11  C   UNL     1      62.134   9.159   2.990  1.00  0.00     0.008 A 
HETATM   12  C   UNL     1      63.146   8.303   3.517  1.00  0.00     0.021 A 
ENDBRANCH   3   8
BRANCH   5  13
HETATM   13  N   UNL     1      68.074   7.013   6.241  1.00  0.00    -0.384 N 
HETATM   14  H   UNL     1      68.362   6.537   7.053  1.00  0.00     0.157 HD
HETATM   15  H   UNL     1      68.733   7.250   5.549  1.00  0.00     0.157 HD
ENDBRANCH   5  13
TORSDOF 2
ENDMDL
MODEL 2
REMARK VINA RESULT:      -4.4      2.721      4.066
REMARK  2 active torsions:
REMARK  status: ('A' for Active; 'I' for Inactive)
REMARK    1  A    between atoms: C_3  and  C_7 
REMARK    2  A    between atoms: C_5  and  N_11 
ROOT
HETATM    1  N   UNL     1      63.222   8.246   4.031  1.00  0.00    -0.296 N 
ATOM      2  HN  UNL     1      63.469   7.303   3.733  1.00  0.00     0.187 HD
HETATM    3  C   UNL     1      62.167   8.983   3.654  1.00  0.00     0.069 A 
HETATM    4  C   UNL     1      62.135  10.228   4.327  1.00  0.00     0.081 A 
HETATM    5  C   UNL     1      63.237  10.229   5.148  1.00  0.00     0.117 A 
HETATM    6  N   UNL     1      63.881   9.043   4.896  1.00  0.00    -0.281 N 
HETATM    7  C   UNL     1      65.163   8.621   5.409  1.00  0.00     0.179 C 
ENDROOT
BRANCH   3   8
HETATM    8  C   UNL     1      61.181   8.495   2.633  1.00  0.00     0.033 A 
HETATM    9  S   UNL     1      59.839   7.496   2.986  1.00  0.00    -0.100 SA
HETATM   10  C   UNL     1      59.319   7.508   1.356  1.00  0.00     0.050 A 
HETATM   11  C   UNL     1      60.166   8.234   0.549  1.00  0.00     0.008 A 
HETATM   12  C   UNL     1      61.243   8.807   1.290  1.00  0.00     0.021 A 
ENDBRANCH   3   8
BRANCH   5  13
HETATM   13  N   UNL     1      63.674  11.160   6.023  1.00  0.00    -0.384 N 
HETATM   14  H   UNL     1      63.817  12.087   5.724  1.00  0.00     0.157 HD
HETATM   15  H   UNL     1      63.849  10.911   6.959  1.00  0.00     0.157 HD
ENDBRANCH   5  13
TORSDOF 2
ENDMDL
MODEL 3
REMARK VINA RESULT:      -4.4      2.579      4.982
REMARK  2 active torsions:
REMARK  status: ('A' for Active; 'I' for Inactive)
REMARK    1  A    between atoms: C_3  and  C_7 
REMARK    2  A    between atoms: C_5  and  N_11 
ROOT
HETATM    1  N   UNL     1      64.184   9.593   5.486  1.00  0.00    -0.296 N 
ATOM      2  HN  UNL     1      64.768  10.000   6.216  1.00  0.00     0.187 HD
HETATM    3  C   UNL     1      64.388   8.458   4.801  1.00  0.00     0.069 A 
HETATM    4  C   UNL     1      63.327   8.196   3.902  1.00  0.00     0.081 A 
HETATM    5  C   UNL     1      62.444   9.236   4.063  1.00  0.00     0.117 A 
HETATM    6  N   UNL     1      63.027  10.070   4.984  1.00  0.00    -0.281 N 
HETATM    7  C   UNL     1      62.561  11.371   5.400  1.00  0.00     0.179 C 
ENDROOT
BRANCH   3   8
HETATM    8  C   UNL     1      65.616   7.619   5.001  1.00  0.00     0.033 A 
HETATM    9  S   UNL     1      66.652   7.731   6.357  1.00  0.00    -0.100 SA
HETATM   10  C   UNL     1      67.651   6.467   5.780  1.00  0.00     0.050 A 
HETATM   11  C   UNL     1      67.223   5.987   4.562  1.00  0.00     0.008 A 
HETATM   12  C   UNL     1      66.045   6.652   4.113  1.00  0.00     0.021 A 
ENDBRANCH   3   8
BRANCH   5  13
HETATM   13  N   UNL     1      61.255   9.473   3.469  1.00  0.00    -0.384 N 
HETATM   14  H   UNL     1      61.130   9.259   2.517  1.00  0.00     0.157 HD
HETATM   15  H   UNL     1      60.514   9.861   3.989  1.00  0.00     0.157 HD
ENDBRANCH   5  13
TORSDOF 2
ENDMDL
MODEL 4
REMARK VINA RESULT:      -4.3      1.527      2.123
REMARK  2 active torsions:
REMARK  status: ('A' for Active; 'I' for Inactive)
REMARK    1  A    between atoms: C_3  and  C_7 
REMARK    2  A    between atoms: C_5  and  N_11 
ROOT
HETATM    1  N   UNL     1      65.217   8.210   6.189  1.00  0.00    -0.296 N 
ATOM      2  HN  UNL     1      65.740   9.085   6.176  1.00  0.00     0.187 HD
HETATM    3  C   UNL     1      64.053   7.933   5.584  1.00  0.00     0.069 A 
HETATM    4  C   UNL     1      63.666   6.588   5.792  1.00  0.00     0.081 A 
HETATM    5  C   UNL     1      64.657   6.036   6.566  1.00  0.00     0.117 A 
HETATM    6  N   UNL     1      65.536   7.060   6.818  1.00  0.00    -0.281 N 
HETATM    7  C   UNL     1      66.681   7.031   7.696  1.00  0.00     0.179 C 
ENDROOT
BRANCH   3   8
HETATM    8  C   UNL     1      63.295   8.969   4.806  1.00  0.00     0.033 A 
HETATM    9  S   UNL     1      62.686   8.735   3.226  1.00  0.00    -0.100 SA
HETATM   10  C   UNL     1      61.993  10.299   3.191  1.00  0.00     0.050 A 
HETATM   11  C   UNL     1      62.245  11.001   4.349  1.00  0.00     0.008 A 
HETATM   12  C   UNL     1      62.997  10.229   5.283  1.00  0.00     0.021 A 
ENDBRANCH   3   8
BRANCH   5  13
HETATM   13  N   UNL     1      64.802   4.779   7.037  1.00  0.00    -0.384 N 
HETATM   14  H   UNL     1      64.011   4.207   7.161  1.00  0.00     0.157 HD
HETATM   15  H   UNL     1      65.698   4.436   7.255  1.00  0.00     0.157 HD
ENDBRANCH   5  13
TORSDOF 2
ENDMDL
MODEL 5
REMARK VINA RESULT:      -4.1      2.756      5.265
REMARK  2 active torsions:
REMARK  status: ('A' for Active; 'I' for Inactive)
REMARK    1  A    between atoms: C_3  and  C_7 
REMARK    2  A    between atoms: C_5  and  N_11 
ROOT
HETATM    1  N   UNL     1      63.590   7.882   3.260  1.00  0.00    -0.296 N 
ATOM      2  HN  UNL     1      64.050   7.054   2.882  1.00  0.00     0.187 HD
HETATM    3  C   UNL     1      63.736   8.424   4.478  1.00  0.00     0.069 A 
HETATM    4  C   UNL     1      62.969   9.605   4.617  1.00  0.00     0.081 A 
HETATM    5  C   UNL     1      62.330   9.771   3.412  1.00  0.00     0.117 A 
HETATM    6  N   UNL     1      62.696   8.687   2.652  1.00  0.00    -0.281 N 
HETATM    7  C   UNL     1      62.191   8.324   1.350  1.00  0.00     0.179 C 
ENDROOT
BRANCH   3   8
HETATM    8  C   UNL     1      64.611   7.801   5.526  1.00  0.00     0.033 A 
HETATM    9  S   UNL     1      64.159   6.463   6.491  1.00  0.00    -0.100 SA
HETATM   10  C   UNL     1      65.677   6.437   7.280  1.00  0.00     0.050 A 
HETATM   11  C   UNL     1      66.505   7.446   6.841  1.00  0.00     0.008 A 
HETATM   12  C   UNL     1      65.888   8.233   5.824  1.00  0.00     0.021 A 
ENDBRANCH   3   8
BRANCH   5  13
HETATM   13  N   UNL     1      61.495  10.744   2.991  1.00  0.00    -0.384 N 
HETATM   14  H   UNL     1      60.782  11.071   3.587  1.00  0.00     0.157 HD
HETATM   15  H   UNL     1      61.599  11.127   2.090  1.00  0.00     0.157 HD
ENDBRANCH   5  13
TORSDOF 2
ENDMDL
MODEL 6
REMARK VINA RESULT:      -4.0      1.640      2.132
REMARK  2 active torsions:
REMARK  status: ('A' for Active; 'I' for Inactive)
REMARK    1  A    between atoms: C_3  and  C_7 
REMARK    2  A    between atoms: C_5  and  N_11 
ROOT
HETATM    1  N   UNL     1      62.884   6.836   4.782  1.00  0.00    -0.296 N 
ATOM      2  HN  UNL     1      62.090   6.345   4.373  1.00  0.00     0.187 HD
HETATM    3  C   UNL     1      63.345   8.059   4.478  1.00  0.00     0.069 A 
HETATM    4  C   UNL     1      64.439   8.420   5.301  1.00  0.00     0.081 A 
HETATM    5  C   UNL     1      64.638   7.350   6.139  1.00  0.00     0.117 A 
HETATM    6  N   UNL     1      63.715   6.409   5.754  1.00  0.00    -0.281 N 
HETATM    7  C   UNL     1      63.598   5.054   6.237  1.00  0.00     0.179 C 
ENDROOT
BRANCH   3   8
HETATM    8  C   UNL     1      62.740   8.887   3.383  1.00  0.00     0.033 A 
HETATM    9  S   UNL     1      62.108  10.461   3.600  1.00  0.00    -0.100 SA
HETATM   10  C   UNL     1      61.725  10.607   1.939  1.00  0.00     0.050 A 
HETATM   11  C   UNL     1      62.044   9.468   1.234  1.00  0.00     0.008 A 
HETATM   12  C   UNL     1      62.634   8.474   2.070  1.00  0.00     0.021 A 
ENDBRANCH   3   8
BRANCH   5  13
HETATM   13  N   UNL     1      65.534   7.172   7.132  1.00  0.00    -0.384 N 
HETATM   14  H   UNL     1      66.059   6.341   7.177  1.00  0.00     0.157 HD
HETATM   15  H   UNL     1      65.661   7.874   7.812  1.00  0.00     0.157 HD
ENDBRANCH   5  13
TORSDOF 2
ENDMDL
MODEL 7
REMARK VINA RESULT:      -3.4      3.131      4.012
REMARK  2 active torsions:
REMARK  status: ('A' for Active; 'I' for Inactive)
REMARK    1  A    between atoms: C_3  and  C_7 
REMARK    2  A    between atoms: C_5  and  N_11 
ROOT
HETATM    1  N   UNL     1      64.290   6.926   3.445  1.00  0.00    -0.296 N 
ATOM      2  HN  UNL     1      64.851   7.170   4.262  1.00  0.00     0.187 HD
HETATM    3  C   UNL     1      63.320   7.646   2.864  1.00  0.00     0.069 A 
HETATM    4  C   UNL     1      62.808   6.997   1.716  1.00  0.00     0.081 A 
HETATM    5  C   UNL     1      63.514   5.823   1.612  1.00  0.00     0.117 A 
HETATM    6  N   UNL     1      64.353   5.805   2.699  1.00  0.00    -0.281 N 
HETATM    7  C   UNL     1      65.212   4.724   3.120  1.00  0.00     0.179 C 
ENDROOT
BRANCH   3   8
HETATM    8  C   UNL     1      62.870   8.967   3.417  1.00  0.00     0.033 A 
HETATM    9  S   UNL     1      63.182   9.502   5.011  1.00  0.00    -0.100 SA
HETATM   10  C   UNL     1      62.402  10.999   4.731  1.00  0.00     0.050 A 
HETATM   11  C   UNL     1      61.885  11.081   3.457  1.00  0.00     0.008 A 
HETATM   12  C   UNL     1      62.159   9.905   2.697  1.00  0.00     0.021 A 
ENDBRANCH   3   8
BRANCH   5  13
HETATM   13  N   UNL     1      63.446   4.840   0.690  1.00  0.00    -0.384 N 
HETATM   14  H   UNL     1      64.195   4.698   0.067  1.00  0.00     0.157 HD
HETATM   15  H   UNL     1      62.648   4.266   0.640  1.00  0.00     0.157 HD
ENDBRANCH   5  13
TORSDOF 2
ENDMDL
MODEL 8
REMARK VINA RESULT:      -3.3     11.386     12.907
REMARK  2 active torsions:
REMARK  status: ('A' for Active; 'I' for Inactive)
REMARK    1  A    between atoms: C_3  and  C_7 
REMARK    2  A    between atoms: C_5  and  N_11 
ROOT
HETATM    1  N   UNL     1      56.571   2.029  11.642  1.00  0.00    -0.296 N 
ATOM      2  HN  UNL     1      56.624   1.985  10.624  1.00  0.00     0.187 HD
HETATM    3  C   UNL     1      57.492   1.638  12.534  1.00  0.00     0.069 A 
HETATM    4  C   UNL     1      57.078   1.907  13.860  1.00  0.00     0.081 A 
HETATM    5  C   UNL     1      55.839   2.490  13.747  1.00  0.00     0.117 A 
HETATM    6  N   UNL     1      55.560   2.494  12.402  1.00  0.00    -0.281 N 
HETATM    7  C   UNL     1      54.322   2.881  11.770  1.00  0.00     0.179 C 
ENDROOT
BRANCH   3   8
HETATM    8  C   UNL     1      58.780   0.990  12.116  1.00  0.00     0.033 A 
HETATM    9  S   UNL     1      59.233   0.701  10.493  1.00  0.00    -0.100 SA
HETATM   10  C   UNL     1      60.738   0.037  10.962  1.00  0.00     0.050 A 
HETATM   11  C   UNL     1      60.884   0.007  12.331  1.00  0.00     0.008 A 
HETATM   12  C   UNL     1      59.751   0.560  12.998  1.00  0.00     0.021 A 
ENDBRANCH   3   8
BRANCH   5  13
HETATM   13  N   UNL     1      55.005   2.963  14.696  1.00  0.00    -0.384 N 
HETATM   14  H   UNL     1      55.110   3.884  15.029  1.00  0.00     0.157 HD
HETATM   15  H   UNL     1      54.291   2.388  15.055  1.00  0.00     0.157 HD
ENDBRANCH   5  13
TORSDOF 2
ENDMDL
MODEL 9
REMARK VINA RESULT:      -3.3     12.075     13.811
REMARK  2 active torsions:
REMARK  status: ('A' for Active; 'I' for Inactive)
REMARK    1  A    between atoms: C_3  and  C_7 
REMARK    2  A    between atoms: C_5  and  N_11 
ROOT
HETATM    1  N   UNL     1      54.980   2.919  11.904  1.00  0.00    -0.296 N 
ATOM      2  HN  UNL     1      55.278   2.757  10.942  1.00  0.00     0.187 HD
HETATM    3  C   UNL     1      55.698   2.772  13.027  1.00  0.00     0.069 A 
HETATM    4  C   UNL     1      54.954   3.144  14.172  1.00  0.00     0.081 A 
HETATM    5  C   UNL     1      53.724   3.533  13.700  1.00  0.00     0.117 A 
HETATM    6  N   UNL     1      53.774   3.331  12.342  1.00  0.00    -0.281 N 
HETATM    7  C   UNL     1      52.688   3.463  11.401  1.00  0.00     0.179 C 
ENDROOT
BRANCH   3   8
HETATM    8  C   UNL     1      57.109   2.260  13.007  1.00  0.00     0.033 A 
HETATM    9  S   UNL     1      58.164   2.389  11.667  1.00  0.00    -0.100 SA
HETATM   10  C   UNL     1      59.445   1.643  12.521  1.00  0.00     0.050 A 
HETATM   11  C   UNL     1      59.071   1.275  13.795  1.00  0.00     0.008 A 
HETATM   12  C   UNL     1      57.719   1.635  14.075  1.00  0.00     0.021 A 
ENDBRANCH   3   8
BRANCH   5  13
HETATM   13  N   UNL     1      52.643   4.000  14.358  1.00  0.00    -0.384 N 
HETATM   14  H   UNL     1      52.256   3.480  15.099  1.00  0.00     0.157 HD
HETATM   15  H   UNL     1      52.241   4.861  14.097  1.00  0.00     0.157 HD
ENDBRANCH   5  13
TORSDOF 2
ENDMDL
