MODEL 1
REMARK VINA RESULT:      -5.5      0.000      0.000
REMARK  5 active torsions:
REMARK  status: ('A' for Active; 'I' for Inactive)
REMARK    1  A    between atoms: S_1  and  C_5 
REMARK    2  A    between atoms: S_1  and  C_9 
REMARK    3  A    between atoms: N_2  and  C_6 
REMARK    4  A    between atoms: C_5  and  C_6 
REMARK    5  A    between atoms: C_9  and  C_10 
ROOT
HETATM    1  S   UNL     1      65.215   7.618   5.587  1.00  0.00     0.159 S 
HETATM    2  O   UNL     1      65.562   7.251   4.222  1.00  0.00    -0.227 OA
HETATM    3  O   UNL     1      65.763   8.845   6.138  1.00  0.00    -0.227 OA
ENDROOT
BRANCH   1   4
HETATM    4  C   UNL     1      65.732   6.274   6.628  1.00  0.00     0.244 C 
BRANCH   4   5
HETATM    5  C   UNL     1      66.650   6.826   7.706  1.00  0.00    -0.063 C 
BRANCH   5   6
HETATM    6  N   UNL     1      67.413   7.284   8.600  1.00  0.00    -0.369 N 
ATOM      7  HN2 UNL     1      66.827   6.904   7.857  1.00  0.00     0.165 HD
ATOM      8  HN1 UNL     1      68.030   7.655   9.324  1.00  0.00     0.165 HD
ENDBRANCH   5   6
ENDBRANCH   4   5
ENDBRANCH   1   4
BRANCH   1   9
HETATM    9  C   UNL     1      63.425   7.730   5.700  1.00  0.00     0.179 C 
BRANCH   9  10
HETATM   10  C   UNL     1      62.901   8.798   4.777  1.00  0.00    -0.044 A 
HETATM   11  C   UNL     1      62.552   8.489   3.454  1.00  0.00     0.010 A 
HETATM   12  C   UNL     1      62.139   9.496   2.578  1.00  0.00     0.024 A 
HETATM   13  C   UNL     1      62.040  10.811   3.024  1.00  0.00     0.034 A 
HETATM   14  C   UNL     1      62.333  11.126   4.349  1.00  0.00     0.024 A 
HETATM   15 CL   UNL     1      61.565  12.050   1.932  1.00  0.00    -0.084 Cl
HETATM   16  C   UNL     1      62.762  10.123   5.222  1.00  0.00     0.010 A 
ENDBRANCH   9  10
ENDBRANCH   1   9
TORSDOF 5
ENDMDL
MODEL 2
REMARK VINA RESULT:      -5.0      1.757      2.286
REMARK  5 active torsions:
REMARK  status: ('A' for Active; 'I' for Inactive)
REMARK    1  A    between atoms: S_1  and  C_5 
REMARK    2  A    between atoms: S_1  and  C_9 
REMARK    3  A    between atoms: N_2  and  C_6 
REMARK    4  A    between atoms: C_5  and  C_6 
REMARK    5  A    between atoms: C_9  and  C_10 
ROOT
HETATM    1  S   UNL     1      64.709   7.201   5.923  1.00  0.00     0.159 S 
HETATM    2  O   UNL     1      65.414   8.227   5.168  1.00  0.00    -0.227 OA
HETATM    3  O   UNL     1      64.799   7.219   7.372  1.00  0.00    -0.227 OA
ENDROOT
BRANCH   1   4
HETATM    4  C   UNL     1      65.324   5.633   5.357  1.00  0.00     0.244 C 
BRANCH   4   5
HETATM    5  C   UNL     1      66.442   5.886   4.360  1.00  0.00    -0.063 C 
BRANCH   5   6
HETATM    6  N   UNL     1      67.371   6.097   3.533  1.00  0.00    -0.369 N 
ATOM      7  HN2 UNL     1      66.642   5.940   4.230  1.00  0.00     0.165 HD
ATOM      8  HN1 UNL     1      68.122   6.268   2.863  1.00  0.00     0.165 HD
ENDBRANCH   5   6
ENDBRANCH   4   5
ENDBRANCH   1   4
BRANCH   1   9
HETATM    9  C   UNL     1      62.967   7.286   5.492  1.00  0.00     0.179 C 
BRANCH   9  10
HETATM   10  C   UNL     1      62.696   8.468   4.600  1.00  0.00    -0.044 A 
HETATM   11  C   UNL     1      62.612   9.762   5.137  1.00  0.00     0.010 A 
HETATM   12  C   UNL     1      62.285  10.847   4.320  1.00  0.00     0.024 A 
HETATM   13  C   UNL     1      62.071  10.653   2.957  1.00  0.00     0.034 A 
HETATM   14  C   UNL     1      62.201   9.384   2.400  1.00  0.00     0.024 A 
HETATM   15 CL   UNL     1      61.634  11.986   1.964  1.00  0.00    -0.084 Cl
HETATM   16  C   UNL     1      62.512   8.295   3.219  1.00  0.00     0.010 A 
ENDBRANCH   9  10
ENDBRANCH   1   9
TORSDOF 5
ENDMDL
MODEL 3
REMARK VINA RESULT:      -4.9      3.897      5.788
REMARK  5 active torsions:
REMARK  status: ('A' for Active; 'I' for Inactive)
REMARK    1  A    between atoms: S_1  and  C_5 
REMARK    2  A    between atoms: S_1  and  C_9 
REMARK    3  A    between atoms: N_2  and  C_6 
REMARK    4  A    between atoms: C_5  and  C_6 
REMARK    5  A    between atoms: C_9  and  C_10 
ROOT
HETATM    1  S   UNL     1      62.594   7.948   5.262  1.00  0.00     0.159 S 
HETATM    2  O   UNL     1      61.426   7.214   4.796  1.00  0.00    -0.227 OA
HETATM    3  O   UNL     1      62.768   8.143   6.690  1.00  0.00    -0.227 OA
ENDROOT
BRANCH   1   4
HETATM    4  C   UNL     1      62.534   9.549   4.495  1.00  0.00     0.244 C 
BRANCH   4   5
HETATM    5  C   UNL     1      63.127  10.565   5.457  1.00  0.00    -0.063 C 
BRANCH   5   6
HETATM    6  N   UNL     1      63.619  11.410   6.255  1.00  0.00    -0.369 N 
ATOM      7  HN2 UNL     1      63.201  10.755   5.593  1.00  0.00     0.165 HD
ATOM      8  HN1 UNL     1      64.017  12.092   6.900  1.00  0.00     0.165 HD
ENDBRANCH   5   6
ENDBRANCH   4   5
ENDBRANCH   1   4
BRANCH   1   9
HETATM    9  C   UNL     1      64.062   7.111   4.651  1.00  0.00     0.179 C 
BRANCH   9  10
HETATM   10  C   UNL     1      65.029   6.847   5.774  1.00  0.00    -0.044 A 
HETATM   11  C   UNL     1      64.970   5.647   6.499  1.00  0.00     0.010 A 
HETATM   12  C   UNL     1      65.817   5.436   7.590  1.00  0.00     0.024 A 
HETATM   13  C   UNL     1      66.750   6.407   7.945  1.00  0.00     0.034 A 
HETATM   14  C   UNL     1      66.856   7.581   7.205  1.00  0.00     0.024 A 
HETATM   15 CL   UNL     1      67.765   6.156   9.309  1.00  0.00    -0.084 Cl
HETATM   16  C   UNL     1      65.999   7.801   6.123  1.00  0.00     0.010 A 
ENDBRANCH   9  10
ENDBRANCH   1   9
TORSDOF 5
ENDMDL
MODEL 4
REMARK VINA RESULT:      -4.8      1.496      2.143
REMARK  5 active torsions:
REMARK  status: ('A' for Active; 'I' for Inactive)
REMARK    1  A    between atoms: S_1  and  C_5 
REMARK    2  A    between atoms: S_1  and  C_9 
REMARK    3  A    between atoms: N_2  and  C_6 
REMARK    4  A    between atoms: C_5  and  C_6 
REMARK    5  A    between atoms: C_9  and  C_10 
ROOT
HETATM    1  S   UNL     1      66.516   7.837   6.047  1.00  0.00     0.159 S 
HETATM    2  O   UNL     1      66.941   8.076   4.676  1.00  0.00    -0.227 OA
HETATM    3  O   UNL     1      66.551   8.943   6.988  1.00  0.00    -0.227 OA
ENDROOT
BRANCH   1   4
HETATM    4  C   UNL     1      67.551   6.543   6.688  1.00  0.00     0.244 C 
BRANCH   4   5
HETATM    5  C   UNL     1      66.822   5.870   7.839  1.00  0.00    -0.063 C 
BRANCH   5   6
HETATM    6  N   UNL     1      66.217   5.311   8.795  1.00  0.00    -0.369 N 
ATOM      7  HN2 UNL     1      66.681   5.791   8.024  1.00  0.00     0.165 HD
ATOM      8  HN1 UNL     1      65.728   4.858   9.568  1.00  0.00     0.165 HD
ENDBRANCH   5   6
ENDBRANCH   4   5
ENDBRANCH   1   4
BRANCH   1   9
HETATM    9  C   UNL     1      64.831   7.214   6.012  1.00  0.00     0.179 C 
BRANCH   9  10
HETATM   10  C   UNL     1      64.059   7.834   4.878  1.00  0.00    -0.044 A 
HETATM   11  C   UNL     1      63.520   9.123   5.003  1.00  0.00     0.010 A 
HETATM   12  C   UNL     1      62.738   9.665   3.980  1.00  0.00     0.024 A 
HETATM   13  C   UNL     1      62.516   8.938   2.813  1.00  0.00     0.034 A 
HETATM   14  C   UNL     1      63.087   7.679   2.652  1.00  0.00     0.024 A 
HETATM   15 CL   UNL     1      61.525   9.597   1.572  1.00  0.00    -0.084 Cl
HETATM   16  C   UNL     1      63.855   7.128   3.681  1.00  0.00     0.010 A 
ENDBRANCH   9  10
ENDBRANCH   1   9
TORSDOF 5
ENDMDL
MODEL 5
REMARK VINA RESULT:      -4.6      2.482      3.063
REMARK  5 active torsions:
REMARK  status: ('A' for Active; 'I' for Inactive)
REMARK    1  A    between atoms: S_1  and  C_5 
REMARK    2  A    between atoms: S_1  and  C_9 
REMARK    3  A    between atoms: N_2  and  C_6 
REMARK    4  A    between atoms: C_5  and  C_6 
REMARK    5  A    between atoms: C_9  and  C_10 
ROOT
HETATM    1  S   UNL     1      64.171   8.336   5.412  1.00  0.00     0.159 S 
HETATM    2  O   UNL     1      65.414   9.015   5.751  1.00  0.00    -0.227 OA
HETATM    3  O   UNL     1      63.527   7.519   6.425  1.00  0.00    -0.227 OA
ENDROOT
BRANCH   1   4
HETATM    4  C   UNL     1      64.517   7.299   4.012  1.00  0.00     0.244 C 
BRANCH   4   5
HETATM    5  C   UNL     1      66.002   6.977   4.008  1.00  0.00    -0.063 C 
BRANCH   5   6
HETATM    6  N   UNL     1      67.235   6.710   4.003  1.00  0.00    -0.369 N 
ATOM      7  HN2 UNL     1      66.241   6.937   3.971  1.00  0.00     0.165 HD
ATOM      8  HN1 UNL     1      68.232   6.493   4.000  1.00  0.00     0.165 HD
ENDBRANCH   5   6
ENDBRANCH   4   5
ENDBRANCH   1   4
BRANCH   1   9
HETATM    9  C   UNL     1      62.981   9.575   4.886  1.00  0.00     0.179 C 
BRANCH   9  10
HETATM   10  C   UNL     1      62.190   9.084   3.703  1.00  0.00    -0.044 A 
HETATM   11  C   UNL     1      62.390   9.640   2.430  1.00  0.00     0.010 A 
HETATM   12  C   UNL     1      61.601   9.237   1.350  1.00  0.00     0.024 A 
HETATM   13  C   UNL     1      60.630   8.254   1.525  1.00  0.00     0.034 A 
HETATM   14  C   UNL     1      60.454   7.656   2.770  1.00  0.00     0.024 A 
HETATM   15 CL   UNL     1      59.640   7.788   0.200  1.00  0.00    -0.084 Cl
HETATM   16  C   UNL     1      61.231   8.070   3.856  1.00  0.00     0.010 A 
ENDBRANCH   9  10
ENDBRANCH   1   9
TORSDOF 5
ENDMDL
MODEL 6
REMARK VINA RESULT:      -4.6      4.310      6.021
REMARK  5 active torsions:
REMARK  status: ('A' for Active; 'I' for Inactive)
REMARK    1  A    between atoms: S_1  and  C_5 
REMARK    2  A    between atoms: S_1  and  C_9 
REMARK    3  A    between atoms: N_2  and  C_6 
REMARK    4  A    between atoms: C_5  and  C_6 
REMARK    5  A    between atoms: C_9  and  C_10 
ROOT
HETATM    1  S   UNL     1      62.593   8.331   3.659  1.00  0.00     0.159 S 
HETATM    2  O   UNL     1      61.492   7.480   4.091  1.00  0.00    -0.227 OA
HETATM    3  O   UNL     1      62.932   9.491   4.464  1.00  0.00    -0.227 OA
ENDROOT
BRANCH   1   4
HETATM    4  C   UNL     1      62.193   8.898   2.024  1.00  0.00     0.244 C 
BRANCH   4   5
HETATM    5  C   UNL     1      61.911  10.390   2.088  1.00  0.00    -0.063 C 
BRANCH   5   6
HETATM    6  N   UNL     1      61.676  11.628   2.143  1.00  0.00    -0.369 N 
ATOM      7  HN2 UNL     1      61.899  10.633   2.117  1.00  0.00     0.165 HD
ATOM      8  HN1 UNL     1      61.486  12.630   2.186  1.00  0.00     0.165 HD
ENDBRANCH   5   6
ENDBRANCH   4   5
ENDBRANCH   1   4
BRANCH   1   9
HETATM    9  C   UNL     1      64.069   7.315   3.533  1.00  0.00     0.179 C 
BRANCH   9  10
HETATM   10  C   UNL     1      64.798   7.269   4.849  1.00  0.00    -0.044 A 
HETATM   11  C   UNL     1      66.003   7.966   5.022  1.00  0.00     0.010 A 
HETATM   12  C   UNL     1      66.717   7.860   6.219  1.00  0.00     0.024 A 
HETATM   13  C   UNL     1      66.217   7.084   7.261  1.00  0.00     0.034 A 
HETATM   14  C   UNL     1      64.997   6.427   7.124  1.00  0.00     0.024 A 
HETATM   15 CL   UNL     1      67.116   6.929   8.718  1.00  0.00    -0.084 Cl
HETATM   16  C   UNL     1      64.290   6.518   5.922  1.00  0.00     0.010 A 
ENDBRANCH   9  10
ENDBRANCH   1   9
TORSDOF 5
ENDMDL
MODEL 7
REMARK VINA RESULT:      -4.5      2.254      2.789
REMARK  5 active torsions:
REMARK  status: ('A' for Active; 'I' for Inactive)
REMARK    1  A    between atoms: S_1  and  C_5 
REMARK    2  A    between atoms: S_1  and  C_9 
REMARK    3  A    between atoms: N_2  and  C_6 
REMARK    4  A    between atoms: C_5  and  C_6 
REMARK    5  A    between atoms: C_9  and  C_10 
ROOT
HETATM    1  S   UNL     1      64.400   6.761   6.593  1.00  0.00     0.159 S 
HETATM    2  O   UNL     1      65.163   6.932   7.821  1.00  0.00    -0.227 OA
HETATM    3  O   UNL     1      62.959   6.937   6.640  1.00  0.00    -0.227 OA
ENDROOT
BRANCH   1   4
HETATM    4  C   UNL     1      64.730   5.116   6.008  1.00  0.00     0.244 C 
BRANCH   4   5
HETATM    5  C   UNL     1      65.499   4.368   7.084  1.00  0.00    -0.063 C 
BRANCH   5   6
HETATM    6  N   UNL     1      66.137   3.746   7.977  1.00  0.00    -0.369 N 
ATOM      7  HN2 UNL     1      65.652   4.269   7.247  1.00  0.00     0.165 HD
ATOM      8  HN1 UNL     1      66.652   3.243   8.700  1.00  0.00     0.165 HD
ENDBRANCH   5   6
ENDBRANCH   4   5
ENDBRANCH   1   4
BRANCH   1   9
HETATM    9  C   UNL     1      65.041   7.909   5.369  1.00  0.00     0.179 C 
BRANCH   9  10
HETATM   10  C   UNL     1      64.026   8.153   4.285  1.00  0.00    -0.044 A 
HETATM   11  C   UNL     1      63.216   9.299   4.311  1.00  0.00     0.010 A 
HETATM   12  C   UNL     1      62.222   9.485   3.347  1.00  0.00     0.024 A 
HETATM   13  C   UNL     1      62.050   8.545   2.333  1.00  0.00     0.034 A 
HETATM   14  C   UNL     1      62.879   7.429   2.264  1.00  0.00     0.024 A 
HETATM   15 CL   UNL     1      60.803   8.763   1.171  1.00  0.00    -0.084 Cl
HETATM   16  C   UNL     1      63.863   7.232   3.237  1.00  0.00     0.010 A 
ENDBRANCH   9  10
ENDBRANCH   1   9
TORSDOF 5
ENDMDL
MODEL 8
REMARK VINA RESULT:      -4.4      4.024      6.328
REMARK  5 active torsions:
REMARK  status: ('A' for Active; 'I' for Inactive)
REMARK    1  A    between atoms: S_1  and  C_5 
REMARK    2  A    between atoms: S_1  and  C_9 
REMARK    3  A    between atoms: N_2  and  C_6 
REMARK    4  A    between atoms: C_5  and  C_6 
REMARK    5  A    between atoms: C_9  and  C_10 
ROOT
HETATM    1  S   UNL     1      64.263   8.149   5.031  1.00  0.00     0.159 S 
HETATM    2  O   UNL     1      65.166   9.158   5.566  1.00  0.00    -0.227 OA
HETATM    3  O   UNL     1      64.751   7.260   3.991  1.00  0.00    -0.227 OA
ENDROOT
BRANCH   1   4
HETATM    4  C   UNL     1      62.848   9.012   4.391  1.00  0.00     0.244 C 
BRANCH   4   5
HETATM    5  C   UNL     1      62.829  10.411   4.985  1.00  0.00    -0.063 C 
BRANCH   5   6
HETATM    6  N   UNL     1      62.815  11.572   5.478  1.00  0.00    -0.369 N 
ATOM      7  HN2 UNL     1      62.789  10.636   5.073  1.00  0.00     0.165 HD
ATOM      8  HN1 UNL     1      62.803  12.512   5.876  1.00  0.00     0.165 HD
ENDBRANCH   5   6
ENDBRANCH   4   5
ENDBRANCH   1   4
BRANCH   1   9
HETATM    9  C   UNL     1      63.699   7.123   6.394  1.00  0.00     0.179 C 
BRANCH   9  10
HETATM   10  C   UNL     1      64.827   6.282   6.929  1.00  0.00    -0.044 A 
HETATM   11  C   UNL     1      64.881   4.906   6.658  1.00  0.00     0.010 A 
HETATM   12  C   UNL     1      65.886   4.114   7.219  1.00  0.00     0.024 A 
HETATM   13  C   UNL     1      66.861   4.694   8.027  1.00  0.00     0.034 A 
HETATM   14  C   UNL     1      66.851   6.066   8.263  1.00  0.00     0.024 A 
HETATM   15 CL   UNL     1      68.074   3.708   8.742  1.00  0.00    -0.084 Cl
HETATM   16  C   UNL     1      65.837   6.858   7.717  1.00  0.00     0.010 A 
ENDBRANCH   9  10
ENDBRANCH   1   9
TORSDOF 5
ENDMDL
MODEL 9
REMARK VINA RESULT:      -4.3      2.790      3.152
REMARK  5 active torsions:
REMARK  status: ('A' for Active; 'I' for Inactive)
REMARK    1  A    between atoms: S_1  and  C_5 
REMARK    2  A    between atoms: S_1  and  C_9 
REMARK    3  A    between atoms: N_2  and  C_6 
REMARK    4  A    between atoms: C_5  and  C_6 
REMARK    5  A    between atoms: C_9  and  C_10 
ROOT
HETATM    1  S   UNL     1      64.403   6.906   6.626  1.00  0.00     0.159 S 
HETATM    2  O   UNL     1      65.392   6.924   7.695  1.00  0.00    -0.227 OA
HETATM    3  O   UNL     1      63.072   7.419   6.901  1.00  0.00    -0.227 OA
ENDROOT
BRANCH   1   4
HETATM    4  C   UNL     1      64.239   5.215   6.106  1.00  0.00     0.244 C 
BRANCH   4   5
HETATM    5  C   UNL     1      62.761   4.865   6.066  1.00  0.00    -0.063 C 
BRANCH   5   6
HETATM    6  N   UNL     1      61.534   4.575   6.034  1.00  0.00    -0.369 N 
ATOM      7  HN2 UNL     1      62.518   4.838   6.085  1.00  0.00     0.165 HD
ATOM      8  HN1 UNL     1      60.541   4.340   6.007  1.00  0.00     0.165 HD
ENDBRANCH   5   6
ENDBRANCH   4   5
ENDBRANCH   1   4
BRANCH   1   9
HETATM    9  C   UNL     1      65.061   7.836   5.237  1.00  0.00     0.179 C 
BRANCH   9  10
HETATM   10  C   UNL     1      64.012   8.016   4.172  1.00  0.00    -0.044 A 
HETATM   11  C   UNL     1      63.843   7.052   3.167  1.00  0.00     0.010 A 
HETATM   12  C   UNL     1      62.923   7.258   2.137  1.00  0.00     0.024 A 
HETATM   13  C   UNL     1      62.142   8.412   2.120  1.00  0.00     0.034 A 
HETATM   14  C   UNL     1      62.261   9.354   3.138  1.00  0.00     0.024 A 
HETATM   15 CL   UNL     1      61.036   8.675   0.831  1.00  0.00    -0.084 Cl
HETATM   16  C   UNL     1      63.193   9.158   4.161  1.00  0.00     0.010 A 
ENDBRANCH   9  10
ENDBRANCH   1   9
TORSDOF 5
ENDMDL
