MODEL 1
REMARK VINA RESULT:      -5.3      0.000      0.000
REMARK  2 active torsions:
REMARK  status: ('A' for Active; 'I' for Inactive)
REMARK    1  A    between atoms: C_4  and  N_8 
REMARK    2  A    between atoms: C_6  and  C_7 
ROOT
HETATM    1  N   UNL     1      64.567   7.459   6.587  1.00  0.00    -0.296 N 
ATOM      2  HN  UNL     1      63.666   7.349   7.053  1.00  0.00     0.187 HD
HETATM    3  C   UNL     1      66.222   8.090   5.159  1.00  0.00     0.081 A 
HETATM    4  C   UNL     1      66.790   7.317   6.136  1.00  0.00     0.117 A 
HETATM    5  N   UNL     1      65.758   6.944   6.956  1.00  0.00    -0.281 N 
HETATM    6  C   UNL     1      64.837   8.149   5.467  1.00  0.00     0.062 A 
HETATM    7  C   UNL     1      65.827   6.081   8.109  1.00  0.00     0.179 C 
ENDROOT
BRANCH   6   8
HETATM    8  C   UNL     1      63.793   8.833   4.707  1.00  0.00    -0.008 A 
HETATM    9  C   UNL     1      63.255  10.043   5.169  1.00  0.00     0.014 A 
HETATM   10  C   UNL     1      62.302  10.728   4.416  1.00  0.00     0.001 A 
HETATM   11  C   UNL     1      61.866  10.202   3.201  1.00  0.00     0.000 A 
HETATM   12  C   UNL     1      62.370   8.984   2.746  1.00  0.00     0.001 A 
HETATM   13  C   UNL     1      63.330   8.301   3.496  1.00  0.00     0.014 A 
ENDBRANCH   6   8
BRANCH   4  14
HETATM   14  N   UNL     1      68.075   6.951   6.314  1.00  0.00    -0.384 N 
HETATM   15  H   UNL     1      68.796   7.611   6.199  1.00  0.00     0.157 HD
HETATM   16  H   UNL     1      68.292   6.022   6.561  1.00  0.00     0.157 HD
ENDBRANCH   4  14
TORSDOF 2
ENDMDL
MODEL 2
REMARK VINA RESULT:      -5.1      1.230      2.152
REMARK  2 active torsions:
REMARK  status: ('A' for Active; 'I' for Inactive)
REMARK    1  A    between atoms: C_4  and  N_8 
REMARK    2  A    between atoms: C_6  and  C_7 
ROOT
HETATM    1  N   UNL     1      65.214   8.327   5.978  1.00  0.00    -0.296 N 
ATOM      2  HN  UNL     1      65.733   9.204   5.960  1.00  0.00     0.187 HD
HETATM    3  C   UNL     1      63.665   6.700   5.614  1.00  0.00     0.081 A 
HETATM    4  C   UNL     1      64.652   6.164   6.398  1.00  0.00     0.117 A 
HETATM    5  N   UNL     1      65.546   7.181   6.609  1.00  0.00    -0.281 N 
HETATM    6  C   UNL     1      64.044   8.049   5.380  1.00  0.00     0.062 A 
HETATM    7  C   UNL     1      66.740   7.141   7.416  1.00  0.00     0.179 C 
ENDROOT
BRANCH   6   8
HETATM    8  C   UNL     1      63.304   9.052   4.619  1.00  0.00    -0.008 A 
HETATM    9  C   UNL     1      62.861   8.772   3.318  1.00  0.00     0.014 A 
HETATM   10  C   UNL     1      62.103   9.706   2.610  1.00  0.00     0.001 A 
HETATM   11  C   UNL     1      61.796  10.935   3.192  1.00  0.00     0.000 A 
HETATM   12  C   UNL     1      62.258  11.237   4.472  1.00  0.00     0.001 A 
HETATM   13  C   UNL     1      63.010  10.300   5.183  1.00  0.00     0.014 A 
ENDBRANCH   6   8
BRANCH   4  14
HETATM   14  N   UNL     1      64.781   4.921   6.902  1.00  0.00    -0.384 N 
HETATM   15  H   UNL     1      65.378   4.759   7.667  1.00  0.00     0.157 HD
HETATM   16  H   UNL     1      64.276   4.175   6.504  1.00  0.00     0.157 HD
ENDBRANCH   4  14
TORSDOF 2
ENDMDL
MODEL 3
REMARK VINA RESULT:      -5.0      1.898      2.860
REMARK  2 active torsions:
REMARK  status: ('A' for Active; 'I' for Inactive)
REMARK    1  A    between atoms: C_4  and  N_8 
REMARK    2  A    between atoms: C_6  and  C_7 
ROOT
HETATM    1  N   UNL     1      61.929   7.307   5.088  1.00  0.00    -0.296 N 
ATOM      2  HN  UNL     1      60.949   7.243   4.816  1.00  0.00     0.187 HD
HETATM    3  C   UNL     1      64.083   7.997   5.341  1.00  0.00     0.081 A 
HETATM    4  C   UNL     1      63.917   6.871   6.102  1.00  0.00     0.117 A 
HETATM    5  N   UNL     1      62.619   6.481   5.902  1.00  0.00    -0.281 N 
HETATM    6  C   UNL     1      62.828   8.234   4.718  1.00  0.00     0.062 A 
HETATM    7  C   UNL     1      61.963   5.316   6.444  1.00  0.00     0.179 C 
ENDROOT
BRANCH   6   8
HETATM    8  C   UNL     1      62.497   9.306   3.782  1.00  0.00    -0.008 A 
HETATM    9  C   UNL     1      62.407   9.045   2.407  1.00  0.00     0.014 A 
HETATM   10  C   UNL     1      62.033  10.053   1.517  1.00  0.00     0.001 A 
HETATM   11  C   UNL     1      61.761  11.334   1.994  1.00  0.00     0.000 A 
HETATM   12  C   UNL     1      61.878  11.613   3.355  1.00  0.00     0.001 A 
HETATM   13  C   UNL     1      62.245  10.603   4.246  1.00  0.00     0.014 A 
ENDBRANCH   6   8
BRANCH   4  14
HETATM   14  N   UNL     1      64.794   6.222   6.893  1.00  0.00    -0.384 N 
HETATM   15  H   UNL     1      65.007   5.277   6.719  1.00  0.00     0.157 HD
HETATM   16  H   UNL     1      65.222   6.694   7.644  1.00  0.00     0.157 HD
ENDBRANCH   4  14
TORSDOF 2
ENDMDL
MODEL 4
REMARK VINA RESULT:      -4.7      2.292      5.220
REMARK  2 active torsions:
REMARK  status: ('A' for Active; 'I' for Inactive)
REMARK    1  A    between atoms: C_4  and  N_8 
REMARK    2  A    between atoms: C_6  and  C_7 
ROOT
HETATM    1  N   UNL     1      64.170   9.514   5.480  1.00  0.00    -0.296 N 
ATOM      2  HN  UNL     1      64.788   9.775   6.247  1.00  0.00     0.187 HD
HETATM    3  C   UNL     1      63.187   8.412   3.749  1.00  0.00     0.081 A 
HETATM    4  C   UNL     1      62.433   9.524   4.014  1.00  0.00     0.117 A 
HETATM    5  N   UNL     1      63.073  10.164   5.042  1.00  0.00    -0.281 N 
HETATM    6  C   UNL     1      64.264   8.443   4.674  1.00  0.00     0.062 A 
HETATM    7  C   UNL     1      62.703  11.416   5.656  1.00  0.00     0.179 C 
ENDROOT
BRANCH   6   8
HETATM    8  C   UNL     1      65.362   7.486   4.781  1.00  0.00    -0.008 A 
HETATM    9  C   UNL     1      65.541   6.499   3.800  1.00  0.00     0.014 A 
HETATM   10  C   UNL     1      66.624   5.621   3.867  1.00  0.00     0.001 A 
HETATM   11  C   UNL     1      67.528   5.712   4.924  1.00  0.00     0.000 A 
HETATM   12  C   UNL     1      67.342   6.669   5.922  1.00  0.00     0.001 A 
HETATM   13  C   UNL     1      66.263   7.552   5.851  1.00  0.00     0.014 A 
ENDBRANCH   6   8
BRANCH   4  14
HETATM   14  N   UNL     1      61.303   9.965   3.427  1.00  0.00    -0.384 N 
HETATM   15  H   UNL     1      60.625   9.322   3.118  1.00  0.00     0.157 HD
HETATM   16  H   UNL     1      61.155  10.932   3.308  1.00  0.00     0.157 HD
ENDBRANCH   4  14
TORSDOF 2
ENDMDL
MODEL 5
REMARK VINA RESULT:      -4.7      1.932      2.568
REMARK  2 active torsions:
REMARK  status: ('A' for Active; 'I' for Inactive)
REMARK    1  A    between atoms: C_4  and  N_8 
REMARK    2  A    between atoms: C_6  and  C_7 
ROOT
HETATM    1  N   UNL     1      63.014   6.607   3.831  1.00  0.00    -0.296 N 
ATOM      2  HN  UNL     1      62.562   6.305   2.968  1.00  0.00     0.187 HD
HETATM    3  C   UNL     1      63.796   7.863   5.560  1.00  0.00     0.081 A 
HETATM    4  C   UNL     1      64.103   6.555   5.825  1.00  0.00     0.117 A 
HETATM    5  N   UNL     1      63.636   5.843   4.752  1.00  0.00    -0.281 N 
HETATM    6  C   UNL     1      63.127   7.858   4.307  1.00  0.00     0.062 A 
HETATM    7  C   UNL     1      63.757   4.424   4.525  1.00  0.00     0.179 C 
ENDROOT
BRANCH   6   8
HETATM    8  C   UNL     1      62.620   9.016   3.575  1.00  0.00    -0.008 A 
HETATM    9  C   UNL     1      62.356  10.220   4.245  1.00  0.00     0.014 A 
HETATM   10  C   UNL     1      61.929  11.345   3.538  1.00  0.00     0.001 A 
HETATM   11  C   UNL     1      61.746  11.271   2.158  1.00  0.00     0.000 A 
HETATM   12  C   UNL     1      61.975  10.071   1.486  1.00  0.00     0.001 A 
HETATM   13  C   UNL     1      62.410   8.947   2.191  1.00  0.00     0.014 A 
ENDBRANCH   6   8
BRANCH   4  14
HETATM   14  N   UNL     1      64.736   6.010   6.883  1.00  0.00    -0.384 N 
HETATM   15  H   UNL     1      65.527   6.453   7.266  1.00  0.00     0.157 HD
HETATM   16  H   UNL     1      64.405   5.168   7.274  1.00  0.00     0.157 HD
ENDBRANCH   4  14
TORSDOF 2
ENDMDL
MODEL 6
REMARK VINA RESULT:      -4.6      1.207      1.996
REMARK  2 active torsions:
REMARK  status: ('A' for Active; 'I' for Inactive)
REMARK    1  A    between atoms: C_4  and  N_8 
REMARK    2  A    between atoms: C_6  and  C_7 
ROOT
HETATM    1  N   UNL     1      65.359   7.292   7.087  1.00  0.00    -0.296 N 
ATOM      2  HN  UNL     1      64.738   7.927   7.588  1.00  0.00     0.187 HD
HETATM    3  C   UNL     1      66.434   6.126   5.454  1.00  0.00     0.081 A 
HETATM    4  C   UNL     1      67.018   5.801   6.649  1.00  0.00     0.117 A 
HETATM    5  N   UNL     1      66.327   6.505   7.600  1.00  0.00    -0.281 N 
HETATM    6  C   UNL     1      65.400   7.050   5.767  1.00  0.00     0.062 A 
HETATM    7  C   UNL     1      66.524   6.469   9.029  1.00  0.00     0.179 C 
ENDROOT
BRANCH   6   8
HETATM    8  C   UNL     1      64.466   7.675   4.834  1.00  0.00    -0.008 A 
HETATM    9  C   UNL     1      64.155   7.052   3.616  1.00  0.00     0.014 A 
HETATM   10  C   UNL     1      63.218   7.617   2.750  1.00  0.00     0.001 A 
HETATM   11  C   UNL     1      62.596   8.818   3.087  1.00  0.00     0.000 A 
HETATM   12  C   UNL     1      62.920   9.463   4.280  1.00  0.00     0.001 A 
HETATM   13  C   UNL     1      63.852   8.894   5.150  1.00  0.00     0.014 A 
ENDBRANCH   6   8
BRANCH   4  14
HETATM   14  N   UNL     1      68.044   4.968   6.914  1.00  0.00    -0.384 N 
HETATM   15  H   UNL     1      68.681   4.730   6.202  1.00  0.00     0.157 HD
HETATM   16  H   UNL     1      68.157   4.599   7.820  1.00  0.00     0.157 HD
ENDBRANCH   4  14
TORSDOF 2
ENDMDL
MODEL 7
REMARK VINA RESULT:      -4.3      1.865      2.083
REMARK  2 active torsions:
REMARK  status: ('A' for Active; 'I' for Inactive)
REMARK    1  A    between atoms: C_4  and  N_8 
REMARK    2  A    between atoms: C_6  and  C_7 
ROOT
HETATM    1  N   UNL     1      64.852   6.522   3.499  1.00  0.00    -0.296 N 
ATOM      2  HN  UNL     1      64.225   6.290   2.729  1.00  0.00     0.187 HD
HETATM    3  C   UNL     1      65.823   7.524   5.297  1.00  0.00     0.081 A 
HETATM    4  C   UNL     1      66.543   6.394   5.013  1.00  0.00     0.117 A 
HETATM    5  N   UNL     1      65.938   5.839   3.916  1.00  0.00    -0.281 N 
HETATM    6  C   UNL     1      64.784   7.576   4.329  1.00  0.00     0.062 A 
HETATM    7  C   UNL     1      66.349   4.659   3.195  1.00  0.00     0.179 C 
ENDROOT
BRANCH   6   8
HETATM    8  C   UNL     1      63.761   8.609   4.189  1.00  0.00    -0.008 A 
HETATM    9  C   UNL     1      63.637   9.620   5.153  1.00  0.00     0.014 A 
HETATM   10  C   UNL     1      62.700  10.642   4.992  1.00  0.00     0.001 A 
HETATM   11  C   UNL     1      61.869  10.653   3.873  1.00  0.00     0.000 A 
HETATM   12  C   UNL     1      61.962   9.636   2.924  1.00  0.00     0.001 A 
HETATM   13  C   UNL     1      62.904   8.617   3.081  1.00  0.00     0.014 A 
ENDBRANCH   6   8
BRANCH   4  14
HETATM   14  N   UNL     1      67.628   5.881   5.625  1.00  0.00    -0.384 N 
HETATM   15  H   UNL     1      67.584   5.631   6.576  1.00  0.00     0.157 HD
HETATM   16  H   UNL     1      68.464   5.755   5.121  1.00  0.00     0.157 HD
ENDBRANCH   4  14
TORSDOF 2
ENDMDL
MODEL 8
REMARK VINA RESULT:      -4.2      2.252      5.296
REMARK  2 active torsions:
REMARK  status: ('A' for Active; 'I' for Inactive)
REMARK    1  A    between atoms: C_4  and  N_8 
REMARK    2  A    between atoms: C_6  and  C_7 
ROOT
HETATM    1  N   UNL     1      63.203   7.391   3.766  1.00  0.00    -0.296 N 
ATOM      2  HN  UNL     1      63.382   6.420   3.511  1.00  0.00     0.187 HD
HETATM    3  C   UNL     1      63.336   9.462   4.700  1.00  0.00     0.081 A 
HETATM    4  C   UNL     1      62.300   9.477   3.805  1.00  0.00     0.117 A 
HETATM    5  N   UNL     1      62.244   8.210   3.287  1.00  0.00    -0.281 N 
HETATM    6  C   UNL     1      63.869   8.146   4.656  1.00  0.00     0.062 A 
HETATM    7  C   UNL     1      61.289   7.697   2.336  1.00  0.00     0.179 C 
ENDROOT
BRANCH   6   8
HETATM    8  C   UNL     1      64.975   7.615   5.449  1.00  0.00    -0.008 A 
HETATM    9  C   UNL     1      66.303   7.841   5.057  1.00  0.00     0.014 A 
HETATM   10  C   UNL     1      67.361   7.386   5.845  1.00  0.00     0.001 A 
HETATM   11  C   UNL     1      67.101   6.689   7.023  1.00  0.00     0.000 A 
HETATM   12  C   UNL     1      65.785   6.431   7.407  1.00  0.00     0.001 A 
HETATM   13  C   UNL     1      64.726   6.892   6.623  1.00  0.00     0.014 A 
ENDBRANCH   6   8
BRANCH   4  14
HETATM   14  N   UNL     1      61.465  10.477   3.463  1.00  0.00    -0.384 N 
HETATM   15  H   UNL     1      60.504  10.408   3.666  1.00  0.00     0.157 HD
HETATM   16  H   UNL     1      61.816  11.278   3.009  1.00  0.00     0.157 HD
ENDBRANCH   4  14
TORSDOF 2
ENDMDL
MODEL 9
REMARK VINA RESULT:      -4.1      3.144      3.924
REMARK  2 active torsions:
REMARK  status: ('A' for Active; 'I' for Inactive)
REMARK    1  A    between atoms: C_4  and  N_8 
REMARK    2  A    between atoms: C_6  and  C_7 
ROOT
HETATM    1  N   UNL     1      60.517   6.823   4.297  1.00  0.00    -0.296 N 
ATOM      2  HN  UNL     1      59.603   7.021   3.890  1.00  0.00     0.187 HD
HETATM    3  C   UNL     1      62.692   6.966   4.949  1.00  0.00     0.081 A 
HETATM    4  C   UNL     1      62.176   5.811   5.475  1.00  0.00     0.117 A 
HETATM    5  N   UNL     1      60.878   5.757   5.039  1.00  0.00    -0.281 N 
HETATM    6  C   UNL     1      61.633   7.565   4.215  1.00  0.00     0.062 A 
HETATM    7  C   UNL     1      59.920   4.706   5.279  1.00  0.00     0.179 C 
ENDROOT
BRANCH   6   8
HETATM    8  C   UNL     1      61.687   8.804   3.444  1.00  0.00    -0.008 A 
HETATM    9  C   UNL     1      61.857  10.037   4.092  1.00  0.00     0.014 A 
HETATM   10  C   UNL     1      61.968  11.216   3.354  1.00  0.00     0.001 A 
HETATM   11  C   UNL     1      61.895  11.175   1.962  1.00  0.00     0.000 A 
HETATM   12  C   UNL     1      61.695   9.959   1.309  1.00  0.00     0.001 A 
HETATM   13  C   UNL     1      61.591   8.778   2.047  1.00  0.00     0.014 A 
ENDBRANCH   6   8
BRANCH   4  14
HETATM   14  N   UNL     1      62.759   4.877   6.251  1.00  0.00    -0.384 N 
HETATM   15  H   UNL     1      62.491   3.933   6.171  1.00  0.00     0.157 HD
HETATM   16  H   UNL     1      63.453   5.138   6.899  1.00  0.00     0.157 HD
ENDBRANCH   4  14
TORSDOF 2
ENDMDL
