MODEL 1
REMARK VINA RESULT:      -5.3      0.000      0.000
REMARK  3 active torsions:
REMARK  status: ('A' for Active; 'I' for Inactive)
REMARK    1  A    between atoms: S_1  and  C_2 
REMARK    2  A    between atoms: S_1  and  C_8 
REMARK    3  A    between atoms: C_3  and  N_10 
ROOT
HETATM    1  S   UNL     1      63.169   7.718   5.241  1.00  0.00     0.209 S 
HETATM    2  O   UNL     1      63.008   8.142   6.622  1.00  0.00    -0.217 OA
HETATM    3  O   UNL     1      62.566   6.496   4.741  1.00  0.00    -0.217 OA
ENDROOT
BRANCH   1   4
HETATM    4  C   UNL     1      64.872   7.485   5.023  1.00  0.00     0.097 A 
HETATM    5  C   UNL     1      65.478   6.696   4.000  1.00  0.00     0.054 A 
HETATM    6  C   UNL     1      66.850   6.674   4.105  1.00  0.00     0.080 A 
HETATM    7  S   UNL     1      67.414   7.644   5.398  1.00  0.00    -0.110 SA
HETATM    8  C   UNL     1      65.818   8.075   5.838  1.00  0.00     0.075 A 
BRANCH   5   9
HETATM    9  N   UNL     1      64.824   6.037   3.016  1.00  0.00    -0.397 N 
HETATM   10  H   UNL     1      64.302   6.540   2.350  1.00  0.00     0.156 HD
HETATM   11  H   UNL     1      64.869   5.055   2.966  1.00  0.00     0.156 HD
ENDBRANCH   5   9
ENDBRANCH   1   4
BRANCH   1  12
HETATM   12  C   UNL     1      62.693   9.063   4.188  1.00  0.00     0.064 A 
HETATM   13  C   UNL     1      62.442   8.829   2.832  1.00  0.00     0.024 A 
HETATM   14  C   UNL     1      61.992   9.874   2.024  1.00  0.00     0.002 A 
HETATM   15  C   UNL     1      61.792  11.144   2.567  1.00  0.00     0.000 A 
HETATM   16  C   UNL     1      62.043  11.374   3.920  1.00  0.00     0.002 A 
HETATM   17  C   UNL     1      62.490  10.334   4.737  1.00  0.00     0.024 A 
ENDBRANCH   1  12
TORSDOF 3
ENDMDL
MODEL 2
REMARK VINA RESULT:      -5.3      1.440      1.663
REMARK  3 active torsions:
REMARK  status: ('A' for Active; 'I' for Inactive)
REMARK    1  A    between atoms: S_1  and  C_2 
REMARK    2  A    between atoms: S_1  and  C_8 
REMARK    3  A    between atoms: C_3  and  N_10 
ROOT
HETATM    1  S   UNL     1      63.253   7.352   5.449  1.00  0.00     0.209 S 
HETATM    2  O   UNL     1      63.325   7.661   6.867  1.00  0.00    -0.217 OA
HETATM    3  O   UNL     1      62.452   6.251   4.947  1.00  0.00    -0.217 OA
ENDROOT
BRANCH   1   4
HETATM    4  C   UNL     1      64.874   6.963   4.977  1.00  0.00     0.097 A 
HETATM    5  C   UNL     1      66.059   7.557   5.508  1.00  0.00     0.054 A 
HETATM    6  C   UNL     1      67.197   7.067   4.910  1.00  0.00     0.080 A 
HETATM    7  S   UNL     1      66.849   5.857   3.750  1.00  0.00    -0.110 SA
HETATM    8  C   UNL     1      65.167   6.004   4.027  1.00  0.00     0.075 A 
BRANCH   5   9
HETATM    9  N   UNL     1      66.107   8.487   6.488  1.00  0.00    -0.397 N 
HETATM   10  H   UNL     1      65.830   8.251   7.403  1.00  0.00     0.156 HD
HETATM   11  H   UNL     1      66.419   9.399   6.288  1.00  0.00     0.156 HD
ENDBRANCH   5   9
ENDBRANCH   1   4
BRANCH   1  12
HETATM   12  C   UNL     1      62.802   8.830   4.581  1.00  0.00     0.064 A 
HETATM   13  C   UNL     1      62.358   8.750   3.256  1.00  0.00     0.024 A 
HETATM   14  C   UNL     1      61.930   9.907   2.602  1.00  0.00     0.002 A 
HETATM   15  C   UNL     1      61.945  11.134   3.267  1.00  0.00     0.000 A 
HETATM   16  C   UNL     1      62.388  11.210   4.587  1.00  0.00     0.002 A 
HETATM   17  C   UNL     1      62.814  10.059   5.251  1.00  0.00     0.024 A 
ENDBRANCH   1  12
TORSDOF 3
ENDMDL
MODEL 3
REMARK VINA RESULT:      -5.1      1.898      2.165
REMARK  3 active torsions:
REMARK  status: ('A' for Active; 'I' for Inactive)
REMARK    1  A    between atoms: S_1  and  C_2 
REMARK    2  A    between atoms: S_1  and  C_8 
REMARK    3  A    between atoms: C_3  and  N_10 
ROOT
HETATM    1  S   UNL     1      64.815   7.901   5.891  1.00  0.00     0.209 S 
HETATM    2  O   UNL     1      65.947   8.758   6.203  1.00  0.00    -0.217 OA
HETATM    3  O   UNL     1      64.011   7.289   6.933  1.00  0.00    -0.217 OA
ENDROOT
BRANCH   1   4
HETATM    4  C   UNL     1      65.475   6.565   5.008  1.00  0.00     0.097 A 
HETATM    5  C   UNL     1      66.718   6.566   4.306  1.00  0.00     0.054 A 
HETATM    6  C   UNL     1      66.956   5.368   3.672  1.00  0.00     0.080 A 
HETATM    7  S   UNL     1      65.716   4.224   3.962  1.00  0.00    -0.110 SA
HETATM    8  C   UNL     1      64.841   5.340   4.919  1.00  0.00     0.075 A 
BRANCH   5   9
HETATM    9  N   UNL     1      67.595   7.594   4.250  1.00  0.00    -0.397 N 
HETATM   10  H   UNL     1      67.295   8.508   4.460  1.00  0.00     0.156 HD
HETATM   11  H   UNL     1      68.532   7.429   3.999  1.00  0.00     0.156 HD
ENDBRANCH   5   9
ENDBRANCH   1   4
BRANCH   1  12
HETATM   12  C   UNL     1      63.745   8.776   4.782  1.00  0.00     0.064 A 
HETATM   13  C   UNL     1      63.406   8.206   3.549  1.00  0.00     0.024 A 
HETATM   14  C   UNL     1      62.502   8.862   2.713  1.00  0.00     0.002 A 
HETATM   15  C   UNL     1      61.939  10.078   3.105  1.00  0.00     0.000 A 
HETATM   16  C   UNL     1      62.279  10.643   4.334  1.00  0.00     0.002 A 
HETATM   17  C   UNL     1      63.179   9.992   5.179  1.00  0.00     0.024 A 
ENDBRANCH   1  12
TORSDOF 3
ENDMDL
MODEL 4
REMARK VINA RESULT:      -5.1      2.039      5.101
REMARK  3 active torsions:
REMARK  status: ('A' for Active; 'I' for Inactive)
REMARK    1  A    between atoms: S_1  and  C_2 
REMARK    2  A    between atoms: S_1  and  C_8 
REMARK    3  A    between atoms: C_3  and  N_10 
ROOT
HETATM    1  S   UNL     1      63.176   7.270   5.799  1.00  0.00     0.209 S 
HETATM    2  O   UNL     1      62.710   5.985   5.305  1.00  0.00    -0.217 OA
HETATM    3  O   UNL     1      62.708   7.820   7.058  1.00  0.00    -0.217 OA
ENDROOT
BRANCH   1   4
HETATM    4  C   UNL     1      62.688   8.430   4.608  1.00  0.00     0.097 A 
HETATM    5  C   UNL     1      62.699   9.847   4.775  1.00  0.00     0.054 A 
HETATM    6  C   UNL     1      62.222  10.504   3.664  1.00  0.00     0.080 A 
HETATM    7  S   UNL     1      61.810   9.424   2.401  1.00  0.00    -0.110 SA
HETATM    8  C   UNL     1      62.246   8.069   3.349  1.00  0.00     0.075 A 
BRANCH   5   9
HETATM    9  N   UNL     1      63.128  10.512   5.872  1.00  0.00    -0.397 N 
HETATM   10  H   UNL     1      63.678  10.047   6.544  1.00  0.00     0.156 HD
HETATM   11  H   UNL     1      62.891  11.459   5.998  1.00  0.00     0.156 HD
ENDBRANCH   5   9
ENDBRANCH   1   4
BRANCH   1  12
HETATM   12  C   UNL     1      64.949   7.253   5.807  1.00  0.00     0.064 A 
HETATM   13  C   UNL     1      65.635   6.906   6.975  1.00  0.00     0.024 A 
HETATM   14  C   UNL     1      67.028   6.817   6.956  1.00  0.00     0.002 A 
HETATM   15  C   UNL     1      67.730   7.073   5.777  1.00  0.00     0.000 A 
HETATM   16  C   UNL     1      67.043   7.419   4.614  1.00  0.00     0.002 A 
HETATM   17  C   UNL     1      65.649   7.506   4.623  1.00  0.00     0.024 A 
ENDBRANCH   1  12
TORSDOF 3
ENDMDL
MODEL 5
REMARK VINA RESULT:      -4.9      1.727      1.978
REMARK  3 active torsions:
REMARK  status: ('A' for Active; 'I' for Inactive)
REMARK    1  A    between atoms: S_1  and  C_2 
REMARK    2  A    between atoms: S_1  and  C_8 
REMARK    3  A    between atoms: C_3  and  N_10 
ROOT
HETATM    1  S   UNL     1      64.698   7.986   5.829  1.00  0.00     0.209 S 
HETATM    2  O   UNL     1      65.866   8.793   6.142  1.00  0.00    -0.217 OA
HETATM    3  O   UNL     1      63.886   7.382   6.869  1.00  0.00    -0.217 OA
ENDROOT
BRANCH   1   4
HETATM    4  C   UNL     1      65.296   6.646   4.908  1.00  0.00     0.097 A 
HETATM    5  C   UNL     1      64.649   5.381   4.767  1.00  0.00     0.054 A 
HETATM    6  C   UNL     1      65.384   4.505   4.001  1.00  0.00     0.080 A 
HETATM    7  S   UNL     1      66.823   5.217   3.406  1.00  0.00    -0.110 SA
HETATM    8  C   UNL     1      66.478   6.695   4.196  1.00  0.00     0.075 A 
BRANCH   5   9
HETATM    9  N   UNL     1      63.452   5.040   5.297  1.00  0.00    -0.397 N 
HETATM   10  H   UNL     1      62.621   5.370   4.886  1.00  0.00     0.156 HD
HETATM   11  H   UNL     1      63.412   4.463   6.094  1.00  0.00     0.156 HD
ENDBRANCH   5   9
ENDBRANCH   1   4
BRANCH   1  12
HETATM   12  C   UNL     1      63.646   8.924   4.754  1.00  0.00     0.064 A 
HETATM   13  C   UNL     1      63.261   8.391   3.519  1.00  0.00     0.024 A 
HETATM   14  C   UNL     1      62.371   9.099   2.711  1.00  0.00     0.002 A 
HETATM   15  C   UNL     1      61.868  10.330   3.133  1.00  0.00     0.000 A 
HETATM   16  C   UNL     1      62.254  10.860   4.365  1.00  0.00     0.002 A 
HETATM   17  C   UNL     1      63.141  10.157   5.182  1.00  0.00     0.024 A 
ENDBRANCH   1  12
TORSDOF 3
ENDMDL
MODEL 6
REMARK VINA RESULT:      -4.7      2.166      5.094
REMARK  3 active torsions:
REMARK  status: ('A' for Active; 'I' for Inactive)
REMARK    1  A    between atoms: S_1  and  C_2 
REMARK    2  A    between atoms: S_1  and  C_8 
REMARK    3  A    between atoms: C_3  and  N_10 
ROOT
HETATM    1  S   UNL     1      63.880   8.576   5.494  1.00  0.00     0.209 S 
HETATM    2  O   UNL     1      62.859   8.054   6.387  1.00  0.00    -0.217 OA
HETATM    3  O   UNL     1      64.423   9.912   5.654  1.00  0.00    -0.217 OA
ENDROOT
BRANCH   1   4
HETATM    4  C   UNL     1      63.157   8.585   3.919  1.00  0.00     0.097 A 
HETATM    5  C   UNL     1      62.362   9.638   3.376  1.00  0.00     0.054 A 
HETATM    6  C   UNL     1      61.899   9.341   2.115  1.00  0.00     0.080 A 
HETATM    7  S   UNL     1      62.461   7.822   1.560  1.00  0.00    -0.110 SA
HETATM    8  C   UNL     1      63.307   7.546   3.021  1.00  0.00     0.075 A 
BRANCH   5   9
HETATM    9  N   UNL     1      62.078  10.811   3.987  1.00  0.00    -0.397 N 
HETATM   10  H   UNL     1      61.223  11.265   3.806  1.00  0.00     0.156 HD
HETATM   11  H   UNL     1      62.726  11.212   4.610  1.00  0.00     0.156 HD
ENDBRANCH   5   9
ENDBRANCH   1   4
BRANCH   1  12
HETATM   12  C   UNL     1      65.219   7.416   5.441  1.00  0.00     0.064 A 
HETATM   13  C   UNL     1      65.004   6.088   5.827  1.00  0.00     0.024 A 
HETATM   14  C   UNL     1      66.040   5.161   5.711  1.00  0.00     0.002 A 
HETATM   15  C   UNL     1      67.282   5.556   5.211  1.00  0.00     0.000 A 
HETATM   16  C   UNL     1      67.493   6.880   4.828  1.00  0.00     0.002 A 
HETATM   17  C   UNL     1      66.461   7.814   4.937  1.00  0.00     0.024 A 
ENDBRANCH   1  12
TORSDOF 3
ENDMDL
MODEL 7
REMARK VINA RESULT:      -4.4      1.619      4.682
REMARK  3 active torsions:
REMARK  status: ('A' for Active; 'I' for Inactive)
REMARK    1  A    between atoms: S_1  and  C_2 
REMARK    2  A    between atoms: S_1  and  C_8 
REMARK    3  A    between atoms: C_3  and  N_10 
ROOT
HETATM    1  S   UNL     1      63.183   7.163   5.657  1.00  0.00     0.209 S 
HETATM    2  O   UNL     1      62.612   5.920   5.165  1.00  0.00    -0.217 OA
HETATM    3  O   UNL     1      62.838   7.699   6.960  1.00  0.00    -0.217 OA
ENDROOT
BRANCH   1   4
HETATM    4  C   UNL     1      62.674   8.382   4.536  1.00  0.00     0.097 A 
HETATM    5  C   UNL     1      62.264   8.151   3.188  1.00  0.00     0.054 A 
HETATM    6  C   UNL     1      61.950   9.322   2.535  1.00  0.00     0.080 A 
HETATM    7  S   UNL     1      62.096  10.690   3.552  1.00  0.00    -0.110 SA
HETATM    8  C   UNL     1      62.607   9.722   4.867  1.00  0.00     0.075 A 
BRANCH   5   9
HETATM    9  N   UNL     1      62.169   6.945   2.585  1.00  0.00    -0.397 N 
HETATM   10  H   UNL     1      61.458   6.317   2.849  1.00  0.00     0.156 HD
HETATM   11  H   UNL     1      62.810   6.694   1.881  1.00  0.00     0.156 HD
ENDBRANCH   5   9
ENDBRANCH   1   4
BRANCH   1  12
HETATM   12  C   UNL     1      64.948   7.051   5.533  1.00  0.00     0.064 A 
HETATM   13  C   UNL     1      65.552   6.962   4.274  1.00  0.00     0.024 A 
HETATM   14  C   UNL     1      66.945   6.953   4.178  1.00  0.00     0.002 A 
HETATM   15  C   UNL     1      67.728   7.033   5.330  1.00  0.00     0.000 A 
HETATM   16  C   UNL     1      67.122   7.122   6.584  1.00  0.00     0.002 A 
HETATM   17  C   UNL     1      65.730   7.136   6.690  1.00  0.00     0.024 A 
ENDBRANCH   1  12
TORSDOF 3
ENDMDL
MODEL 8
REMARK VINA RESULT:      -4.4      1.560      2.100
REMARK  3 active torsions:
REMARK  status: ('A' for Active; 'I' for Inactive)
REMARK    1  A    between atoms: S_1  and  C_2 
REMARK    2  A    between atoms: S_1  and  C_8 
REMARK    3  A    between atoms: C_3  and  N_10 
ROOT
HETATM    1  S   UNL     1      61.925   6.776   4.143  1.00  0.00     0.209 S 
HETATM    2  O   UNL     1      60.926   6.829   5.197  1.00  0.00    -0.217 OA
HETATM    3  O   UNL     1      61.961   5.690   3.180  1.00  0.00    -0.217 OA
ENDROOT
BRANCH   1   4
HETATM    4  C   UNL     1      63.452   6.689   4.956  1.00  0.00     0.097 A 
HETATM    5  C   UNL     1      64.706   6.403   4.338  1.00  0.00     0.054 A 
HETATM    6  C   UNL     1      65.738   6.369   5.249  1.00  0.00     0.080 A 
HETATM    7  S   UNL     1      65.210   6.733   6.837  1.00  0.00    -0.110 SA
HETATM    8  C   UNL     1      63.592   6.912   6.312  1.00  0.00     0.075 A 
BRANCH   5   9
HETATM    9  N   UNL     1      64.909   6.192   3.018  1.00  0.00    -0.397 N 
HETATM   10  H   UNL     1      64.211   5.757   2.476  1.00  0.00     0.156 HD
HETATM   11  H   UNL     1      65.755   6.473   2.598  1.00  0.00     0.156 HD
ENDBRANCH   5   9
ENDBRANCH   1   4
BRANCH   1  12
HETATM   12  C   UNL     1      61.892   8.317   3.267  1.00  0.00     0.064 A 
HETATM   13  C   UNL     1      61.858   9.520   3.979  1.00  0.00     0.024 A 
HETATM   14  C   UNL     1      61.912  10.731   3.288  1.00  0.00     0.002 A 
HETATM   15  C   UNL     1      61.999  10.740   1.895  1.00  0.00     0.000 A 
HETATM   16  C   UNL     1      62.033   9.539   1.188  1.00  0.00     0.002 A 
HETATM   17  C   UNL     1      61.984   8.322   1.871  1.00  0.00     0.024 A 
ENDBRANCH   1  12
TORSDOF 3
ENDMDL
MODEL 9
REMARK VINA RESULT:      -4.4      3.296      4.969
REMARK  3 active torsions:
REMARK  status: ('A' for Active; 'I' for Inactive)
REMARK    1  A    between atoms: S_1  and  C_2 
REMARK    2  A    between atoms: S_1  and  C_8 
REMARK    3  A    between atoms: C_3  and  N_10 
ROOT
HETATM    1  S   UNL     1      61.765   7.132   4.348  1.00  0.00     0.209 S 
HETATM    2  O   UNL     1      62.226   6.039   3.509  1.00  0.00    -0.217 OA
HETATM    3  O   UNL     1      62.361   7.405   5.643  1.00  0.00    -0.217 OA
ENDROOT
BRANCH   1   4
HETATM    4  C   UNL     1      60.104   6.781   4.697  1.00  0.00     0.097 A 
HETATM    5  C   UNL     1      59.633   6.017   5.807  1.00  0.00     0.054 A 
HETATM    6  C   UNL     1      58.263   5.880   5.798  1.00  0.00     0.080 A 
HETATM    7  S   UNL     1      57.539   6.712   4.489  1.00  0.00    -0.110 SA
HETATM    8  C   UNL     1      59.062   7.238   3.914  1.00  0.00     0.075 A 
BRANCH   5   9
HETATM    9  N   UNL     1      60.401   5.480   6.782  1.00  0.00    -0.397 N 
HETATM   10  H   UNL     1      61.282   5.870   6.985  1.00  0.00     0.156 HD
HETATM   11  H   UNL     1      60.079   4.700   7.290  1.00  0.00     0.156 HD
ENDBRANCH   5   9
ENDBRANCH   1   4
BRANCH   1  12
HETATM   12  C   UNL     1      61.787   8.620   3.384  1.00  0.00     0.064 A 
HETATM   13  C   UNL     1      61.790   9.863   4.025  1.00  0.00     0.024 A 
HETATM   14  C   UNL     1      61.886  11.030   3.265  1.00  0.00     0.002 A 
HETATM   15  C   UNL     1      61.979  10.954   1.874  1.00  0.00     0.000 A 
HETATM   16  C   UNL     1      61.975   9.713   1.238  1.00  0.00     0.002 A 
HETATM   17  C   UNL     1      61.884   8.541   1.991  1.00  0.00     0.024 A 
ENDBRANCH   1  12
TORSDOF 3
ENDMDL
