MODEL 1
REMARK VINA RESULT:      -5.5      0.000      0.000
REMARK  3 active torsions:
REMARK  status: ('A' for Active; 'I' for Inactive)
REMARK    1  A    between atoms: S_1  and  C_2 
REMARK    2  A    between atoms: S_1  and  C_3 
REMARK    3  A    between atoms: C_2  and  C_6 
ROOT
HETATM    1  C   UNL     1      62.832   8.606   4.533  1.00  0.00     0.059 A 
HETATM    2  C   UNL     1      62.526   8.377   3.189  1.00  0.00     0.025 A 
HETATM    3  C   UNL     1      62.716   9.887   5.081  1.00  0.00     0.025 A 
HETATM    4  C   UNL     1      62.047  10.729   2.916  1.00  0.00     0.034 A 
HETATM    5  C   UNL     1      62.327  10.952   4.265  1.00  0.00     0.025 A 
HETATM    6  C   UNL     1      62.142   9.446   2.376  1.00  0.00     0.025 A 
HETATM    7 CL   UNL     1      61.563  12.043   1.914  1.00  0.00    -0.084 Cl
ENDROOT
BRANCH   1   8
HETATM    8  S   UNL     1      63.243   7.229   5.583  1.00  0.00     0.182 S 
HETATM    9  O   UNL     1      63.058   7.673   6.953  1.00  0.00    -0.222 OA
HETATM   10  O   UNL     1      62.508   6.072   5.097  1.00  0.00    -0.222 OA
BRANCH   8  11
HETATM   11  C   UNL     1      64.959   6.910   5.369  1.00  0.00     0.223 C 
BRANCH  11  12
HETATM   12  C   UNL     1      65.777   7.695   6.342  1.00  0.00     0.137 C 
HETATM   13  O   UNL     1      65.944   8.908   6.195  1.00  0.00    -0.297 OA
HETATM   14  C   UNL     1      66.392   6.963   7.506  1.00  0.00     0.091 C 
ENDBRANCH  11  12
ENDBRANCH   8  11
ENDBRANCH   1   8
TORSDOF 3
ENDMDL
MODEL 2
REMARK VINA RESULT:      -4.8      1.952      2.718
REMARK  3 active torsions:
REMARK  status: ('A' for Active; 'I' for Inactive)
REMARK    1  A    between atoms: S_1  and  C_2 
REMARK    2  A    between atoms: S_1  and  C_3 
REMARK    3  A    between atoms: C_2  and  C_6 
ROOT
HETATM    1  C   UNL     1      64.115   8.049   4.745  1.00  0.00     0.059 A 
HETATM    2  C   UNL     1      63.397   9.247   4.795  1.00  0.00     0.025 A 
HETATM    3  C   UNL     1      64.029   7.213   3.627  1.00  0.00     0.025 A 
HETATM    4  C   UNL     1      62.449   8.748   2.629  1.00  0.00     0.034 A 
HETATM    5  C   UNL     1      63.187   7.565   2.569  1.00  0.00     0.025 A 
HETATM    6  C   UNL     1      62.553   9.591   3.736  1.00  0.00     0.025 A 
HETATM    7 CL   UNL     1      61.417   9.181   1.322  1.00  0.00    -0.084 Cl
ENDROOT
BRANCH   1   8
HETATM    8  S   UNL     1      65.249   7.654   6.059  1.00  0.00     0.182 S 
HETATM    9  O   UNL     1      66.066   8.833   6.278  1.00  0.00    -0.222 OA
HETATM   10  O   UNL     1      64.472   7.103   7.158  1.00  0.00    -0.222 OA
BRANCH   8  11
HETATM   11  C   UNL     1      66.315   6.390   5.460  1.00  0.00     0.223 C 
BRANCH  11  12
HETATM   12  C   UNL     1      66.742   5.478   6.564  1.00  0.00     0.137 C 
HETATM   13  O   UNL     1      66.245   4.357   6.685  1.00  0.00    -0.297 OA
HETATM   14  C   UNL     1      67.795   5.969   7.522  1.00  0.00     0.091 C 
ENDBRANCH  11  12
ENDBRANCH   8  11
ENDBRANCH   1   8
TORSDOF 3
ENDMDL
MODEL 3
REMARK VINA RESULT:      -4.7      1.828      2.415
REMARK  3 active torsions:
REMARK  status: ('A' for Active; 'I' for Inactive)
REMARK    1  A    between atoms: S_1  and  C_2 
REMARK    2  A    between atoms: S_1  and  C_3 
REMARK    3  A    between atoms: C_2  and  C_6 
ROOT
HETATM    1  C   UNL     1      62.411   8.388   4.145  1.00  0.00     0.059 A 
HETATM    2  C   UNL     1      62.698   9.155   3.013  1.00  0.00     0.025 A 
HETATM    3  C   UNL     1      61.306   7.531   4.163  1.00  0.00     0.025 A 
HETATM    4  C   UNL     1      60.735   8.257   1.928  1.00  0.00     0.034 A 
HETATM    5  C   UNL     1      60.463   7.472   3.050  1.00  0.00     0.025 A 
HETATM    6  C   UNL     1      61.850   9.096   1.905  1.00  0.00     0.025 A 
HETATM    7 CL   UNL     1      59.697   8.179   0.557  1.00  0.00    -0.084 Cl
ENDROOT
BRANCH   1   8
HETATM    8  S   UNL     1      63.538   8.406   5.522  1.00  0.00     0.182 S 
HETATM    9  O   UNL     1      64.188   9.705   5.517  1.00  0.00    -0.222 OA
HETATM   10  O   UNL     1      62.801   7.976   6.699  1.00  0.00    -0.222 OA
BRANCH   8  11
HETATM   11  C   UNL     1      64.780   7.206   5.190  1.00  0.00     0.223 C 
BRANCH  11  12
HETATM   12  C   UNL     1      66.057   7.546   5.887  1.00  0.00     0.137 C 
HETATM   13  O   UNL     1      66.103   7.633   7.115  1.00  0.00    -0.297 OA
HETATM   14  C   UNL     1      67.284   7.778   5.045  1.00  0.00     0.091 C 
ENDBRANCH  11  12
ENDBRANCH   8  11
ENDBRANCH   1   8
TORSDOF 3
ENDMDL
MODEL 4
REMARK VINA RESULT:      -4.5      1.749      2.100
REMARK  3 active torsions:
REMARK  status: ('A' for Active; 'I' for Inactive)
REMARK    1  A    between atoms: S_1  and  C_2 
REMARK    2  A    between atoms: S_1  and  C_3 
REMARK    3  A    between atoms: C_2  and  C_6 
ROOT
HETATM    1  C   UNL     1      63.599   7.512   4.513  1.00  0.00     0.059 A 
HETATM    2  C   UNL     1      63.640   6.640   3.420  1.00  0.00     0.025 A 
HETATM    3  C   UNL     1      63.023   8.780   4.390  1.00  0.00     0.025 A 
HETATM    4  C   UNL     1      62.583   8.330   2.055  1.00  0.00     0.034 A 
HETATM    5  C   UNL     1      62.518   9.190   3.153  1.00  0.00     0.025 A 
HETATM    6  C   UNL     1      63.139   7.057   2.185  1.00  0.00     0.025 A 
HETATM    7 CL   UNL     1      61.956   8.836   0.534  1.00  0.00    -0.084 Cl
ENDROOT
BRANCH   1   8
HETATM    8  S   UNL     1      64.166   6.947   6.102  1.00  0.00     0.182 S 
HETATM    9  O   UNL     1      63.319   7.577   7.100  1.00  0.00    -0.222 OA
HETATM   10  O   UNL     1      64.256   5.497   6.047  1.00  0.00    -0.222 OA
BRANCH   8  11
HETATM   11  C   UNL     1      65.790   7.584   6.328  1.00  0.00     0.223 C 
BRANCH  11  12
HETATM   12  C   UNL     1      66.562   6.757   7.303  1.00  0.00     0.137 C 
HETATM   13  O   UNL     1      66.232   6.706   8.490  1.00  0.00    -0.297 OA
HETATM   14  C   UNL     1      67.753   5.987   6.795  1.00  0.00     0.091 C 
ENDBRANCH  11  12
ENDBRANCH   8  11
ENDBRANCH   1   8
TORSDOF 3
ENDMDL
MODEL 5
REMARK VINA RESULT:      -4.4      3.208      5.177
REMARK  3 active torsions:
REMARK  status: ('A' for Active; 'I' for Inactive)
REMARK    1  A    between atoms: S_1  and  C_2 
REMARK    2  A    between atoms: S_1  and  C_3 
REMARK    3  A    between atoms: C_2  and  C_6 
ROOT
HETATM    1  C   UNL     1      64.466   7.738   4.571  1.00  0.00     0.059 A 
HETATM    2  C   UNL     1      65.808   7.707   4.962  1.00  0.00     0.025 A 
HETATM    3  C   UNL     1      63.978   6.826   3.630  1.00  0.00     0.025 A 
HETATM    4  C   UNL     1      66.197   5.886   3.423  1.00  0.00     0.034 A 
HETATM    5  C   UNL     1      64.851   5.901   3.052  1.00  0.00     0.025 A 
HETATM    6  C   UNL     1      66.677   6.783   4.377  1.00  0.00     0.025 A 
HETATM    7 CL   UNL     1      67.268   4.742   2.712  1.00  0.00    -0.084 Cl
ENDROOT
BRANCH   1   8
HETATM    8  S   UNL     1      63.347   8.863   5.376  1.00  0.00     0.182 S 
HETATM    9  O   UNL     1      62.892   8.207   6.590  1.00  0.00    -0.222 OA
HETATM   10  O   UNL     1      64.009  10.154   5.462  1.00  0.00    -0.222 OA
BRANCH   8  11
HETATM   11  C   UNL     1      61.947   9.039   4.327  1.00  0.00     0.223 C 
BRANCH  11  12
HETATM   12  C   UNL     1      61.941  10.373   3.656  1.00  0.00     0.137 C 
HETATM   13  O   UNL     1      61.836  11.411   4.312  1.00  0.00    -0.297 OA
HETATM   14  C   UNL     1      62.069  10.413   2.156  1.00  0.00     0.091 C 
ENDBRANCH  11  12
ENDBRANCH   8  11
ENDBRANCH   1   8
TORSDOF 3
ENDMDL
MODEL 6
REMARK VINA RESULT:      -4.2      1.920      2.959
REMARK  3 active torsions:
REMARK  status: ('A' for Active; 'I' for Inactive)
REMARK    1  A    between atoms: S_1  and  C_2 
REMARK    2  A    between atoms: S_1  and  C_3 
REMARK    3  A    between atoms: C_2  and  C_6 
ROOT
HETATM    1  C   UNL     1      64.070   8.095   4.272  1.00  0.00     0.059 A 
HETATM    2  C   UNL     1      63.936   7.228   3.184  1.00  0.00     0.025 A 
HETATM    3  C   UNL     1      63.194   9.173   4.435  1.00  0.00     0.025 A 
HETATM    4  C   UNL     1      62.082   8.552   2.379  1.00  0.00     0.034 A 
HETATM    5  C   UNL     1      62.200   9.403   3.480  1.00  0.00     0.025 A 
HETATM    6  C   UNL     1      62.943   7.465   2.230  1.00  0.00     0.025 A 
HETATM    7 CL   UNL     1      60.853   8.834   1.207  1.00  0.00    -0.084 Cl
ENDROOT
BRANCH   1   8
HETATM    8  S   UNL     1      65.283   7.743   5.525  1.00  0.00     0.182 S 
HETATM    9  O   UNL     1      66.264   6.857   4.925  1.00  0.00    -0.222 OA
HETATM   10  O   UNL     1      65.712   9.013   6.090  1.00  0.00    -0.222 OA
BRANCH   8  11
HETATM   11  C   UNL     1      64.470   6.833   6.791  1.00  0.00     0.223 C 
BRANCH  11  12
HETATM   12  C   UNL     1      63.549   5.810   6.211  1.00  0.00     0.137 C 
HETATM   13  O   UNL     1      63.991   4.783   5.692  1.00  0.00    -0.297 OA
HETATM   14  C   UNL     1      62.067   6.070   6.277  1.00  0.00     0.091 C 
ENDBRANCH  11  12
ENDBRANCH   8  11
ENDBRANCH   1   8
TORSDOF 3
ENDMDL
MODEL 7
REMARK VINA RESULT:      -4.1      3.430      5.452
REMARK  3 active torsions:
REMARK  status: ('A' for Active; 'I' for Inactive)
REMARK    1  A    between atoms: S_1  and  C_2 
REMARK    2  A    between atoms: S_1  and  C_3 
REMARK    3  A    between atoms: C_2  and  C_6 
ROOT
HETATM    1  C   UNL     1      63.678   8.013   5.199  1.00  0.00     0.059 A 
HETATM    2  C   UNL     1      63.499   6.980   6.123  1.00  0.00     0.025 A 
HETATM    3  C   UNL     1      64.947   8.555   4.974  1.00  0.00     0.025 A 
HETATM    4  C   UNL     1      65.855   7.067   6.650  1.00  0.00     0.034 A 
HETATM    5  C   UNL     1      66.037   8.082   5.709  1.00  0.00     0.025 A 
HETATM    6  C   UNL     1      64.591   6.513   6.858  1.00  0.00     0.025 A 
HETATM    7 CL   UNL     1      67.201   6.483   7.551  1.00  0.00    -0.084 Cl
ENDROOT
BRANCH   1   8
HETATM    8  S   UNL     1      62.299   8.549   4.209  1.00  0.00     0.182 S 
HETATM    9  O   UNL     1      61.231   7.587   4.419  1.00  0.00    -0.222 OA
HETATM   10  O   UNL     1      62.069   9.954   4.500  1.00  0.00    -0.222 OA
BRANCH   8  11
HETATM   11  C   UNL     1      62.790   8.416   2.525  1.00  0.00     0.223 C 
BRANCH  11  12
HETATM   12  C   UNL     1      61.880   9.199   1.636  1.00  0.00     0.137 C 
HETATM   13  O   UNL     1      62.089  10.393   1.411  1.00  0.00    -0.297 OA
HETATM   14  C   UNL     1      60.701   8.489   1.024  1.00  0.00     0.091 C 
ENDBRANCH  11  12
ENDBRANCH   8  11
ENDBRANCH   1   8
TORSDOF 3
ENDMDL
MODEL 8
REMARK VINA RESULT:      -4.0      3.375      4.841
REMARK  3 active torsions:
REMARK  status: ('A' for Active; 'I' for Inactive)
REMARK    1  A    between atoms: S_1  and  C_2 
REMARK    2  A    between atoms: S_1  and  C_3 
REMARK    3  A    between atoms: C_2  and  C_6 
ROOT
HETATM    1  C   UNL     1      62.523   8.925   2.795  1.00  0.00     0.059 A 
HETATM    2  C   UNL     1      61.926  10.186   2.881  1.00  0.00     0.025 A 
HETATM    3  C   UNL     1      63.307   8.436   3.845  1.00  0.00     0.025 A 
HETATM    4  C   UNL     1      62.949  10.503   5.047  1.00  0.00     0.034 A 
HETATM    5  C   UNL     1      63.523   9.233   4.972  1.00  0.00     0.025 A 
HETATM    6  C   UNL     1      62.149  10.981   4.008  1.00  0.00     0.025 A 
HETATM    7 CL   UNL     1      63.213  11.481   6.438  1.00  0.00    -0.084 Cl
ENDROOT
BRANCH   1   8
HETATM    8  S   UNL     1      62.171   7.885   1.395  1.00  0.00     0.182 S 
HETATM    9  O   UNL     1      62.389   8.691   0.206  1.00  0.00    -0.222 OA
HETATM   10  O   UNL     1      62.913   6.648   1.570  1.00  0.00    -0.222 OA
BRANCH   8  11
HETATM   11  C   UNL     1      60.455   7.503   1.453  1.00  0.00     0.223 C 
BRANCH  11  12
HETATM   12  C   UNL     1      60.141   6.618   2.614  1.00  0.00     0.137 C 
HETATM   13  O   UNL     1      60.286   5.397   2.536  1.00  0.00    -0.297 OA
HETATM   14  C   UNL     1      59.641   7.261   3.881  1.00  0.00     0.091 C 
ENDBRANCH  11  12
ENDBRANCH   8  11
ENDBRANCH   1   8
TORSDOF 3
ENDMDL
MODEL 9
REMARK VINA RESULT:      -3.9      3.557      5.745
REMARK  3 active torsions:
REMARK  status: ('A' for Active; 'I' for Inactive)
REMARK    1  A    between atoms: S_1  and  C_2 
REMARK    2  A    between atoms: S_1  and  C_3 
REMARK    3  A    between atoms: C_2  and  C_6 
ROOT
HETATM    1  C   UNL     1      65.178   6.950   5.745  1.00  0.00     0.059 A 
HETATM    2  C   UNL     1      66.447   6.984   5.160  1.00  0.00     0.025 A 
HETATM    3  C   UNL     1      64.810   5.895   6.586  1.00  0.00     0.025 A 
HETATM    4  C   UNL     1      66.967   4.870   6.207  1.00  0.00     0.034 A 
HETATM    5  C   UNL     1      65.709   4.849   6.811  1.00  0.00     0.025 A 
HETATM    6  C   UNL     1      67.340   5.934   5.386  1.00  0.00     0.025 A 
HETATM    7 CL   UNL     1      68.074   3.583   6.490  1.00  0.00    -0.084 Cl
ENDROOT
BRANCH   1   8
HETATM    8  S   UNL     1      64.074   8.328   5.520  1.00  0.00     0.182 S 
HETATM    9  O   UNL     1      62.933   8.100   6.388  1.00  0.00    -0.222 OA
HETATM   10  O   UNL     1      64.857   9.545   5.665  1.00  0.00    -0.222 OA
BRANCH   8  11
HETATM   11  C   UNL     1      63.487   8.254   3.864  1.00  0.00     0.223 C 
BRANCH  11  12
HETATM   12  C   UNL     1      63.081   6.864   3.498  1.00  0.00     0.137 C 
HETATM   13  O   UNL     1      62.078   6.347   3.994  1.00  0.00    -0.297 OA
HETATM   14  C   UNL     1      63.932   6.114   2.507  1.00  0.00     0.091 C 
ENDBRANCH  11  12
ENDBRANCH   8  11
ENDBRANCH   1   8
TORSDOF 3
ENDMDL
