MODEL 1
REMARK VINA RESULT:      -5.1      0.000      0.000
REMARK  2 active torsions:
REMARK  status: ('A' for Active; 'I' for Inactive)
REMARK    1  A    between atoms: C_4  and  C_7 
REMARK    2  A    between atoms: C_5  and  N_8 
ROOT
HETATM    1  C   UNL     1      66.255   7.550   5.721  1.00  0.00     0.081 A 
HETATM    2  N   UNL     1      64.344   7.232   6.917  1.00  0.00    -0.298 N 
ATOM      3  HN  UNL     1      63.368   7.200   7.213  1.00  0.00     0.187 HD
HETATM    4  C   UNL     1      64.833   7.618   5.726  1.00  0.00     0.062 A 
HETATM    5  C   UNL     1      66.609   7.078   6.958  1.00  0.00     0.115 A 
HETATM    6  N   UNL     1      65.435   6.896   7.629  1.00  0.00    -0.285 N 
HETATM    7  H   UNL     1      65.390   6.552   8.550  1.00  0.00     0.188 HD
ENDROOT
BRANCH   4   8
HETATM    8  C   UNL     1      63.963   8.052   4.631  1.00  0.00    -0.008 A 
HETATM    9  C   UNL     1      63.263   9.264   4.710  1.00  0.00     0.015 A 
HETATM   10  C   UNL     1      62.463   9.693   3.644  1.00  0.00     0.024 A 
HETATM   11  C   UNL     1      62.352   8.906   2.501  1.00  0.00     0.034 A 
HETATM   12  C   UNL     1      63.025   7.690   2.415  1.00  0.00     0.024 A 
HETATM   13 CL   UNL     1      61.381   9.437   1.184  1.00  0.00    -0.084 Cl
HETATM   14  C   UNL     1      63.829   7.265   3.477  1.00  0.00     0.015 A 
ENDBRANCH   4   8
BRANCH   5  15
HETATM   15  N   UNL     1      67.812   6.817   7.498  1.00  0.00    -0.384 N 
HETATM   16  H   UNL     1      68.633   7.054   7.009  1.00  0.00     0.157 HD
HETATM   17  H   UNL     1      67.871   6.390   8.382  1.00  0.00     0.157 HD
ENDBRANCH   5  15
TORSDOF 2
ENDMDL
MODEL 2
REMARK VINA RESULT:      -5.0      1.092      1.797
REMARK  2 active torsions:
REMARK  status: ('A' for Active; 'I' for Inactive)
REMARK    1  A    between atoms: C_4  and  C_7 
REMARK    2  A    between atoms: C_5  and  N_8 
ROOT
HETATM    1  C   UNL     1      65.058   6.480   6.860  1.00  0.00     0.081 A 
HETATM    2  N   UNL     1      66.166   8.424   6.438  1.00  0.00    -0.298 N 
ATOM      3  HN  UNL     1      66.477   9.304   6.026  1.00  0.00     0.187 HD
HETATM    4  C   UNL     1      65.145   7.644   6.045  1.00  0.00     0.062 A 
HETATM    5  C   UNL     1      66.061   6.599   7.787  1.00  0.00     0.115 A 
HETATM    6  N   UNL     1      66.686   7.778   7.497  1.00  0.00    -0.285 N 
HETATM    7  H   UNL     1      67.448   8.124   8.016  1.00  0.00     0.188 HD
ENDROOT
BRANCH   4   8
HETATM    8  C   UNL     1      64.285   7.998   4.914  1.00  0.00    -0.008 A 
HETATM    9  C   UNL     1      64.182   7.152   3.800  1.00  0.00     0.015 A 
HETATM   10  C   UNL     1      63.330   7.476   2.738  1.00  0.00     0.024 A 
HETATM   11  C   UNL     1      62.586   8.653   2.782  1.00  0.00     0.034 A 
HETATM   12  C   UNL     1      62.692   9.513   3.871  1.00  0.00     0.024 A 
HETATM   13 CL   UNL     1      61.527   9.047   1.484  1.00  0.00    -0.084 Cl
HETATM   14  C   UNL     1      63.539   9.186   4.934  1.00  0.00     0.015 A 
ENDBRANCH   4   8
BRANCH   5  15
HETATM   15  N   UNL     1      66.438   5.797   8.797  1.00  0.00    -0.384 N 
HETATM   16  H   UNL     1      65.777   5.209   9.231  1.00  0.00     0.157 HD
HETATM   17  H   UNL     1      67.373   5.797   9.103  1.00  0.00     0.157 HD
ENDBRANCH   5  15
TORSDOF 2
ENDMDL
MODEL 3
REMARK VINA RESULT:      -5.0      3.654      4.497
REMARK  2 active torsions:
REMARK  status: ('A' for Active; 'I' for Inactive)
REMARK    1  A    between atoms: C_4  and  C_7 
REMARK    2  A    between atoms: C_5  and  N_8 
ROOT
HETATM    1  C   UNL     1      62.845   9.782   4.914  1.00  0.00     0.081 A 
HETATM    2  N   UNL     1      61.663  11.187   3.567  1.00  0.00    -0.298 N 
ATOM      3  HN  UNL     1      61.089  11.571   2.817  1.00  0.00     0.187 HD
HETATM    4  C   UNL     1      62.000   9.903   3.775  1.00  0.00     0.062 A 
HETATM    5  C   UNL     1      62.987  11.052   5.408  1.00  0.00     0.115 A 
HETATM    6  N   UNL     1      62.257  11.851   4.576  1.00  0.00    -0.285 N 
HETATM    7  H   UNL     1      62.173  12.823   4.702  1.00  0.00     0.188 HD
ENDROOT
BRANCH   4   8
HETATM    8  C   UNL     1      61.536   8.825   2.898  1.00  0.00    -0.008 A 
HETATM    9  C   UNL     1      61.647   8.937   1.505  1.00  0.00     0.015 A 
HETATM   10  C   UNL     1      61.237   7.889   0.673  1.00  0.00     0.024 A 
HETATM   11  C   UNL     1      60.706   6.729   1.231  1.00  0.00     0.034 A 
HETATM   12  C   UNL     1      60.572   6.610   2.612  1.00  0.00     0.024 A 
HETATM   13 CL   UNL     1      60.215   5.433   0.211  1.00  0.00    -0.084 Cl
HETATM   14  C   UNL     1      60.986   7.654   3.442  1.00  0.00     0.015 A 
ENDBRANCH   4   8
BRANCH   5  15
HETATM   15  N   UNL     1      63.668  11.523   6.467  1.00  0.00    -0.384 N 
HETATM   16  H   UNL     1      63.600  11.068   7.338  1.00  0.00     0.157 HD
HETATM   17  H   UNL     1      64.235  12.322   6.371  1.00  0.00     0.157 HD
ENDBRANCH   5  15
TORSDOF 2
ENDMDL
MODEL 4
REMARK VINA RESULT:      -5.0      3.700      5.425
REMARK  2 active torsions:
REMARK  status: ('A' for Active; 'I' for Inactive)
REMARK    1  A    between atoms: C_4  and  C_7 
REMARK    2  A    between atoms: C_5  and  N_8 
ROOT
HETATM    1  C   UNL     1      62.606   9.520   3.641  1.00  0.00     0.081 A 
HETATM    2  N   UNL     1      63.122  10.565   5.597  1.00  0.00    -0.298 N 
ATOM      3  HN  UNL     1      63.458  10.770   6.538  1.00  0.00     0.187 HD
HETATM    4  C   UNL     1      63.236   9.414   4.912  1.00  0.00     0.062 A 
HETATM    5  C   UNL     1      62.123  10.800   3.571  1.00  0.00     0.115 A 
HETATM    6  N   UNL     1      62.464  11.384   4.757  1.00  0.00    -0.285 N 
HETATM    7  H   UNL     1      62.248  12.319   4.978  1.00  0.00     0.188 HD
ENDROOT
BRANCH   4   8
HETATM    8  C   UNL     1      63.919   8.242   5.467  1.00  0.00    -0.008 A 
HETATM    9  C   UNL     1      63.186   7.150   5.953  1.00  0.00     0.015 A 
HETATM   10  C   UNL     1      63.843   6.017   6.447  1.00  0.00     0.024 A 
HETATM   11  C   UNL     1      65.234   5.977   6.466  1.00  0.00     0.034 A 
HETATM   12  C   UNL     1      65.977   7.062   6.006  1.00  0.00     0.024 A 
HETATM   13 CL   UNL     1      66.045   4.580   7.060  1.00  0.00    -0.084 Cl
HETATM   14  C   UNL     1      65.320   8.190   5.507  1.00  0.00     0.015 A 
ENDBRANCH   4   8
BRANCH   5  15
HETATM   15  N   UNL     1      61.449  11.445   2.603  1.00  0.00    -0.384 N 
HETATM   16  H   UNL     1      60.940  10.932   1.933  1.00  0.00     0.157 HD
HETATM   17  H   UNL     1      61.463  12.428   2.564  1.00  0.00     0.157 HD
ENDBRANCH   5  15
TORSDOF 2
ENDMDL
MODEL 5
REMARK VINA RESULT:      -4.4      3.842      5.645
REMARK  2 active torsions:
REMARK  status: ('A' for Active; 'I' for Inactive)
REMARK    1  A    between atoms: C_4  and  C_7 
REMARK    2  A    between atoms: C_5  and  N_8 
ROOT
HETATM    1  C   UNL     1      62.105   7.835   3.336  1.00  0.00     0.081 A 
HETATM    2  N   UNL     1      62.345   9.815   4.435  1.00  0.00    -0.298 N 
ATOM      3  HN  UNL     1      62.644  10.546   5.081  1.00  0.00     0.187 HD
HETATM    4  C   UNL     1      62.804   8.555   4.346  1.00  0.00     0.062 A 
HETATM    5  C   UNL     1      61.214   8.725   2.794  1.00  0.00     0.115 A 
HETATM    6  N   UNL     1      61.403   9.892   3.478  1.00  0.00    -0.285 N 
HETATM    7  H   UNL     1      60.897  10.714   3.288  1.00  0.00     0.188 HD
ENDROOT
BRANCH   4   8
HETATM    8  C   UNL     1      63.872   8.052   5.213  1.00  0.00    -0.008 A 
HETATM    9  C   UNL     1      63.635   6.992   6.100  1.00  0.00     0.015 A 
HETATM   10  C   UNL     1      64.668   6.489   6.898  1.00  0.00     0.024 A 
HETATM   11  C   UNL     1      65.940   7.052   6.821  1.00  0.00     0.034 A 
HETATM   12  C   UNL     1      66.187   8.119   5.960  1.00  0.00     0.024 A 
HETATM   13 CL   UNL     1      67.216   6.428   7.791  1.00  0.00    -0.084 Cl
HETATM   14  C   UNL     1      65.155   8.616   5.158  1.00  0.00     0.015 A 
ENDBRANCH   4   8
BRANCH   5  15
HETATM   15  N   UNL     1      60.309   8.589   1.810  1.00  0.00    -0.384 N 
HETATM   16  H   UNL     1      59.386   8.321   2.024  1.00  0.00     0.157 HD
HETATM   17  H   UNL     1      60.569   8.758   0.876  1.00  0.00     0.157 HD
ENDBRANCH   5  15
TORSDOF 2
ENDMDL
MODEL 6
REMARK VINA RESULT:      -4.3     13.094     14.106
REMARK  2 active torsions:
REMARK  status: ('A' for Active; 'I' for Inactive)
REMARK    1  A    between atoms: C_4  and  C_7 
REMARK    2  A    between atoms: C_5  and  N_8 
ROOT
HETATM    1  C   UNL     1      55.692   2.883  13.604  1.00  0.00     0.081 A 
HETATM    2  N   UNL     1      55.304   1.028  14.868  1.00  0.00    -0.298 N 
ATOM      3  HN  UNL     1      55.383   0.117  15.318  1.00  0.00     0.187 HD
HETATM    4  C   UNL     1      56.190   1.628  14.055  1.00  0.00     0.062 A 
HETATM    5  C   UNL     1      54.468   3.033  14.202  1.00  0.00     0.115 A 
HETATM    6  N   UNL     1      54.287   1.905  14.950  1.00  0.00    -0.285 N 
HETATM    7  H   UNL     1      53.486   1.748  15.500  1.00  0.00     0.188 HD
ENDROOT
BRANCH   4   8
HETATM    8  C   UNL     1      57.473   1.009  13.711  1.00  0.00    -0.008 A 
HETATM    9  C   UNL     1      57.595  -0.385  13.623  1.00  0.00     0.015 A 
HETATM   10  C   UNL     1      58.812  -0.969  13.256  1.00  0.00     0.024 A 
HETATM   11  C   UNL     1      59.914  -0.162  12.987  1.00  0.00     0.034 A 
HETATM   12  C   UNL     1      59.815   1.223  13.089  1.00  0.00     0.024 A 
HETATM   13 CL   UNL     1      61.409  -0.878  12.522  1.00  0.00    -0.084 Cl
HETATM   14  C   UNL     1      58.598   1.806  13.449  1.00  0.00     0.015 A 
ENDBRANCH   4   8
BRANCH   5  15
HETATM   15  N   UNL     1      53.562   4.023  14.136  1.00  0.00    -0.384 N 
HETATM   16  H   UNL     1      53.861   4.961  14.099  1.00  0.00     0.157 HD
HETATM   17  H   UNL     1      52.601   3.812  14.126  1.00  0.00     0.157 HD
ENDBRANCH   5  15
TORSDOF 2
ENDMDL
MODEL 7
REMARK VINA RESULT:      -4.3      4.497      6.163
REMARK  2 active torsions:
REMARK  status: ('A' for Active; 'I' for Inactive)
REMARK    1  A    between atoms: C_4  and  C_7 
REMARK    2  A    between atoms: C_5  and  N_8 
ROOT
HETATM    1  C   UNL     1      60.023   7.188   2.496  1.00  0.00     0.081 A 
HETATM    2  N   UNL     1      60.773   9.103   1.519  1.00  0.00    -0.298 N 
ATOM      3  HN  UNL     1      61.319   9.930   1.279  1.00  0.00     0.187 HD
HETATM    4  C   UNL     1      61.055   8.166   2.440  1.00  0.00     0.062 A 
HETATM    5  C   UNL     1      59.108   7.558   1.545  1.00  0.00     0.115 A 
HETATM    6  N   UNL     1      59.605   8.700   0.985  1.00  0.00    -0.285 N 
HETATM    7  H   UNL     1      59.151   9.184   0.259  1.00  0.00     0.188 HD
ENDROOT
BRANCH   4   8
HETATM    8  C   UNL     1      62.273   8.215   3.253  1.00  0.00    -0.008 A 
HETATM    9  C   UNL     1      62.462   9.233   4.198  1.00  0.00     0.015 A 
HETATM   10  C   UNL     1      63.610   9.255   4.999  1.00  0.00     0.024 A 
HETATM   11  C   UNL     1      64.577   8.264   4.849  1.00  0.00     0.034 A 
HETATM   12  C   UNL     1      64.413   7.257   3.901  1.00  0.00     0.024 A 
HETATM   13 CL   UNL     1      65.982   8.279   5.842  1.00  0.00    -0.084 Cl
HETATM   14  C   UNL     1      63.264   7.233   3.106  1.00  0.00     0.015 A 
ENDBRANCH   4   8
BRANCH   5  15
HETATM   15  N   UNL     1      57.946   7.000   1.164  1.00  0.00    -0.384 N 
HETATM   16  H   UNL     1      57.904   6.467   0.336  1.00  0.00     0.157 HD
HETATM   17  H   UNL     1      57.138   7.123   1.711  1.00  0.00     0.157 HD
ENDBRANCH   5  15
TORSDOF 2
ENDMDL
MODEL 8
REMARK VINA RESULT:      -3.9      3.622      4.780
REMARK  2 active torsions:
REMARK  status: ('A' for Active; 'I' for Inactive)
REMARK    1  A    between atoms: C_4  and  C_7 
REMARK    2  A    between atoms: C_5  and  N_8 
ROOT
HETATM    1  C   UNL     1      62.482   8.291   4.260  1.00  0.00     0.081 A 
HETATM    2  N   UNL     1      61.369  10.171   3.618  1.00  0.00    -0.298 N 
ATOM      3  HN  UNL     1      60.711  10.819   3.186  1.00  0.00     0.187 HD
HETATM    4  C   UNL     1      61.375   8.829   3.545  1.00  0.00     0.062 A 
HETATM    5  C   UNL     1      63.138   9.368   4.796  1.00  0.00     0.115 A 
HETATM    6  N   UNL     1      62.430  10.463   4.392  1.00  0.00    -0.285 N 
HETATM    7  H   UNL     1      62.674  11.383   4.643  1.00  0.00     0.188 HD
ENDROOT
BRANCH   4   8
HETATM    8  C   UNL     1      60.357   8.085   2.799  1.00  0.00    -0.008 A 
HETATM    9  C   UNL     1      60.323   8.126   1.398  1.00  0.00     0.015 A 
HETATM   10  C   UNL     1      59.372   7.383   0.689  1.00  0.00     0.024 A 
HETATM   11  C   UNL     1      58.445   6.607   1.379  1.00  0.00     0.034 A 
HETATM   12  C   UNL     1      58.453   6.571   2.771  1.00  0.00     0.024 A 
HETATM   13 CL   UNL     1      57.283   5.682   0.509  1.00  0.00    -0.084 Cl
HETATM   14  C   UNL     1      59.406   7.308   3.478  1.00  0.00     0.015 A 
ENDBRANCH   4   8
BRANCH   5  15
HETATM   15  N   UNL     1      64.240   9.447   5.562  1.00  0.00    -0.384 N 
HETATM   16  H   UNL     1      64.391   8.786   6.276  1.00  0.00     0.157 HD
HETATM   17  H   UNL     1      64.894  10.166   5.409  1.00  0.00     0.157 HD
ENDBRANCH   5  15
TORSDOF 2
ENDMDL
MODEL 9
REMARK VINA RESULT:      -3.8      4.201      5.859
REMARK  2 active torsions:
REMARK  status: ('A' for Active; 'I' for Inactive)
REMARK    1  A    between atoms: C_4  and  C_7 
REMARK    2  A    between atoms: C_5  and  N_8 
ROOT
HETATM    1  C   UNL     1      60.149   6.466   4.132  1.00  0.00     0.081 A 
HETATM    2  N   UNL     1      60.546   8.589   3.412  1.00  0.00    -0.298 N 
ATOM      3  HN  UNL     1      60.968   9.501   3.240  1.00  0.00     0.187 HD
HETATM    4  C   UNL     1      61.069   7.551   4.087  1.00  0.00     0.062 A 
HETATM    5  C   UNL     1      59.048   6.882   3.430  1.00  0.00     0.115 A 
HETATM    6  N   UNL     1      59.338   8.149   3.014  1.00  0.00    -0.285 N 
HETATM    7  H   UNL     1      58.720   8.692   2.473  1.00  0.00     0.188 HD
ENDROOT
BRANCH   4   8
HETATM    8  C   UNL     1      62.406   7.604   4.682  1.00  0.00    -0.008 A 
HETATM    9  C   UNL     1      63.381   8.474   4.175  1.00  0.00     0.015 A 
HETATM   10  C   UNL     1      64.646   8.549   4.771  1.00  0.00     0.024 A 
HETATM   11  C   UNL     1      64.942   7.745   5.868  1.00  0.00     0.034 A 
HETATM   12  C   UNL     1      63.991   6.860   6.371  1.00  0.00     0.024 A 
HETATM   13 CL   UNL     1      66.491   7.844   6.612  1.00  0.00    -0.084 Cl
HETATM   14  C   UNL     1      62.727   6.791   5.780  1.00  0.00     0.015 A 
ENDBRANCH   4   8
BRANCH   5  15
HETATM   15  N   UNL     1      57.887   6.266   3.150  1.00  0.00    -0.384 N 
HETATM   16  H   UNL     1      57.720   5.916   2.244  1.00  0.00     0.157 HD
HETATM   17  H   UNL     1      57.203   6.164   3.851  1.00  0.00     0.157 HD
ENDBRANCH   5  15
TORSDOF 2
ENDMDL
